MODEL 1
REMARK VINA RESULT:    -8.142      0.000      0.000
REMARK INTER + INTRA:         -12.059
REMARK INTER:                 -10.998
REMARK INTRA:                  -1.062
REMARK UNBOUND:                -1.062
REMARK  Name = 
REMARK  6 active torsions:
REMARK  status: ('A' for Active; 'I' for Inactive)
REMARK    1  A    between atoms: C_2  and  C_18
REMARK    2  A    between atoms: N_3  and  C_4
REMARK    3  A    between atoms: C_4  and  C_5
REMARK    4  A    between atoms: C_8  and  C_9
REMARK    5  A    between atoms: C_9  and  C_10
REMARK    6  A    between atoms: C_10  and  C_11
REMARK                            x       y       z     vdW  Elec       q    Type
REMARK                         _______ _______ _______ _____ _____    ______ ____
ROOT
ATOM      1  O   UNL     1      49.218   6.695  13.641  0.00  0.00    +0.000 OA
ATOM      2  C   UNL     1      48.323   6.514  14.463  0.00  0.00    +0.000 C 
ATOM      3  N   UNL     1      46.996   6.528  14.106  0.00  0.00    +0.000 N 
ATOM      4  H   UNL     1      46.283   6.591  14.826  0.00  0.00    +0.000 HD
ENDROOT
BRANCH   2   5
ATOM      5  C   UNL     1      48.631   6.226  15.868  0.00  0.00    +0.000 A 
ATOM      6  C   UNL     1      49.192   7.215  16.665  0.00  0.00    +0.000 A 
ATOM      7  S   UNL     1      49.484   6.716  18.268  0.00  0.00    +0.000 S 
ATOM      8  C   UNL     1      48.827   5.177  17.964  0.00  0.00    +0.000 A 
ATOM      9  N   UNL     1      48.732   4.250  18.956  0.00  0.00    +0.000 NA
ATOM     10  C   UNL     1      48.179   3.138  18.599  0.00  0.00    +0.000 A 
ATOM     11  N   UNL     1      47.718   2.871  17.333  0.00  0.00    +0.000 N 
ATOM     12  C   UNL     1      47.826   3.761  16.292  0.00  0.00    +0.000 A 
ATOM     13  O   UNL     1      47.460   3.466  15.159  0.00  0.00    +0.000 OA
ATOM     14  C   UNL     1      48.418   5.035  16.651  0.00  0.00    +0.000 A 
ATOM     15  H   UNL     1      47.307   1.974  17.112  0.00  0.00    +0.000 HD
ENDBRANCH   2   5
BRANCH   3  16
ATOM     16  C   UNL     1      46.619   6.905  12.768  0.00  0.00    +0.000 C 
BRANCH  16  17
ATOM     17  C   UNL     1      45.972   5.776  12.012  0.00  0.00    +0.000 A 
ATOM     18  C   UNL     1      45.558   5.955  10.686  0.00  0.00    +0.000 A 
ATOM     19  C   UNL     1      45.015   4.891   9.960  0.00  0.00    +0.000 A 
ATOM     20  C   UNL     1      44.868   3.628  10.547  0.00  0.00    +0.000 A 
ATOM     21  C   UNL     1      45.236   3.463  11.888  0.00  0.00    +0.000 A 
ATOM     22  C   UNL     1      45.778   4.527  12.614  0.00  0.00    +0.000 A 
BRANCH  20  23
ATOM     23  C   UNL     1      44.267   2.477   9.773  0.00  0.00    +0.000 C 
BRANCH  23  24
ATOM     24  C   UNL     1      44.763   2.379   8.322  0.00  0.00    +0.000 C 
BRANCH  24  25
ATOM     25  C   UNL     1      46.300   2.279   8.236  0.00  0.00    +0.000 C 
ATOM     26  C   UNL     1      46.878   3.291   7.248  0.00  0.00    +0.000 C 
ATOM     27  C   UNL     1      46.883   2.532   5.939  0.00  0.00    +0.000 C 
ATOM     28  N   UNL     1      47.289   1.177   6.313  0.00  0.00    +0.000 NA
ATOM     29  C   UNL     1      46.782   0.937   7.672  0.00  0.00    +0.000 C 
ATOM     30  H   UNL     1      48.308   1.136   6.338  0.00  0.00    +0.000 HD
ENDBRANCH  24  25
ENDBRANCH  23  24
ENDBRANCH  20  23
ENDBRANCH  16  17
ENDBRANCH   3  16
TORSDOF 6
ENDMDL
MODEL 2
REMARK VINA RESULT:    -7.235      2.056      3.587
REMARK INTER + INTRA:         -10.835
REMARK INTER:                  -9.775
REMARK INTRA:                  -1.059
REMARK UNBOUND:                -1.062
REMARK  Name = 
REMARK  6 active torsions:
REMARK  status: ('A' for Active; 'I' for Inactive)
REMARK    1  A    between atoms: C_2  and  C_18
REMARK    2  A    between atoms: N_3  and  C_4
REMARK    3  A    between atoms: C_4  and  C_5
REMARK    4  A    between atoms: C_8  and  C_9
REMARK    5  A    between atoms: C_9  and  C_10
REMARK    6  A    between atoms: C_10  and  C_11
REMARK                            x       y       z     vdW  Elec       q    Type
REMARK                         _______ _______ _______ _____ _____    ______ ____
ROOT
ATOM      1  O   UNL     1      47.855   4.983  16.120  0.00  0.00    +0.000 OA
ATOM      2  C   UNL     1      47.910   5.859  15.260  0.00  0.00    +0.000 C 
ATOM      3  N   UNL     1      47.026   5.900  14.208  0.00  0.00    +0.000 N 
ATOM      4  H   UNL     1      47.225   6.495  13.409  0.00  0.00    +0.000 HD
ENDROOT
BRANCH   2   5
ATOM      5  C   UNL     1      48.901   6.937  15.339  0.00  0.00    +0.000 A 
ATOM      6  C   UNL     1      49.178   7.527  16.565  0.00  0.00    +0.000 A 
ATOM      7  S   UNL     1      50.352   8.759  16.481  0.00  0.00    +0.000 S 
ATOM      8  C   UNL     1      50.565   8.514  14.810  0.00  0.00    +0.000 A 
ATOM      9  N   UNL     1      51.483   9.234  14.111  0.00  0.00    +0.000 NA
ATOM     10  C   UNL     1      51.569   8.921  12.860  0.00  0.00    +0.000 A 
ATOM     11  N   UNL     1      50.810   7.954  12.247  0.00  0.00    +0.000 N 
ATOM     12  C   UNL     1      49.846   7.229  12.904  0.00  0.00    +0.000 A 
ATOM     13  O   UNL     1      49.144   6.415  12.312  0.00  0.00    +0.000 OA
ATOM     14  C   UNL     1      49.731   7.528  14.319  0.00  0.00    +0.000 A 
ATOM     15  H   UNL     1      50.914   7.764  11.259  0.00  0.00    +0.000 HD
ENDBRANCH   2   5
BRANCH   3  16
ATOM     16  C   UNL     1      46.096   4.818  14.012  0.00  0.00    +0.000 C 
BRANCH  16  17
ATOM     17  C   UNL     1      45.740   4.620  12.564  0.00  0.00    +0.000 A 
ATOM     18  C   UNL     1      45.843   5.680  11.656  0.00  0.00    +0.000 A 
ATOM     19  C   UNL     1      45.574   5.484  10.298  0.00  0.00    +0.000 A 
ATOM     20  C   UNL     1      45.188   4.225   9.822  0.00  0.00    +0.000 A 
ATOM     21  C   UNL     1      45.036   3.177  10.738  0.00  0.00    +0.000 A 
ATOM     22  C   UNL     1      45.304   3.374  12.096  0.00  0.00    +0.000 A 
BRANCH  20  23
ATOM     23  C   UNL     1      44.880   4.009   8.358  0.00  0.00    +0.000 C 
BRANCH  23  24
ATOM     24  C   UNL     1      46.125   4.003   7.456  0.00  0.00    +0.000 C 
BRANCH  24  25
ATOM     25  C   UNL     1      46.180   2.758   6.546  0.00  0.00    +0.000 C 
ATOM     26  C   UNL     1      46.820   1.568   7.257  0.00  0.00    +0.000 C 
ATOM     27  C   UNL     1      48.289   1.716   6.926  0.00  0.00    +0.000 C 
ATOM     28  N   UNL     1      48.299   2.152   5.530  0.00  0.00    +0.000 NA
ATOM     29  C   UNL     1      47.082   2.952   5.321  0.00  0.00    +0.000 C 
ATOM     30  H   UNL     1      48.250   1.329   4.929  0.00  0.00    +0.000 HD
ENDBRANCH  24  25
ENDBRANCH  23  24
ENDBRANCH  20  23
ENDBRANCH  16  17
ENDBRANCH   3  16
TORSDOF 6
ENDMDL
MODEL 3
REMARK VINA RESULT:    -7.033      1.526      2.482
REMARK INTER + INTRA:         -10.562
REMARK INTER:                  -9.721
REMARK INTRA:                  -0.840
REMARK UNBOUND:                -1.062
REMARK  Name = 
REMARK  6 active torsions:
REMARK  status: ('A' for Active; 'I' for Inactive)
REMARK    1  A    between atoms: C_2  and  C_18
REMARK    2  A    between atoms: N_3  and  C_4
REMARK    3  A    between atoms: C_4  and  C_5
REMARK    4  A    between atoms: C_8  and  C_9
REMARK    5  A    between atoms: C_9  and  C_10
REMARK    6  A    between atoms: C_10  and  C_11
REMARK                            x       y       z     vdW  Elec       q    Type
REMARK                         _______ _______ _______ _____ _____    ______ ____
ROOT
ATOM      1  O   UNL     1      49.351   6.615  14.259  0.00  0.00    +0.000 OA
ATOM      2  C   UNL     1      48.376   6.303  14.938  0.00  0.00    +0.000 C 
ATOM      3  N   UNL     1      47.105   6.275  14.414  0.00  0.00    +0.000 N 
ATOM      4  H   UNL     1      46.307   6.226  15.039  0.00  0.00    +0.000 HD
ENDROOT
BRANCH   2   5
ATOM      5  C   UNL     1      48.527   5.898  16.340  0.00  0.00    +0.000 A 
ATOM      6  C   UNL     1      48.498   4.551  16.673  0.00  0.00    +0.000 A 
ATOM      7  S   UNL     1      48.690   4.255  18.340  0.00  0.00    +0.000 S 
ATOM      8  C   UNL     1      48.865   5.915  18.668  0.00  0.00    +0.000 A 
ATOM      9  N   UNL     1      49.107   6.355  19.932  0.00  0.00    +0.000 NA
ATOM     10  C   UNL     1      49.258   7.635  20.034  0.00  0.00    +0.000 A 
ATOM     11  N   UNL     1      49.181   8.513  18.981  0.00  0.00    +0.000 N 
ATOM     12  C   UNL     1      48.901   8.118  17.695  0.00  0.00    +0.000 A 
ATOM     13  O   UNL     1      48.778   8.936  16.789  0.00  0.00    +0.000 OA
ATOM     14  C   UNL     1      48.749   6.686  17.526  0.00  0.00    +0.000 A 
ATOM     15  H   UNL     1      49.293   9.507  19.127  0.00  0.00    +0.000 HD
ENDBRANCH   2   5
BRANCH   3  16
ATOM     16  C   UNL     1      46.872   6.758  13.078  0.00  0.00    +0.000 C 
BRANCH  16  17
ATOM     17  C   UNL     1      46.230   5.722  12.194  0.00  0.00    +0.000 A 
ATOM     18  C   UNL     1      45.926   4.451  12.697  0.00  0.00    +0.000 A 
ATOM     19  C   UNL     1      45.272   3.508  11.898  0.00  0.00    +0.000 A 
ATOM     20  C   UNL     1      44.916   3.814  10.579  0.00  0.00    +0.000 A 
ATOM     21  C   UNL     1      45.267   5.067  10.061  0.00  0.00    +0.000 A 
ATOM     22  C   UNL     1      45.921   6.010  10.859  0.00  0.00    +0.000 A 
BRANCH  20  23
ATOM     23  C   UNL     1      44.224   2.794   9.705  0.00  0.00    +0.000 C 
BRANCH  23  24
ATOM     24  C   UNL     1      44.758   2.747   8.264  0.00  0.00    +0.000 C 
BRANCH  24  25
ATOM     25  C   UNL     1      46.283   2.515   8.215  0.00  0.00    +0.000 C 
ATOM     26  C   UNL     1      46.953   3.389   7.157  0.00  0.00    +0.000 C 
ATOM     27  C   UNL     1      46.910   2.526   5.915  0.00  0.00    +0.000 C 
ATOM     28  N   UNL     1      47.199   1.178   6.407  0.00  0.00    +0.000 NA
ATOM     29  C   UNL     1      46.658   1.095   7.773  0.00  0.00    +0.000 C 
ATOM     30  H   UNL     1      48.211   1.056   6.454  0.00  0.00    +0.000 HD
ENDBRANCH  24  25
ENDBRANCH  23  24
ENDBRANCH  20  23
ENDBRANCH  16  17
ENDBRANCH   3  16
TORSDOF 6
ENDMDL
MODEL 4
REMARK VINA RESULT:    -6.948      3.298      8.295
REMARK INTER + INTRA:         -10.447
REMARK INTER:                  -9.148
REMARK INTRA:                  -1.300
REMARK UNBOUND:                -1.062
REMARK  Name = 
REMARK  6 active torsions:
REMARK  status: ('A' for Active; 'I' for Inactive)
REMARK    1  A    between atoms: C_2  and  C_18
REMARK    2  A    between atoms: N_3  and  C_4
REMARK    3  A    between atoms: C_4  and  C_5
REMARK    4  A    between atoms: C_8  and  C_9
REMARK    5  A    between atoms: C_9  and  C_10
REMARK    6  A    between atoms: C_10  and  C_11
REMARK                            x       y       z     vdW  Elec       q    Type
REMARK                         _______ _______ _______ _____ _____    ______ ____
ROOT
ATOM      1  O   UNL     1      45.539   7.915  11.766  0.00  0.00    +0.000 OA
ATOM      2  C   UNL     1      46.234   6.967  11.407  0.00  0.00    +0.000 C 
ATOM      3  N   UNL     1      47.594   6.948  11.607  0.00  0.00    +0.000 N 
ATOM      4  H   UNL     1      48.163   6.266  11.116  0.00  0.00    +0.000 HD
ENDROOT
BRANCH   2   5
ATOM      5  C   UNL     1      45.636   5.781  10.784  0.00  0.00    +0.000 A 
ATOM      6  C   UNL     1      45.868   5.520   9.441  0.00  0.00    +0.000 A 
ATOM      7  S   UNL     1      45.103   4.105   8.878  0.00  0.00    +0.000 S 
ATOM      8  C   UNL     1      44.475   3.768  10.423  0.00  0.00    +0.000 A 
ATOM      9  N   UNL     1      43.741   2.644  10.648  0.00  0.00    +0.000 NA
ATOM     10  C   UNL     1      43.358   2.491  11.873  0.00  0.00    +0.000 A 
ATOM     11  N   UNL     1      43.640   3.369  12.891  0.00  0.00    +0.000 N 
ATOM     12  C   UNL     1      44.344   4.534  12.703  0.00  0.00    +0.000 A 
ATOM     13  O   UNL     1      44.526   5.326  13.622  0.00  0.00    +0.000 OA
ATOM     14  C   UNL     1      44.818   4.736  11.347  0.00  0.00    +0.000 A 
ATOM     15  H   UNL     1      43.299   3.201  13.828  0.00  0.00    +0.000 HD
ENDBRANCH   2   5
BRANCH   3  16
ATOM     16  C   UNL     1      48.258   8.120  12.117  0.00  0.00    +0.000 C 
BRANCH  16  17
ATOM     17  C   UNL     1      48.467   8.061  13.606  0.00  0.00    +0.000 A 
ATOM     18  C   UNL     1      48.206   9.181  14.405  0.00  0.00    +0.000 A 
ATOM     19  C   UNL     1      48.337   9.111  15.795  0.00  0.00    +0.000 A 
ATOM     20  C   UNL     1      48.739   7.921  16.415  0.00  0.00    +0.000 A 
ATOM     21  C   UNL     1      49.049   6.817  15.612  0.00  0.00    +0.000 A 
ATOM     22  C   UNL     1      48.919   6.887  14.222  0.00  0.00    +0.000 A 
BRANCH  20  23
ATOM     23  C   UNL     1      48.899   7.843  17.915  0.00  0.00    +0.000 C 
BRANCH  23  24
ATOM     24  C   UNL     1      49.648   6.589  18.395  0.00  0.00    +0.000 C 
BRANCH  24  25
ATOM     25  C   UNL     1      48.757   5.674  19.261  0.00  0.00    +0.000 C 
ATOM     26  C   UNL     1      48.674   4.261  18.689  0.00  0.00    +0.000 C 
ATOM     27  C   UNL     1      47.480   4.332  17.762  0.00  0.00    +0.000 C 
ATOM     28  N   UNL     1      46.515   5.160  18.486  0.00  0.00    +0.000 NA
ATOM     29  C   UNL     1      47.290   6.119  19.288  0.00  0.00    +0.000 C 
ATOM     30  H   UNL     1      45.984   4.565  19.121  0.00  0.00    +0.000 HD
ENDBRANCH  24  25
ENDBRANCH  23  24
ENDBRANCH  20  23
ENDBRANCH  16  17
ENDBRANCH   3  16
TORSDOF 6
ENDMDL
MODEL 5
REMARK VINA RESULT:    -6.777      1.179      1.597
REMARK INTER + INTRA:         -10.215
REMARK INTER:                  -9.110
REMARK INTRA:                  -1.106
REMARK UNBOUND:                -1.062
REMARK  Name = 
REMARK  6 active torsions:
REMARK  status: ('A' for Active; 'I' for Inactive)
REMARK    1  A    between atoms: C_2  and  C_18
REMARK    2  A    between atoms: N_3  and  C_4
REMARK    3  A    between atoms: C_4  and  C_5
REMARK    4  A    between atoms: C_8  and  C_9
REMARK    5  A    between atoms: C_9  and  C_10
REMARK    6  A    between atoms: C_10  and  C_11
REMARK                            x       y       z     vdW  Elec       q    Type
REMARK                         _______ _______ _______ _____ _____    ______ ____
ROOT
ATOM      1  O   UNL     1      50.207   7.209  14.529  0.00  0.00    +0.000 OA
ATOM      2  C   UNL     1      49.226   7.091  15.260  0.00  0.00    +0.000 C 
ATOM      3  N   UNL     1      47.943   7.165  14.771  0.00  0.00    +0.000 N 
ATOM      4  H   UNL     1      47.167   7.280  15.415  0.00  0.00    +0.000 HD
ENDROOT
BRANCH   2   5
ATOM      5  C   UNL     1      49.377   6.818  16.693  0.00  0.00    +0.000 A 
ATOM      6  C   UNL     1      49.854   7.813  17.536  0.00  0.00    +0.000 A 
ATOM      7  S   UNL     1      49.966   7.331  19.166  0.00  0.00    +0.000 S 
ATOM      8  C   UNL     1      49.337   5.791  18.809  0.00  0.00    +0.000 A 
ATOM      9  N   UNL     1      49.130   4.876  19.794  0.00  0.00    +0.000 NA
ATOM     10  C   UNL     1      48.612   3.762  19.391  0.00  0.00    +0.000 A 
ATOM     11  N   UNL     1      48.290   3.483  18.085  0.00  0.00    +0.000 N 
ATOM     12  C   UNL     1      48.517   4.361  17.053  0.00  0.00    +0.000 A 
ATOM     13  O   UNL     1      48.274   4.055  15.890  0.00  0.00    +0.000 OA
ATOM     14  C   UNL     1      49.073   5.636  17.461  0.00  0.00    +0.000 A 
ATOM     15  H   UNL     1      47.900   2.586  17.829  0.00  0.00    +0.000 HD
ENDBRANCH   2   5
BRANCH   3  16
ATOM     16  C   UNL     1      47.722   7.533  13.396  0.00  0.00    +0.000 C 
BRANCH  16  17
ATOM     17  C   UNL     1      46.780   6.593  12.693  0.00  0.00    +0.000 A 
ATOM     18  C   UNL     1      46.195   6.955  11.473  0.00  0.00    +0.000 A 
ATOM     19  C   UNL     1      45.370   6.060  10.786  0.00  0.00    +0.000 A 
ATOM     20  C   UNL     1      45.107   4.787  11.307  0.00  0.00    +0.000 A 
ATOM     21  C   UNL     1      45.652   4.445  12.551  0.00  0.00    +0.000 A 
ATOM     22  C   UNL     1      46.476   5.340  13.239  0.00  0.00    +0.000 A 
BRANCH  20  23
ATOM     23  C   UNL     1      44.204   3.820  10.578  0.00  0.00    +0.000 C 
BRANCH  23  24
ATOM     24  C   UNL     1      44.911   2.533  10.122  0.00  0.00    +0.000 C 
BRANCH  24  25
ATOM     25  C   UNL     1      44.807   2.320   8.597  0.00  0.00    +0.000 C 
ATOM     26  C   UNL     1      46.072   1.681   8.029  0.00  0.00    +0.000 C 
ATOM     27  C   UNL     1      46.934   2.874   7.676  0.00  0.00    +0.000 C 
ATOM     28  N   UNL     1      45.989   3.847   7.126  0.00  0.00    +0.000 NA
ATOM     29  C   UNL     1      44.707   3.636   7.815  0.00  0.00    +0.000 C 
ATOM     30  H   UNL     1      45.857   3.651   6.134  0.00  0.00    +0.000 HD
ENDBRANCH  24  25
ENDBRANCH  23  24
ENDBRANCH  20  23
ENDBRANCH  16  17
ENDBRANCH   3  16
TORSDOF 6
ENDMDL
MODEL 6
REMARK VINA RESULT:    -6.690      2.900      8.716
REMARK INTER + INTRA:         -10.098
REMARK INTER:                  -8.908
REMARK INTRA:                  -1.190
REMARK UNBOUND:                -1.062
REMARK  Name = 
REMARK  6 active torsions:
REMARK  status: ('A' for Active; 'I' for Inactive)
REMARK    1  A    between atoms: C_2  and  C_18
REMARK    2  A    between atoms: N_3  and  C_4
REMARK    3  A    between atoms: C_4  and  C_5
REMARK    4  A    between atoms: C_8  and  C_9
REMARK    5  A    between atoms: C_9  and  C_10
REMARK    6  A    between atoms: C_10  and  C_11
REMARK                            x       y       z     vdW  Elec       q    Type
REMARK                         _______ _______ _______ _____ _____    ______ ____
ROOT
ATOM      1  O   UNL     1      44.690   7.090  12.682  0.00  0.00    +0.000 OA
ATOM      2  C   UNL     1      45.401   6.255  12.126  0.00  0.00    +0.000 C 
ATOM      3  N   UNL     1      46.753   6.441  11.971  0.00  0.00    +0.000 N 
ATOM      4  H   UNL     1      47.271   5.849  11.329  0.00  0.00    +0.000 HD
ENDROOT
BRANCH   2   5
ATOM      5  C   UNL     1      44.842   4.990  11.638  0.00  0.00    +0.000 A 
ATOM      6  C   UNL     1      44.040   4.225  12.474  0.00  0.00    +0.000 A 
ATOM      7  S   UNL     1      43.474   2.789  11.751  0.00  0.00    +0.000 S 
ATOM      8  C   UNL     1      44.243   3.164  10.280  0.00  0.00    +0.000 A 
ATOM      9  N   UNL     1      44.120   2.347   9.200  0.00  0.00    +0.000 NA
ATOM     10  C   UNL     1      44.722   2.769   8.137  0.00  0.00    +0.000 A 
ATOM     11  N   UNL     1      45.444   3.935   8.065  0.00  0.00    +0.000 N 
ATOM     12  C   UNL     1      45.627   4.772   9.140  0.00  0.00    +0.000 A 
ATOM     13  O   UNL     1      46.329   5.774   9.056  0.00  0.00    +0.000 OA
ATOM     14  C   UNL     1      44.947   4.352  10.349  0.00  0.00    +0.000 A 
ATOM     15  H   UNL     1      45.906   4.205   7.207  0.00  0.00    +0.000 HD
ENDBRANCH   2   5
BRANCH   3  16
ATOM     16  C   UNL     1      47.348   7.702  12.334  0.00  0.00    +0.000 C 
BRANCH  16  17
ATOM     17  C   UNL     1      47.825   7.725  13.761  0.00  0.00    +0.000 A 
ATOM     18  C   UNL     1      48.268   6.550  14.380  0.00  0.00    +0.000 A 
ATOM     19  C   UNL     1      48.771   6.578  15.684  0.00  0.00    +0.000 A 
ATOM     20  C   UNL     1      48.835   7.781  16.398  0.00  0.00    +0.000 A 
ATOM     21  C   UNL     1      48.345   8.947  15.796  0.00  0.00    +0.000 A 
ATOM     22  C   UNL     1      47.840   8.918  14.493  0.00  0.00    +0.000 A 
BRANCH  20  23
ATOM     23  C   UNL     1      49.362   7.817  17.814  0.00  0.00    +0.000 C 
BRANCH  23  24
ATOM     24  C   UNL     1      49.856   6.455  18.327  0.00  0.00    +0.000 C 
BRANCH  24  25
ATOM     25  C   UNL     1      48.864   5.812  19.320  0.00  0.00    +0.000 C 
ATOM     26  C   UNL     1      48.717   4.312  19.079  0.00  0.00    +0.000 C 
ATOM     27  C   UNL     1      47.578   4.230  18.086  0.00  0.00    +0.000 C 
ATOM     28  N   UNL     1      46.635   5.253  18.539  0.00  0.00    +0.000 NA
ATOM     29  C   UNL     1      47.430   6.329  19.151  0.00  0.00    +0.000 C 
ATOM     30  H   UNL     1      46.034   4.849  19.258  0.00  0.00    +0.000 HD
ENDBRANCH  24  25
ENDBRANCH  23  24
ENDBRANCH  20  23
ENDBRANCH  16  17
ENDBRANCH   3  16
TORSDOF 6
ENDMDL
MODEL 7
REMARK VINA RESULT:    -6.536      2.908      3.686
REMARK INTER + INTRA:          -9.891
REMARK INTER:                  -8.585
REMARK INTRA:                  -1.305
REMARK UNBOUND:                -1.062
REMARK  Name = 
REMARK  6 active torsions:
REMARK  status: ('A' for Active; 'I' for Inactive)
REMARK    1  A    between atoms: C_2  and  C_18
REMARK    2  A    between atoms: N_3  and  C_4
REMARK    3  A    between atoms: C_4  and  C_5
REMARK    4  A    between atoms: C_8  and  C_9
REMARK    5  A    between atoms: C_9  and  C_10
REMARK    6  A    between atoms: C_10  and  C_11
REMARK                            x       y       z     vdW  Elec       q    Type
REMARK                         _______ _______ _______ _____ _____    ______ ____
ROOT
ATOM      1  O   UNL     1      48.747   8.761  15.984  0.00  0.00    +0.000 OA
ATOM      2  C   UNL     1      49.065   7.607  15.706  0.00  0.00    +0.000 C 
ATOM      3  N   UNL     1      49.234   7.193  14.407  0.00  0.00    +0.000 N 
ATOM      4  H   UNL     1      49.283   6.200  14.199  0.00  0.00    +0.000 HD
ENDROOT
BRANCH   2   5
ATOM      5  C   UNL     1      49.325   6.619  16.759  0.00  0.00    +0.000 A 
ATOM      6  C   UNL     1      50.213   6.923  17.782  0.00  0.00    +0.000 A 
ATOM      7  S   UNL     1      50.398   5.668  18.921  0.00  0.00    +0.000 S 
ATOM      8  C   UNL     1      49.263   4.694  18.110  0.00  0.00    +0.000 A 
ATOM      9  N   UNL     1      48.917   3.473  18.598  0.00  0.00    +0.000 NA
ATOM     10  C   UNL     1      48.016   2.855  17.907  0.00  0.00    +0.000 A 
ATOM     11  N   UNL     1      47.437   3.352  16.765  0.00  0.00    +0.000 N 
ATOM     12  C   UNL     1      47.782   4.563  16.215  0.00  0.00    +0.000 A 
ATOM     13  O   UNL     1      47.289   4.948  15.160  0.00  0.00    +0.000 OA
ATOM     14  C   UNL     1      48.772   5.305  16.971  0.00  0.00    +0.000 A 
ATOM     15  H   UNL     1      46.747   2.813  16.259  0.00  0.00    +0.000 HD
ENDBRANCH   2   5
BRANCH   3  16
ATOM     16  C   UNL     1      48.896   8.080  13.324  0.00  0.00    +0.000 C 
BRANCH  16  17
ATOM     17  C   UNL     1      47.539   7.788  12.742  0.00  0.00    +0.000 A 
ATOM     18  C   UNL     1      47.375   6.760  11.805  0.00  0.00    +0.000 A 
ATOM     19  C   UNL     1      46.106   6.444  11.311  0.00  0.00    +0.000 A 
ATOM     20  C   UNL     1      44.976   7.153  11.737  0.00  0.00    +0.000 A 
ATOM     21  C   UNL     1      45.148   8.214  12.636  0.00  0.00    +0.000 A 
ATOM     22  C   UNL     1      46.417   8.531  13.129  0.00  0.00    +0.000 A 
BRANCH  20  23
ATOM     23  C   UNL     1      43.604   6.828  11.195  0.00  0.00    +0.000 C 
BRANCH  23  24
ATOM     24  C   UNL     1      43.486   5.409  10.615  0.00  0.00    +0.000 C 
BRANCH  24  25
ATOM     25  C   UNL     1      42.854   4.421  11.617  0.00  0.00    +0.000 C 
ATOM     26  C   UNL     1      43.217   4.769  13.059  0.00  0.00    +0.000 C 
ATOM     27  C   UNL     1      44.493   3.991  13.293  0.00  0.00    +0.000 C 
ATOM     28  N   UNL     1      44.263   2.714  12.615  0.00  0.00    +0.000 NA
ATOM     29  C   UNL     1      43.388   2.991  11.465  0.00  0.00    +0.000 C 
ATOM     30  H   UNL     1      43.768   2.090  13.252  0.00  0.00    +0.000 HD
ENDBRANCH  24  25
ENDBRANCH  23  24
ENDBRANCH  20  23
ENDBRANCH  16  17
ENDBRANCH   3  16
TORSDOF 6
ENDMDL
MODEL 8
REMARK VINA RESULT:    -6.471      4.919      7.575
REMARK INTER + INTRA:          -9.803
REMARK INTER:                  -8.853
REMARK INTRA:                  -0.949
REMARK UNBOUND:                -1.062
REMARK  Name = 
REMARK  6 active torsions:
REMARK  status: ('A' for Active; 'I' for Inactive)
REMARK    1  A    between atoms: C_2  and  C_18
REMARK    2  A    between atoms: N_3  and  C_4
REMARK    3  A    between atoms: C_4  and  C_5
REMARK    4  A    between atoms: C_8  and  C_9
REMARK    5  A    between atoms: C_9  and  C_10
REMARK    6  A    between atoms: C_10  and  C_11
REMARK                            x       y       z     vdW  Elec       q    Type
REMARK                         _______ _______ _______ _____ _____    ______ ____
ROOT
ATOM      1  O   UNL     1      44.224   7.520  11.228  0.00  0.00    +0.000 OA
ATOM      2  C   UNL     1      44.853   6.612  11.765  0.00  0.00    +0.000 C 
ATOM      3  N   UNL     1      45.884   6.861  12.640  0.00  0.00    +0.000 N 
ATOM      4  H   UNL     1      46.517   6.110  12.896  0.00  0.00    +0.000 HD
ENDROOT
BRANCH   2   5
ATOM      5  C   UNL     1      44.503   5.206  11.533  0.00  0.00    +0.000 A 
ATOM      6  C   UNL     1      43.749   4.521  12.475  0.00  0.00    +0.000 A 
ATOM      7  S   UNL     1      43.430   2.902  12.050  0.00  0.00    +0.000 S 
ATOM      8  C   UNL     1      44.250   3.075  10.569  0.00  0.00    +0.000 A 
ATOM      9  N   UNL     1      44.315   2.045   9.683  0.00  0.00    +0.000 NA
ATOM     10  C   UNL     1      44.934   2.323   8.582  0.00  0.00    +0.000 A 
ATOM     11  N   UNL     1      45.499   3.541   8.296  0.00  0.00    +0.000 N 
ATOM     12  C   UNL     1      45.492   4.597   9.175  0.00  0.00    +0.000 A 
ATOM     13  O   UNL     1      46.060   5.652   8.912  0.00  0.00    +0.000 OA
ATOM     14  C   UNL     1      44.785   4.340  10.415  0.00  0.00    +0.000 A 
ATOM     15  H   UNL     1      45.984   3.694   7.422  0.00  0.00    +0.000 HD
ENDBRANCH   2   5
BRANCH   3  16
ATOM     16  C   UNL     1      46.346   8.212  12.833  0.00  0.00    +0.000 C 
BRANCH  16  17
ATOM     17  C   UNL     1      47.732   8.429  12.290  0.00  0.00    +0.000 A 
ATOM     18  C   UNL     1      48.157   9.711  11.920  0.00  0.00    +0.000 A 
ATOM     19  C   UNL     1      49.464   9.928  11.475  0.00  0.00    +0.000 A 
ATOM     20  C   UNL     1      50.372   8.865  11.383  0.00  0.00    +0.000 A 
ATOM     21  C   UNL     1      49.932   7.575  11.705  0.00  0.00    +0.000 A 
ATOM     22  C   UNL     1      48.624   7.359  12.149  0.00  0.00    +0.000 A 
BRANCH  20  23
ATOM     23  C   UNL     1      51.782   9.089  10.888  0.00  0.00    +0.000 C 
BRANCH  23  24
ATOM     24  C   UNL     1      52.456   7.820  10.340  0.00  0.00    +0.000 C 
BRANCH  24  25
ATOM     25  C   UNL     1      52.886   7.979   8.867  0.00  0.00    +0.000 C 
ATOM     26  C   UNL     1      52.445   6.788   8.019  0.00  0.00    +0.000 C 
ATOM     27  C   UNL     1      53.614   5.834   8.125  0.00  0.00    +0.000 C 
ATOM     28  N   UNL     1      54.791   6.703   8.068  0.00  0.00    +0.000 NA
ATOM     29  C   UNL     1      54.409   7.982   8.686  0.00  0.00    +0.000 C 
ATOM     30  H   UNL     1      55.024   6.875   7.090  0.00  0.00    +0.000 HD
ENDBRANCH  24  25
ENDBRANCH  23  24
ENDBRANCH  20  23
ENDBRANCH  16  17
ENDBRANCH   3  16
TORSDOF 6
ENDMDL
MODEL 9
REMARK VINA RESULT:    -6.306      3.220      4.380
REMARK INTER + INTRA:          -9.580
REMARK INTER:                  -8.366
REMARK INTRA:                  -1.215
REMARK UNBOUND:                -1.062
REMARK  Name = 
REMARK  6 active torsions:
REMARK  status: ('A' for Active; 'I' for Inactive)
REMARK    1  A    between atoms: C_2  and  C_18
REMARK    2  A    between atoms: N_3  and  C_4
REMARK    3  A    between atoms: C_4  and  C_5
REMARK    4  A    between atoms: C_8  and  C_9
REMARK    5  A    between atoms: C_9  and  C_10
REMARK    6  A    between atoms: C_10  and  C_11
REMARK                            x       y       z     vdW  Elec       q    Type
REMARK                         _______ _______ _______ _____ _____    ______ ____
ROOT
ATOM      1  O   UNL     1      48.879   6.111  18.148  0.00  0.00    +0.000 OA
ATOM      2  C   UNL     1      49.810   6.022  17.351  0.00  0.00    +0.000 C 
ATOM      3  N   UNL     1      49.864   6.785  16.209  0.00  0.00    +0.000 N 
ATOM      4  H   UNL     1      50.520   6.541  15.474  0.00  0.00    +0.000 HD
ENDROOT
BRANCH   2   5
ATOM      5  C   UNL     1      50.942   5.125  17.605  0.00  0.00    +0.000 A 
ATOM      6  C   UNL     1      52.138   5.644  18.082  0.00  0.00    +0.000 A 
ATOM      7  S   UNL     1      53.346   4.467  18.325  0.00  0.00    +0.000 S 
ATOM      8  C   UNL     1      52.297   3.216  17.845  0.00  0.00    +0.000 A 
ATOM      9  N   UNL     1      52.703   1.918  17.866  0.00  0.00    +0.000 NA
ATOM     10  C   UNL     1      51.796   1.067  17.515  0.00  0.00    +0.000 A 
ATOM     11  N   UNL     1      50.519   1.404  17.138  0.00  0.00    +0.000 N 
ATOM     12  C   UNL     1      50.076   2.703  17.066  0.00  0.00    +0.000 A 
ATOM     13  O   UNL     1      48.948   2.971  16.667  0.00  0.00    +0.000 OA
ATOM     14  C   UNL     1      51.053   3.693  17.477  0.00  0.00    +0.000 A 
ATOM     15  H   UNL     1      49.857   0.692  16.859  0.00  0.00    +0.000 HD
ENDBRANCH   2   5
BRANCH   3  16
ATOM     16  C   UNL     1      48.740   7.610  15.846  0.00  0.00    +0.000 C 
BRANCH  16  17
ATOM     17  C   UNL     1      48.016   7.095  14.632  0.00  0.00    +0.000 A 
ATOM     18  C   UNL     1      47.716   7.953  13.567  0.00  0.00    +0.000 A 
ATOM     19  C   UNL     1      47.100   7.465  12.411  0.00  0.00    +0.000 A 
ATOM     20  C   UNL     1      46.765   6.110  12.298  0.00  0.00    +0.000 A 
ATOM     21  C   UNL     1      47.020   5.262  13.383  0.00  0.00    +0.000 A 
ATOM     22  C   UNL     1      47.634   5.751  14.540  0.00  0.00    +0.000 A 
BRANCH  20  23
ATOM     23  C   UNL     1      46.085   5.578  11.058  0.00  0.00    +0.000 C 
BRANCH  23  24
ATOM     24  C   UNL     1      44.637   6.064  10.888  0.00  0.00    +0.000 C 
BRANCH  24  25
ATOM     25  C   UNL     1      43.620   4.906  10.969  0.00  0.00    +0.000 C 
ATOM     26  C   UNL     1      42.662   5.077  12.145  0.00  0.00    +0.000 C 
ATOM     27  C   UNL     1      43.371   4.365  13.276  0.00  0.00    +0.000 C 
ATOM     28  N   UNL     1      43.953   3.181  12.643  0.00  0.00    +0.000 NA
ATOM     29  C   UNL     1      44.279   3.552  11.258  0.00  0.00    +0.000 C 
ATOM     30  H   UNL     1      43.251   2.441  12.622  0.00  0.00    +0.000 HD
ENDBRANCH  24  25
ENDBRANCH  23  24
ENDBRANCH  20  23
ENDBRANCH  16  17
ENDBRANCH   3  16
TORSDOF 6
ENDMDL
