MODEL 1
REMARK VINA RESULT:    -8.330      0.000      0.000
REMARK INTER + INTRA:         -12.117
REMARK INTER:                 -11.252
REMARK INTRA:                  -0.865
REMARK UNBOUND:                -0.865
REMARK  Name = 
REMARK  7 active torsions:
REMARK  status: ('A' for Active; 'I' for Inactive)
REMARK    1  A    between atoms: C_1  and  O_2
REMARK    2  A    between atoms: O_2  and  C_3
REMARK    3  A    between atoms: C_6  and  C_7
REMARK    4  A    between atoms: C_11  and  C_12
REMARK    5  A    between atoms: C_12  and  C_13
REMARK    6  A    between atoms: C_13  and  N_14
REMARK    7  A    between atoms: C_18  and  C_19
REMARK                            x       y       z     vdW  Elec       q    Type
REMARK                         _______ _______ _______ _____ _____    ______ ____
ROOT
ATOM      1  C   UNL     1      43.577   5.319  11.915  0.00  0.00    +0.000 C 
ENDROOT
BRANCH   1   6
ATOM      2  C   UNL     1      46.944   5.620  13.804  0.00  0.00    +0.000 A 
ATOM      3  C   UNL     1      47.670   6.369  12.868  0.00  0.00    +0.000 A 
ATOM      4  C   UNL     1      47.078   6.809  11.679  0.00  0.00    +0.000 A 
ATOM      5  C   UNL     1      45.753   6.482  11.385  0.00  0.00    +0.000 A 
ATOM      6  C   UNL     1      44.992   5.736  12.289  0.00  0.00    +0.000 A 
ATOM      7  C   UNL     1      45.595   5.359  13.503  0.00  0.00    +0.000 A 
BRANCH   2  11
ATOM      8  C   UNL     1      48.698   4.171  17.392  0.00  0.00    +0.000 A 
ATOM      9  C   UNL     1      47.827   3.333  16.717  0.00  0.00    +0.000 A 
ATOM     10  C   UNL     1      47.268   3.777  15.516  0.00  0.00    +0.000 A 
ATOM     11  C   UNL     1      47.569   5.052  15.020  0.00  0.00    +0.000 A 
ATOM     12  C   UNL     1      48.477   5.792  15.785  0.00  0.00    +0.000 A 
ATOM     13  N   UNL     1      49.053   5.386  16.940  0.00  0.00    +0.000 NA
BRANCH   8  15
ATOM     14  C   UNL     1      48.827   4.580  19.683  0.00  0.00    +0.000 C 
ATOM     15  O   UNL     1      49.191   3.726  18.600  0.00  0.00    +0.000 OA
ENDBRANCH   8  15
ENDBRANCH   2  11
ENDBRANCH   1   6
BRANCH   1  16
ATOM     16  C   UNL     1      43.450   4.730  10.504  0.00  0.00    +0.000 C 
BRANCH  16  17
ATOM     17  N   UNL     1      43.808   3.313  10.433  0.00  0.00    +0.000 N 
ATOM     18  C   UNL     1      44.739   3.077   9.394  0.00  0.00    +0.000 A 
ATOM     19  C   UNL     1      45.184   1.779   9.171  0.00  0.00    +0.000 A 
ATOM     20  C   UNL     1      46.114   1.538   8.155  0.00  0.00    +0.000 A 
ATOM     21  C   UNL     1      46.585   2.595   7.374  0.00  0.00    +0.000 A 
ATOM     22  C   UNL     1      46.100   3.856   7.673  0.00  0.00    +0.000 A 
ATOM     23  N   UNL     1      45.202   4.110   8.656  0.00  0.00    +0.000 NA
ATOM     24  H   UNL     1      43.000   2.717  10.275  0.00  0.00    +0.000 HD
BRANCH  21  25
ATOM     25  C   UNL     1      47.563   2.335   6.292  0.00  0.00    +0.000 C 
ATOM     26  N   UNL     1      47.545   3.115   5.169  0.00  0.00    +0.000 N 
ATOM     27  O   UNL     1      48.381   1.426   6.385  0.00  0.00    +0.000 OA
ATOM     28  H   UNL     1      46.914   3.878   4.981  0.00  0.00    +0.000 HD
ATOM     29  H   UNL     1      48.230   2.892   4.457  0.00  0.00    +0.000 HD
ENDBRANCH  21  25
ENDBRANCH  16  17
ENDBRANCH   1  16
TORSDOF 6
ENDMDL
MODEL 2
REMARK VINA RESULT:    -7.987      3.185      4.476
REMARK INTER + INTRA:         -11.653
REMARK INTER:                 -10.747
REMARK INTRA:                  -0.905
REMARK UNBOUND:                -0.865
REMARK  Name = 
REMARK  7 active torsions:
REMARK  status: ('A' for Active; 'I' for Inactive)
REMARK    1  A    between atoms: C_1  and  O_2
REMARK    2  A    between atoms: O_2  and  C_3
REMARK    3  A    between atoms: C_6  and  C_7
REMARK    4  A    between atoms: C_11  and  C_12
REMARK    5  A    between atoms: C_12  and  C_13
REMARK    6  A    between atoms: C_13  and  N_14
REMARK    7  A    between atoms: C_18  and  C_19
REMARK                            x       y       z     vdW  Elec       q    Type
REMARK                         _______ _______ _______ _____ _____    ______ ____
ROOT
ATOM      1  C   UNL     1      43.732   5.899  11.837  0.00  0.00    +0.000 C 
ENDROOT
BRANCH   1   6
ATOM      2  C   UNL     1      47.465   6.793  12.354  0.00  0.00    +0.000 A 
ATOM      3  C   UNL     1      47.797   5.847  13.334  0.00  0.00    +0.000 A 
ATOM      4  C   UNL     1      46.857   4.913  13.783  0.00  0.00    +0.000 A 
ATOM      5  C   UNL     1      45.553   4.923  13.284  0.00  0.00    +0.000 A 
ATOM      6  C   UNL     1      45.178   5.849  12.308  0.00  0.00    +0.000 A 
ATOM      7  C   UNL     1      46.159   6.738  11.831  0.00  0.00    +0.000 A 
BRANCH   2  11
ATOM      8  C   UNL     1      50.076   9.975  11.305  0.00  0.00    +0.000 A 
ATOM      9  C   UNL     1      50.602   8.695  11.335  0.00  0.00    +0.000 A 
ATOM     10  C   UNL     1      49.750   7.630  11.643  0.00  0.00    +0.000 A 
ATOM     11  C   UNL     1      48.400   7.860  11.934  0.00  0.00    +0.000 A 
ATOM     12  C   UNL     1      47.989   9.196  11.850  0.00  0.00    +0.000 A 
ATOM     13  N   UNL     1      48.780  10.248  11.536  0.00  0.00    +0.000 NA
BRANCH   8  15
ATOM     14  C   UNL     1      51.862  11.227  12.130  0.00  0.00    +0.000 C 
ATOM     15  O   UNL     1      50.952  11.010  11.053  0.00  0.00    +0.000 OA
ENDBRANCH   8  15
ENDBRANCH   2  11
ENDBRANCH   1   6
BRANCH   1  16
ATOM     16  C   UNL     1      43.495   5.243  10.470  0.00  0.00    +0.000 C 
BRANCH  16  17
ATOM     17  N   UNL     1      43.753   3.802  10.466  0.00  0.00    +0.000 N 
ATOM     18  C   UNL     1      44.685   3.458   9.459  0.00  0.00    +0.000 A 
ATOM     19  C   UNL     1      45.040   2.123   9.300  0.00  0.00    +0.000 A 
ATOM     20  C   UNL     1      45.971   1.774   8.316  0.00  0.00    +0.000 A 
ATOM     21  C   UNL     1      46.531   2.761   7.503  0.00  0.00    +0.000 A 
ATOM     22  C   UNL     1      46.131   4.064   7.739  0.00  0.00    +0.000 A 
ATOM     23  N   UNL     1      45.235   4.423   8.690  0.00  0.00    +0.000 NA
ATOM     24  H   UNL     1      42.907   3.259  10.314  0.00  0.00    +0.000 HD
BRANCH  21  25
ATOM     25  C   UNL     1      47.510   2.387   6.455  0.00  0.00    +0.000 C 
ATOM     26  N   UNL     1      47.540   3.091   5.284  0.00  0.00    +0.000 N 
ATOM     27  O   UNL     1      48.284   1.451   6.620  0.00  0.00    +0.000 OA
ATOM     28  H   UNL     1      46.946   3.867   5.036  0.00  0.00    +0.000 HD
ATOM     29  H   UNL     1      48.223   2.791   4.598  0.00  0.00    +0.000 HD
ENDBRANCH  21  25
ENDBRANCH  16  17
ENDBRANCH   1  16
TORSDOF 6
ENDMDL
MODEL 3
REMARK VINA RESULT:    -7.462      1.413      8.811
REMARK INTER + INTRA:         -10.944
REMARK INTER:                 -10.301
REMARK INTRA:                  -0.643
REMARK UNBOUND:                -0.865
REMARK  Name = 
REMARK  7 active torsions:
REMARK  status: ('A' for Active; 'I' for Inactive)
REMARK    1  A    between atoms: C_1  and  O_2
REMARK    2  A    between atoms: O_2  and  C_3
REMARK    3  A    between atoms: C_6  and  C_7
REMARK    4  A    between atoms: C_11  and  C_12
REMARK    5  A    between atoms: C_12  and  C_13
REMARK    6  A    between atoms: C_13  and  N_14
REMARK    7  A    between atoms: C_18  and  C_19
REMARK                            x       y       z     vdW  Elec       q    Type
REMARK                         _______ _______ _______ _____ _____    ______ ____
ROOT
ATOM      1  C   UNL     1      46.208   7.247  12.832  0.00  0.00    +0.000 C 
ENDROOT
BRANCH   1   6
ATOM      2  C   UNL     1      44.796   4.730  10.249  0.00  0.00    +0.000 A 
ATOM      3  C   UNL     1      43.467   4.667  10.689  0.00  0.00    +0.000 A 
ATOM      4  C   UNL     1      43.022   5.451  11.759  0.00  0.00    +0.000 A 
ATOM      5  C   UNL     1      43.906   6.294  12.435  0.00  0.00    +0.000 A 
ATOM      6  C   UNL     1      45.241   6.387  12.032  0.00  0.00    +0.000 A 
ATOM      7  C   UNL     1      45.646   5.633  10.915  0.00  0.00    +0.000 A 
BRANCH   2  11
ATOM      8  C   UNL     1      46.480   2.300   7.198  0.00  0.00    +0.000 A 
ATOM      9  C   UNL     1      45.946   1.664   8.306  0.00  0.00    +0.000 A 
ATOM     10  C   UNL     1      45.355   2.444   9.304  0.00  0.00    +0.000 A 
ATOM     11  C   UNL     1      45.324   3.840   9.191  0.00  0.00    +0.000 A 
ATOM     12  C   UNL     1      45.879   4.357   8.015  0.00  0.00    +0.000 A 
ATOM     13  N   UNL     1      46.440   3.632   7.020  0.00  0.00    +0.000 NA
BRANCH   8  15
ATOM     14  C   UNL     1      47.951   2.260   5.390  0.00  0.00    +0.000 C 
ATOM     15  O   UNL     1      47.104   1.508   6.258  0.00  0.00    +0.000 OA
ENDBRANCH   8  15
ENDBRANCH   2  11
ENDBRANCH   1   6
BRANCH   1  16
ATOM     16  C   UNL     1      47.311   6.453  13.543  0.00  0.00    +0.000 C 
BRANCH  16  17
ATOM     17  N   UNL     1      46.830   5.214  14.156  0.00  0.00    +0.000 N 
ATOM     18  C   UNL     1      47.475   4.977  15.393  0.00  0.00    +0.000 A 
ATOM     19  C   UNL     1      47.151   3.833  16.112  0.00  0.00    +0.000 A 
ATOM     20  C   UNL     1      47.772   3.596  17.342  0.00  0.00    +0.000 A 
ATOM     21  C   UNL     1      48.711   4.503  17.836  0.00  0.00    +0.000 A 
ATOM     22  C   UNL     1      48.964   5.622  17.062  0.00  0.00    +0.000 A 
ATOM     23  N   UNL     1      48.369   5.870  15.870  0.00  0.00    +0.000 NA
ATOM     24  H   UNL     1      46.981   4.404  13.560  0.00  0.00    +0.000 HD
BRANCH  21  25
ATOM     25  C   UNL     1      49.375   4.245  19.135  0.00  0.00    +0.000 C 
ATOM     26  N   UNL     1      48.654   3.701  20.161  0.00  0.00    +0.000 N 
ATOM     27  O   UNL     1      50.558   4.519  19.304  0.00  0.00    +0.000 OA
ATOM     28  H   UNL     1      47.678   3.448  20.139  0.00  0.00    +0.000 HD
ATOM     29  H   UNL     1      49.153   3.550  21.029  0.00  0.00    +0.000 HD
ENDBRANCH  21  25
ENDBRANCH  16  17
ENDBRANCH   1  16
TORSDOF 6
ENDMDL
MODEL 4
REMARK VINA RESULT:    -7.310      1.721      8.202
REMARK INTER + INTRA:         -10.739
REMARK INTER:                 -10.095
REMARK INTRA:                  -0.644
REMARK UNBOUND:                -0.865
REMARK  Name = 
REMARK  7 active torsions:
REMARK  status: ('A' for Active; 'I' for Inactive)
REMARK    1  A    between atoms: C_1  and  O_2
REMARK    2  A    between atoms: O_2  and  C_3
REMARK    3  A    between atoms: C_6  and  C_7
REMARK    4  A    between atoms: C_11  and  C_12
REMARK    5  A    between atoms: C_12  and  C_13
REMARK    6  A    between atoms: C_13  and  N_14
REMARK    7  A    between atoms: C_18  and  C_19
REMARK                            x       y       z     vdW  Elec       q    Type
REMARK                         _______ _______ _______ _____ _____    ______ ____
ROOT
ATOM      1  C   UNL     1      45.595   7.496  12.388  0.00  0.00    +0.000 C 
ENDROOT
BRANCH   1   6
ATOM      2  C   UNL     1      44.686   4.465  10.155  0.00  0.00    +0.000 A 
ATOM      3  C   UNL     1      43.452   4.120  10.723  0.00  0.00    +0.000 A 
ATOM      4  C   UNL     1      42.901   4.872  11.766  0.00  0.00    +0.000 A 
ATOM      5  C   UNL     1      43.589   5.970  12.287  0.00  0.00    +0.000 A 
ATOM      6  C   UNL     1      44.822   6.349  11.753  0.00  0.00    +0.000 A 
ATOM      7  C   UNL     1      45.324   5.611  10.665  0.00  0.00    +0.000 A 
BRANCH   2  11
ATOM      8  C   UNL     1      46.747   2.196   7.214  0.00  0.00    +0.000 A 
ATOM      9  C   UNL     1      46.051   1.503   8.189  0.00  0.00    +0.000 A 
ATOM     10  C   UNL     1      45.336   2.232   9.145  0.00  0.00    +0.000 A 
ATOM     11  C   UNL     1      45.344   3.632   9.124  0.00  0.00    +0.000 A 
ATOM     12  C   UNL     1      46.070   4.210   8.076  0.00  0.00    +0.000 A 
ATOM     13  N   UNL     1      46.755   3.538   7.124  0.00  0.00    +0.000 NA
BRANCH   8  15
ATOM     14  C   UNL     1      47.917   2.220   5.198  0.00  0.00    +0.000 C 
ATOM     15  O   UNL     1      47.487   1.451   6.320  0.00  0.00    +0.000 OA
ENDBRANCH   8  15
ENDBRANCH   2  11
ENDBRANCH   1   6
BRANCH   1  16
ATOM     16  C   UNL     1      47.119   7.330  12.336  0.00  0.00    +0.000 C 
BRANCH  16  17
ATOM     17  N   UNL     1      47.777   7.618  13.612  0.00  0.00    +0.000 N 
ATOM     18  C   UNL     1      47.826   6.463  14.428  0.00  0.00    +0.000 A 
ATOM     19  C   UNL     1      48.407   6.554  15.688  0.00  0.00    +0.000 A 
ATOM     20  C   UNL     1      48.472   5.415  16.497  0.00  0.00    +0.000 A 
ATOM     21  C   UNL     1      47.954   4.202  16.039  0.00  0.00    +0.000 A 
ATOM     22  C   UNL     1      47.406   4.198  14.769  0.00  0.00    +0.000 A 
ATOM     23  N   UNL     1      47.338   5.290  13.968  0.00  0.00    +0.000 NA
ATOM     24  H   UNL     1      47.306   8.354  14.132  0.00  0.00    +0.000 HD
BRANCH  21  25
ATOM     25  C   UNL     1      48.016   3.000  16.903  0.00  0.00    +0.000 C 
ATOM     26  N   UNL     1      47.238   2.939  18.025  0.00  0.00    +0.000 N 
ATOM     27  O   UNL     1      48.760   2.065  16.630  0.00  0.00    +0.000 OA
ATOM     28  H   UNL     1      46.601   3.650  18.351  0.00  0.00    +0.000 HD
ATOM     29  H   UNL     1      47.321   2.099  18.583  0.00  0.00    +0.000 HD
ENDBRANCH  21  25
ENDBRANCH  16  17
ENDBRANCH   1  16
TORSDOF 6
ENDMDL
MODEL 5
REMARK VINA RESULT:    -6.920      2.476      2.919
REMARK INTER + INTRA:         -10.212
REMARK INTER:                  -9.505
REMARK INTRA:                  -0.707
REMARK UNBOUND:                -0.865
REMARK  Name = 
REMARK  7 active torsions:
REMARK  status: ('A' for Active; 'I' for Inactive)
REMARK    1  A    between atoms: C_1  and  O_2
REMARK    2  A    between atoms: O_2  and  C_3
REMARK    3  A    between atoms: C_6  and  C_7
REMARK    4  A    between atoms: C_11  and  C_12
REMARK    5  A    between atoms: C_12  and  C_13
REMARK    6  A    between atoms: C_13  and  N_14
REMARK    7  A    between atoms: C_18  and  C_19
REMARK                            x       y       z     vdW  Elec       q    Type
REMARK                         _______ _______ _______ _____ _____    ______ ____
ROOT
ATOM      1  C   UNL     1      43.766   4.894  12.306  0.00  0.00    +0.000 C 
ENDROOT
BRANCH   1   6
ATOM      2  C   UNL     1      46.345   7.703  12.982  0.00  0.00    +0.000 A 
ATOM      3  C   UNL     1      45.866   8.677  12.095  0.00  0.00    +0.000 A 
ATOM      4  C   UNL     1      44.714   8.456  11.333  0.00  0.00    +0.000 A 
ATOM      5  C   UNL     1      44.031   7.241  11.418  0.00  0.00    +0.000 A 
ATOM      6  C   UNL     1      44.474   6.241  12.288  0.00  0.00    +0.000 A 
ATOM      7  C   UNL     1      45.600   6.514  13.086  0.00  0.00    +0.000 A 
BRANCH   2  11
ATOM      8  C   UNL     1      49.898   8.301  15.234  0.00  0.00    +0.000 A 
ATOM      9  C   UNL     1      49.545   6.999  14.923  0.00  0.00    +0.000 A 
ATOM     10  C   UNL     1      48.399   6.784  14.152  0.00  0.00    +0.000 A 
ATOM     11  C   UNL     1      47.616   7.863  13.723  0.00  0.00    +0.000 A 
ATOM     12  C   UNL     1      48.092   9.128  14.087  0.00  0.00    +0.000 A 
ATOM     13  N   UNL     1      49.206   9.375  14.814  0.00  0.00    +0.000 NA
BRANCH   8  15
ATOM     14  C   UNL     1      51.847   9.531  15.582  0.00  0.00    +0.000 C 
ATOM     15  O   UNL     1      51.001   8.478  16.041  0.00  0.00    +0.000 OA
ENDBRANCH   8  15
ENDBRANCH   2  11
ENDBRANCH   1   6
BRANCH   1  16
ATOM     16  C   UNL     1      43.359   4.381  10.919  0.00  0.00    +0.000 C 
BRANCH  16  17
ATOM     17  N   UNL     1      43.796   3.009  10.657  0.00  0.00    +0.000 N 
ATOM     18  C   UNL     1      44.668   2.958   9.544  0.00  0.00    +0.000 A 
ATOM     19  C   UNL     1      45.173   1.728   9.140  0.00  0.00    +0.000 A 
ATOM     20  C   UNL     1      46.046   1.669   8.050  0.00  0.00    +0.000 A 
ATOM     21  C   UNL     1      46.400   2.839   7.375  0.00  0.00    +0.000 A 
ATOM     22  C   UNL     1      45.862   4.021   7.851  0.00  0.00    +0.000 A 
ATOM     23  N   UNL     1      45.018   4.098   8.909  0.00  0.00    +0.000 NA
ATOM     24  H   UNL     1      43.016   2.382  10.477  0.00  0.00    +0.000 HD
BRANCH  21  25
ATOM     25  C   UNL     1      47.318   2.772   6.213  0.00  0.00    +0.000 C 
ATOM     26  N   UNL     1      48.638   2.483   6.417  0.00  0.00    +0.000 N 
ATOM     27  O   UNL     1      46.911   2.980   5.075  0.00  0.00    +0.000 OA
ATOM     28  H   UNL     1      49.083   2.306   7.305  0.00  0.00    +0.000 HD
ATOM     29  H   UNL     1      49.223   2.455   5.590  0.00  0.00    +0.000 HD
ENDBRANCH  21  25
ENDBRANCH  16  17
ENDBRANCH   1  16
TORSDOF 6
ENDMDL
MODEL 6
REMARK VINA RESULT:    -6.868      2.693      8.321
REMARK INTER + INTRA:         -10.142
REMARK INTER:                  -9.666
REMARK INTRA:                  -0.475
REMARK UNBOUND:                -0.865
REMARK  Name = 
REMARK  7 active torsions:
REMARK  status: ('A' for Active; 'I' for Inactive)
REMARK    1  A    between atoms: C_1  and  O_2
REMARK    2  A    between atoms: O_2  and  C_3
REMARK    3  A    between atoms: C_6  and  C_7
REMARK    4  A    between atoms: C_11  and  C_12
REMARK    5  A    between atoms: C_12  and  C_13
REMARK    6  A    between atoms: C_13  and  N_14
REMARK    7  A    between atoms: C_18  and  C_19
REMARK                            x       y       z     vdW  Elec       q    Type
REMARK                         _______ _______ _______ _____ _____    ______ ____
ROOT
ATOM      1  C   UNL     1      49.265   7.127  15.383  0.00  0.00    +0.000 C 
ENDROOT
BRANCH   1   6
ATOM      2  C   UNL     1      46.631   6.795  12.562  0.00  0.00    +0.000 A 
ATOM      3  C   UNL     1      46.180   8.121  12.508  0.00  0.00    +0.000 A 
ATOM      4  C   UNL     1      46.743   9.109  13.324  0.00  0.00    +0.000 A 
ATOM      5  C   UNL     1      47.748   8.786  14.236  0.00  0.00    +0.000 A 
ATOM      6  C   UNL     1      48.227   7.477  14.326  0.00  0.00    +0.000 A 
ATOM      7  C   UNL     1      47.686   6.516  13.451  0.00  0.00    +0.000 A 
BRANCH   2  11
ATOM      8  C   UNL     1      44.650   3.648  10.509  0.00  0.00    +0.000 A 
ATOM      9  C   UNL     1      44.961   4.789   9.790  0.00  0.00    +0.000 A 
ATOM     10  C   UNL     1      45.645   5.821  10.439  0.00  0.00    +0.000 A 
ATOM     11  C   UNL     1      45.988   5.708  11.792  0.00  0.00    +0.000 A 
ATOM     12  C   UNL     1      45.635   4.497  12.398  0.00  0.00    +0.000 A 
ATOM     13  N   UNL     1      44.992   3.470  11.798  0.00  0.00    +0.000 NA
BRANCH   8  15
ATOM     14  C   UNL     1      44.754   1.827   9.057  0.00  0.00    +0.000 C 
ATOM     15  O   UNL     1      43.928   2.671   9.858  0.00  0.00    +0.000 OA
ENDBRANCH   8  15
ENDBRANCH   2  11
ENDBRANCH   1   6
BRANCH   1  16
ATOM     16  C   UNL     1      48.668   6.744  16.743  0.00  0.00    +0.000 C 
BRANCH  16  17
ATOM     17  N   UNL     1      48.082   5.403  16.762  0.00  0.00    +0.000 N 
ATOM     18  C   UNL     1      49.074   4.419  16.988  0.00  0.00    +0.000 A 
ATOM     19  C   UNL     1      48.699   3.081  17.023  0.00  0.00    +0.000 A 
ATOM     20  C   UNL     1      49.670   2.103  17.259  0.00  0.00    +0.000 A 
ATOM     21  C   UNL     1      51.002   2.473  17.453  0.00  0.00    +0.000 A 
ATOM     22  C   UNL     1      51.285   3.827  17.414  0.00  0.00    +0.000 A 
ATOM     23  N   UNL     1      50.357   4.790  17.191  0.00  0.00    +0.000 NA
ATOM     24  H   UNL     1      47.605   5.177  15.892  0.00  0.00    +0.000 HD
BRANCH  21  25
ATOM     25  C   UNL     1      52.030   1.433  17.692  0.00  0.00    +0.000 C 
ATOM     26  N   UNL     1      51.644   0.196  18.128  0.00  0.00    +0.000 N 
ATOM     27  O   UNL     1      53.220   1.669  17.514  0.00  0.00    +0.000 OA
ATOM     28  H   UNL     1      50.701  -0.104  18.318  0.00  0.00    +0.000 HD
ATOM     29  H   UNL     1      52.386  -0.476  18.282  0.00  0.00    +0.000 HD
ENDBRANCH  21  25
ENDBRANCH  16  17
ENDBRANCH   1  16
TORSDOF 6
ENDMDL
MODEL 7
REMARK VINA RESULT:    -6.782      3.835      5.948
REMARK INTER + INTRA:         -10.026
REMARK INTER:                  -9.441
REMARK INTRA:                  -0.585
REMARK UNBOUND:                -0.865
REMARK  Name = 
REMARK  7 active torsions:
REMARK  status: ('A' for Active; 'I' for Inactive)
REMARK    1  A    between atoms: C_1  and  O_2
REMARK    2  A    between atoms: O_2  and  C_3
REMARK    3  A    between atoms: C_6  and  C_7
REMARK    4  A    between atoms: C_11  and  C_12
REMARK    5  A    between atoms: C_12  and  C_13
REMARK    6  A    between atoms: C_13  and  N_14
REMARK    7  A    between atoms: C_18  and  C_19
REMARK                            x       y       z     vdW  Elec       q    Type
REMARK                         _______ _______ _______ _____ _____    ______ ____
ROOT
ATOM      1  C   UNL     1      47.492   4.407  16.998  0.00  0.00    +0.000 C 
ENDROOT
BRANCH   1   6
ATOM      2  C   UNL     1      51.264   3.870  17.697  0.00  0.00    +0.000 A 
ATOM      3  C   UNL     1      51.740   5.155  17.399  0.00  0.00    +0.000 A 
ATOM      4  C   UNL     1      50.865   6.182  17.030  0.00  0.00    +0.000 A 
ATOM      5  C   UNL     1      49.495   5.940  16.919  0.00  0.00    +0.000 A 
ATOM      6  C   UNL     1      48.976   4.674  17.204  0.00  0.00    +0.000 A 
ATOM      7  C   UNL     1      49.871   3.676  17.632  0.00  0.00    +0.000 A 
BRANCH   2  11
ATOM      8  C   UNL     1      53.854   0.668  18.736  0.00  0.00    +0.000 A 
ATOM      9  C   UNL     1      52.830   0.403  17.843  0.00  0.00    +0.000 A 
ATOM     10  C   UNL     1      51.989   1.452  17.461  0.00  0.00    +0.000 A 
ATOM     11  C   UNL     1      52.169   2.737  17.987  0.00  0.00    +0.000 A 
ATOM     12  C   UNL     1      53.252   2.877  18.864  0.00  0.00    +0.000 A 
ATOM     13  N   UNL     1      54.097   1.890  19.240  0.00  0.00    +0.000 NA
BRANCH   8  15
ATOM     14  C   UNL     1      54.146  -1.643  18.636  0.00  0.00    +0.000 C 
ATOM     15  O   UNL     1      54.632  -0.398  19.135  0.00  0.00    +0.000 OA
ENDBRANCH   8  15
ENDBRANCH   2  11
ENDBRANCH   1   6
BRANCH   1  16
ATOM     16  C   UNL     1      47.119   4.019  15.561  0.00  0.00    +0.000 C 
BRANCH  16  17
ATOM     17  N   UNL     1      46.825   5.170  14.707  0.00  0.00    +0.000 N 
ATOM     18  C   UNL     1      46.196   4.762  13.507  0.00  0.00    +0.000 A 
ATOM     19  C   UNL     1      45.854   5.726  12.565  0.00  0.00    +0.000 A 
ATOM     20  C   UNL     1      45.220   5.335  11.382  0.00  0.00    +0.000 A 
ATOM     21  C   UNL     1      44.939   3.987  11.153  0.00  0.00    +0.000 A 
ATOM     22  C   UNL     1      45.301   3.097  12.148  0.00  0.00    +0.000 A 
ATOM     23  N   UNL     1      45.912   3.457  13.303  0.00  0.00    +0.000 NA
ATOM     24  H   UNL     1      47.661   5.695  14.464  0.00  0.00    +0.000 HD
BRANCH  21  25
ATOM     25  C   UNL     1      44.276   3.574   9.894  0.00  0.00    +0.000 C 
ATOM     26  N   UNL     1      43.995   4.516   8.944  0.00  0.00    +0.000 N 
ATOM     27  O   UNL     1      43.969   2.404   9.696  0.00  0.00    +0.000 OA
ATOM     28  H   UNL     1      44.191   5.504   9.003  0.00  0.00    +0.000 HD
ATOM     29  H   UNL     1      43.537   4.183   8.104  0.00  0.00    +0.000 HD
ENDBRANCH  21  25
ENDBRANCH  16  17
ENDBRANCH   1  16
TORSDOF 6
ENDMDL
MODEL 8
REMARK VINA RESULT:    -6.694      2.413      8.135
REMARK INTER + INTRA:          -9.906
REMARK INTER:                  -9.012
REMARK INTRA:                  -0.895
REMARK UNBOUND:                -0.865
REMARK  Name = 
REMARK  7 active torsions:
REMARK  status: ('A' for Active; 'I' for Inactive)
REMARK    1  A    between atoms: C_1  and  O_2
REMARK    2  A    between atoms: O_2  and  C_3
REMARK    3  A    between atoms: C_6  and  C_7
REMARK    4  A    between atoms: C_11  and  C_12
REMARK    5  A    between atoms: C_12  and  C_13
REMARK    6  A    between atoms: C_13  and  N_14
REMARK    7  A    between atoms: C_18  and  C_19
REMARK                            x       y       z     vdW  Elec       q    Type
REMARK                         _______ _______ _______ _____ _____    ______ ____
ROOT
ATOM      1  C   UNL     1      48.424   9.155  13.317  0.00  0.00    +0.000 C 
ENDROOT
BRANCH   1   6
ATOM      2  C   UNL     1      45.359   7.631  11.502  0.00  0.00    +0.000 A 
ATOM      3  C   UNL     1      44.557   8.776  11.399  0.00  0.00    +0.000 A 
ATOM      4  C   UNL     1      45.010  10.018  11.857  0.00  0.00    +0.000 A 
ATOM      5  C   UNL     1      46.264  10.138  12.459  0.00  0.00    +0.000 A 
ATOM      6  C   UNL     1      47.096   9.022  12.584  0.00  0.00    +0.000 A 
ATOM      7  C   UNL     1      46.641   7.798  12.060  0.00  0.00    +0.000 A 
BRANCH   2  11
ATOM      8  C   UNL     1      44.159   3.700  10.430  0.00  0.00    +0.000 A 
ATOM      9  C   UNL     1      43.404   4.366  11.379  0.00  0.00    +0.000 A 
ATOM     10  C   UNL     1      43.761   5.675  11.719  0.00  0.00    +0.000 A 
ATOM     11  C   UNL     1      44.872   6.286  11.125  0.00  0.00    +0.000 A 
ATOM     12  C   UNL     1      45.540   5.512  10.168  0.00  0.00    +0.000 A 
ATOM     13  N   UNL     1      45.210   4.253   9.800  0.00  0.00    +0.000 NA
BRANCH   8  15
ATOM     14  C   UNL     1      44.604   1.831   9.109  0.00  0.00    +0.000 C 
ATOM     15  O   UNL     1      43.815   2.393  10.156  0.00  0.00    +0.000 OA
ENDBRANCH   8  15
ENDBRANCH   2  11
ENDBRANCH   1   6
BRANCH   1  16
ATOM     16  C   UNL     1      49.217   7.845  13.418  0.00  0.00    +0.000 C 
BRANCH  16  17
ATOM     17  N   UNL     1      49.911   7.686  14.696  0.00  0.00    +0.000 N 
ATOM     18  C   UNL     1      49.333   6.644  15.460  0.00  0.00    +0.000 A 
ATOM     19  C   UNL     1      49.859   6.359  16.715  0.00  0.00    +0.000 A 
ATOM     20  C   UNL     1      49.303   5.324  17.472  0.00  0.00    +0.000 A 
ATOM     21  C   UNL     1      48.228   4.589  16.968  0.00  0.00    +0.000 A 
ATOM     22  C   UNL     1      47.777   4.931  15.706  0.00  0.00    +0.000 A 
ATOM     23  N   UNL     1      48.305   5.928  14.956  0.00  0.00    +0.000 NA
ATOM     24  H   UNL     1      49.894   8.535  15.254  0.00  0.00    +0.000 HD
BRANCH  21  25
ATOM     25  C   UNL     1      47.635   3.499  17.778  0.00  0.00    +0.000 C 
ATOM     26  N   UNL     1      48.254   3.107  18.932  0.00  0.00    +0.000 N 
ATOM     27  O   UNL     1      46.604   2.938  17.422  0.00  0.00    +0.000 OA
ATOM     28  H   UNL     1      49.107   3.487  19.313  0.00  0.00    +0.000 HD
ATOM     29  H   UNL     1      47.811   2.354  19.445  0.00  0.00    +0.000 HD
ENDBRANCH  21  25
ENDBRANCH  16  17
ENDBRANCH   1  16
TORSDOF 6
ENDMDL
MODEL 9
REMARK VINA RESULT:    -6.648      3.593      8.183
REMARK INTER + INTRA:          -9.845
REMARK INTER:                  -8.787
REMARK INTRA:                  -1.058
REMARK UNBOUND:                -0.865
REMARK  Name = 
REMARK  7 active torsions:
REMARK  status: ('A' for Active; 'I' for Inactive)
REMARK    1  A    between atoms: C_1  and  O_2
REMARK    2  A    between atoms: O_2  and  C_3
REMARK    3  A    between atoms: C_6  and  C_7
REMARK    4  A    between atoms: C_11  and  C_12
REMARK    5  A    between atoms: C_12  and  C_13
REMARK    6  A    between atoms: C_13  and  N_14
REMARK    7  A    between atoms: C_18  and  C_19
REMARK                            x       y       z     vdW  Elec       q    Type
REMARK                         _______ _______ _______ _____ _____    ______ ____
ROOT
ATOM      1  C   UNL     1      51.258   8.283  13.916  0.00  0.00    +0.000 C 
ENDROOT
BRANCH   1   6
ATOM      2  C   UNL     1      47.831   7.309  12.395  0.00  0.00    +0.000 A 
ATOM      3  C   UNL     1      47.456   8.547  11.854  0.00  0.00    +0.000 A 
ATOM      4  C   UNL     1      48.306   9.656  11.933  0.00  0.00    +0.000 A 
ATOM      5  C   UNL     1      49.537   9.560  12.584  0.00  0.00    +0.000 A 
ATOM      6  C   UNL     1      49.950   8.347  13.139  0.00  0.00    +0.000 A 
ATOM      7  C   UNL     1      49.103   7.232  12.992  0.00  0.00    +0.000 A 
BRANCH   2  11
ATOM      8  C   UNL     1      45.155   4.021  12.671  0.00  0.00    +0.000 A 
ATOM      9  C   UNL     1      45.098   4.802  11.530  0.00  0.00    +0.000 A 
ATOM     10  C   UNL     1      45.995   5.867  11.404  0.00  0.00    +0.000 A 
ATOM     11  C   UNL     1      46.916   6.146  12.422  0.00  0.00    +0.000 A 
ATOM     12  C   UNL     1      46.884   5.270  13.513  0.00  0.00    +0.000 A 
ATOM     13  N   UNL     1      46.045   4.219  13.659  0.00  0.00    +0.000 NA
BRANCH   8  15
ATOM     14  C   UNL     1      43.374   2.919  11.647  0.00  0.00    +0.000 C 
ATOM     15  O   UNL     1      44.222   3.013  12.790  0.00  0.00    +0.000 OA
ENDBRANCH   8  15
ENDBRANCH   2  11
ENDBRANCH   1   6
BRANCH   1  16
ATOM     16  C   UNL     1      51.081   8.262  15.439  0.00  0.00    +0.000 C 
BRANCH  16  17
ATOM     17  N   UNL     1      51.750   7.131  16.085  0.00  0.00    +0.000 N 
ATOM     18  C   UNL     1      50.806   6.201  16.581  0.00  0.00    +0.000 A 
ATOM     19  C   UNL     1      51.263   5.066  17.241  0.00  0.00    +0.000 A 
ATOM     20  C   UNL     1      50.339   4.134  17.723  0.00  0.00    +0.000 A 
ATOM     21  C   UNL     1      48.972   4.349  17.544  0.00  0.00    +0.000 A 
ATOM     22  C   UNL     1      48.605   5.498  16.866  0.00  0.00    +0.000 A 
ATOM     23  N   UNL     1      49.485   6.410  16.387  0.00  0.00    +0.000 NA
ATOM     24  H   UNL     1      52.343   7.423  16.858  0.00  0.00    +0.000 HD
BRANCH  21  25
ATOM     25  C   UNL     1      47.995   3.364  18.065  0.00  0.00    +0.000 C 
ATOM     26  N   UNL     1      48.118   2.912  19.349  0.00  0.00    +0.000 N 
ATOM     27  O   UNL     1      47.084   2.945  17.360  0.00  0.00    +0.000 OA
ATOM     28  H   UNL     1      48.831   3.177  20.012  0.00  0.00    +0.000 HD
ATOM     29  H   UNL     1      47.429   2.236  19.654  0.00  0.00    +0.000 HD
ENDBRANCH  21  25
ENDBRANCH  16  17
ENDBRANCH   1  16
TORSDOF 6
ENDMDL
