MODEL 1
REMARK VINA RESULT:    -7.048      0.000      0.000
REMARK INTER + INTRA:         -10.853
REMARK INTER:                  -9.520
REMARK INTRA:                  -1.333
REMARK UNBOUND:                -1.333
REMARK  Name = 
REMARK  7 active torsions:
REMARK  status: ('A' for Active; 'I' for Inactive)
REMARK    1  A    between atoms: C_1  and  C_2
REMARK    2  A    between atoms: C_2  and  N_3
REMARK    3  A    between atoms: C_2  and  C_16
REMARK    4  A    between atoms: C_4  and  C_6
REMARK    5  A    between atoms: C_19  and  C_20
REMARK    6  A    between atoms: C_20  and  N_21
REMARK    7  A    between atoms: C_22  and  C_24
REMARK                            x       y       z     vdW  Elec       q    Type
REMARK                         _______ _______ _______ _____ _____    ______ ____
ROOT
ATOM      1  C   UNL     1      49.499   8.452  11.419  0.00  0.00    +0.000 C 
ATOM      2  C   UNL     1      48.150   8.202  12.104  0.00  0.00    +0.000 C 
ENDROOT
BRANCH   2   3
ATOM      3  C   UNL     1      48.354   7.977  13.600  0.00  0.00    +0.000 A 
ATOM      4  C   UNL     1      48.310   9.046  14.505  0.00  0.00    +0.000 A 
ATOM      5  C   UNL     1      48.436   8.820  15.885  0.00  0.00    +0.000 A 
ATOM      6  C   UNL     1      48.615   7.523  16.386  0.00  0.00    +0.000 A 
ATOM      7  C   UNL     1      48.673   6.456  15.482  0.00  0.00    +0.000 A 
ATOM      8  C   UNL     1      48.553   6.683  14.109  0.00  0.00    +0.000 A 
BRANCH   6   9
ATOM      9  C   UNL     1      48.721   7.263  17.868  0.00  0.00    +0.000 C 
BRANCH   9  10
ATOM     10  N   UNL     1      48.470   5.876  18.188  0.00  0.00    +0.000 N 
ATOM     11  C   UNL     1      49.517   4.983  18.338  0.00  0.00    +0.000 C 
ATOM     12  O   UNL     1      50.691   5.310  18.224  0.00  0.00    +0.000 OA
ATOM     13  H   UNL     1      47.523   5.523  18.133  0.00  0.00    +0.000 HD
BRANCH  11  14
ATOM     14  C   UNL     1      49.041   3.550  18.677  0.00  0.00    +0.000 C 
ATOM     15  C   UNL     1      47.778   3.125  17.949  0.00  0.00    +0.000 C 
ATOM     16  C   UNL     1      48.283   2.696  16.585  0.00  0.00    +0.000 C 
ATOM     17  C   UNL     1      49.705   2.216  16.834  0.00  0.00    +0.000 C 
ATOM     18  N   UNL     1      50.043   2.560  18.222  0.00  0.00    +0.000 NA
ATOM     19  H   UNL     1      50.979   2.964  18.255  0.00  0.00    +0.000 HD
ENDBRANCH  11  14
ENDBRANCH   9  10
ENDBRANCH   6   9
ENDBRANCH   2   3
BRANCH   2  20
ATOM     20  N   UNL     1      47.448   7.053  11.548  0.00  0.00    +0.000 N 
ATOM     21  C   UNL     1      46.085   6.984  11.408  0.00  0.00    +0.000 C 
ATOM     22  O   UNL     1      45.335   7.903  11.721  0.00  0.00    +0.000 OA
ATOM     23  H   UNL     1      47.956   6.174  11.593  0.00  0.00    +0.000 HD
BRANCH  21  24
ATOM     24  C   UNL     1      45.564   5.760  10.790  0.00  0.00    +0.000 A 
ATOM     25  C   UNL     1      45.765   5.530   9.435  0.00  0.00    +0.000 A 
ATOM     26  S   UNL     1      45.090   4.061   8.886  0.00  0.00    +0.000 S 
ATOM     27  C   UNL     1      44.479   3.701  10.432  0.00  0.00    +0.000 A 
ATOM     28  N   UNL     1      43.742   2.577  10.652  0.00  0.00    +0.000 NA
ATOM     29  C   UNL     1      43.318   2.448  11.866  0.00  0.00    +0.000 A 
ATOM     30  N   UNL     1      43.576   3.328  12.882  0.00  0.00    +0.000 N 
ATOM     31  C   UNL     1      44.351   4.451  12.716  0.00  0.00    +0.000 A 
ATOM     32  O   UNL     1      44.630   5.179  13.665  0.00  0.00    +0.000 OA
ATOM     33  C   UNL     1      44.815   4.667  11.363  0.00  0.00    +0.000 A 
ATOM     34  H   UNL     1      43.235   3.157  13.817  0.00  0.00    +0.000 HD
ENDBRANCH  21  24
ENDBRANCH   2  20
TORSDOF 6
ENDMDL
MODEL 2
REMARK VINA RESULT:    -7.030      1.581      2.145
REMARK INTER + INTRA:         -10.829
REMARK INTER:                  -9.729
REMARK INTRA:                  -1.100
REMARK UNBOUND:                -1.333
REMARK  Name = 
REMARK  7 active torsions:
REMARK  status: ('A' for Active; 'I' for Inactive)
REMARK    1  A    between atoms: C_1  and  C_2
REMARK    2  A    between atoms: C_2  and  N_3
REMARK    3  A    between atoms: C_2  and  C_16
REMARK    4  A    between atoms: C_4  and  C_6
REMARK    5  A    between atoms: C_19  and  C_20
REMARK    6  A    between atoms: C_20  and  N_21
REMARK    7  A    between atoms: C_22  and  C_24
REMARK                            x       y       z     vdW  Elec       q    Type
REMARK                         _______ _______ _______ _____ _____    ______ ____
ROOT
ATOM      1  C   UNL     1      48.987   7.821  11.377  0.00  0.00    +0.000 C 
ATOM      2  C   UNL     1      47.737   7.772  12.264  0.00  0.00    +0.000 C 
ENDROOT
BRANCH   2   3
ATOM      3  C   UNL     1      48.137   7.813  13.737  0.00  0.00    +0.000 A 
ATOM      4  C   UNL     1      47.915   8.956  14.516  0.00  0.00    +0.000 A 
ATOM      5  C   UNL     1      48.228   8.961  15.883  0.00  0.00    +0.000 A 
ATOM      6  C   UNL     1      48.775   7.826  16.499  0.00  0.00    +0.000 A 
ATOM      7  C   UNL     1      49.008   6.687  15.719  0.00  0.00    +0.000 A 
ATOM      8  C   UNL     1      48.702   6.685  14.356  0.00  0.00    +0.000 A 
BRANCH   6   9
ATOM      9  C   UNL     1      49.087   7.808  17.974  0.00  0.00    +0.000 C 
BRANCH   9  10
ATOM     10  N   UNL     1      49.380   6.473  18.444  0.00  0.00    +0.000 N 
ATOM     11  C   UNL     1      48.364   5.629  18.860  0.00  0.00    +0.000 C 
ATOM     12  O   UNL     1      47.183   5.951  18.842  0.00  0.00    +0.000 OA
ATOM     13  H   UNL     1      50.342   6.217  18.630  0.00  0.00    +0.000 HD
BRANCH  11  14
ATOM     14  C   UNL     1      48.882   4.248  19.327  0.00  0.00    +0.000 C 
ATOM     15  C   UNL     1      48.304   3.074  18.558  0.00  0.00    +0.000 C 
ATOM     16  C   UNL     1      49.147   3.026  17.298  0.00  0.00    +0.000 C 
ATOM     17  C   UNL     1      50.493   3.603  17.714  0.00  0.00    +0.000 C 
ATOM     18  N   UNL     1      50.336   4.137  19.073  0.00  0.00    +0.000 NA
ATOM     19  H   UNL     1      50.776   5.055  19.132  0.00  0.00    +0.000 HD
ENDBRANCH  11  14
ENDBRANCH   9  10
ENDBRANCH   6   9
ENDBRANCH   2   3
BRANCH   2  20
ATOM     20  N   UNL     1      46.934   6.580  12.028  0.00  0.00    +0.000 N 
ATOM     21  C   UNL     1      45.564   6.581  11.964  0.00  0.00    +0.000 C 
ATOM     22  O   UNL     1      44.892   7.601  12.078  0.00  0.00    +0.000 OA
ATOM     23  H   UNL     1      47.388   5.701  12.261  0.00  0.00    +0.000 HD
BRANCH  21  24
ATOM     24  C   UNL     1      44.933   5.287  11.678  0.00  0.00    +0.000 A 
ATOM     25  C   UNL     1      44.182   4.653  12.660  0.00  0.00    +0.000 A 
ATOM     26  S   UNL     1      43.526   3.159  12.157  0.00  0.00    +0.000 S 
ATOM     27  C   UNL     1      44.250   3.297  10.623  0.00  0.00    +0.000 A 
ATOM     28  N   UNL     1      44.118   2.310   9.694  0.00  0.00    +0.000 NA
ATOM     29  C   UNL     1      44.745   2.534   8.587  0.00  0.00    +0.000 A 
ATOM     30  N   UNL     1      45.476   3.661   8.317  0.00  0.00    +0.000 N 
ATOM     31  C   UNL     1      45.598   4.701   9.207  0.00  0.00    +0.000 A 
ATOM     32  O   UNL     1      46.195   5.731   8.906  0.00  0.00    +0.000 OA
ATOM     33  C   UNL     1      44.951   4.480  10.482  0.00  0.00    +0.000 A 
ATOM     34  H   UNL     1      45.923   3.787   7.421  0.00  0.00    +0.000 HD
ENDBRANCH  21  24
ENDBRANCH   2  20
TORSDOF 6
ENDMDL
MODEL 3
REMARK VINA RESULT:    -6.913      4.684      7.885
REMARK INTER + INTRA:         -10.671
REMARK INTER:                  -9.555
REMARK INTRA:                  -1.116
REMARK UNBOUND:                -1.333
REMARK  Name = 
REMARK  7 active torsions:
REMARK  status: ('A' for Active; 'I' for Inactive)
REMARK    1  A    between atoms: C_1  and  C_2
REMARK    2  A    between atoms: C_2  and  N_3
REMARK    3  A    between atoms: C_2  and  C_16
REMARK    4  A    between atoms: C_4  and  C_6
REMARK    5  A    between atoms: C_19  and  C_20
REMARK    6  A    between atoms: C_20  and  N_21
REMARK    7  A    between atoms: C_22  and  C_24
REMARK                            x       y       z     vdW  Elec       q    Type
REMARK                         _______ _______ _______ _____ _____    ______ ____
ROOT
ATOM      1  C   UNL     1      50.774   9.540  12.455  0.00  0.00    +0.000 C 
ATOM      2  C   UNL     1      50.300   8.472  11.464  0.00  0.00    +0.000 C 
ENDROOT
BRANCH   2   3
ATOM      3  C   UNL     1      49.135   7.684  12.057  0.00  0.00    +0.000 A 
ATOM      4  C   UNL     1      47.972   7.442  11.315  0.00  0.00    +0.000 A 
ATOM      5  C   UNL     1      46.933   6.663  11.847  0.00  0.00    +0.000 A 
ATOM      6  C   UNL     1      47.032   6.117  13.135  0.00  0.00    +0.000 A 
ATOM      7  C   UNL     1      48.188   6.370  13.883  0.00  0.00    +0.000 A 
ATOM      8  C   UNL     1      49.220   7.149  13.354  0.00  0.00    +0.000 A 
BRANCH   6   9
ATOM      9  C   UNL     1      45.937   5.254  13.707  0.00  0.00    +0.000 C 
BRANCH   9  10
ATOM     10  N   UNL     1      44.950   4.909  12.710  0.00  0.00    +0.000 N 
ATOM     11  C   UNL     1      44.822   3.606  12.261  0.00  0.00    +0.000 C 
ATOM     12  O   UNL     1      45.512   2.686  12.682  0.00  0.00    +0.000 OA
ATOM     13  H   UNL     1      44.470   5.651  12.215  0.00  0.00    +0.000 HD
BRANCH  11  14
ATOM     14  C   UNL     1      43.713   3.442  11.194  0.00  0.00    +0.000 C 
ATOM     15  C   UNL     1      43.701   4.533  10.137  0.00  0.00    +0.000 C 
ATOM     16  C   UNL     1      44.779   4.095   9.165  0.00  0.00    +0.000 C 
ATOM     17  C   UNL     1      44.808   2.578   9.278  0.00  0.00    +0.000 C 
ATOM     18  N   UNL     1      43.941   2.210  10.406  0.00  0.00    +0.000 NA
ATOM     19  H   UNL     1      44.408   1.506  10.979  0.00  0.00    +0.000 HD
ENDBRANCH  11  14
ENDBRANCH   9  10
ENDBRANCH   6   9
ENDBRANCH   2   3
BRANCH   2  20
ATOM     20  N   UNL     1      51.359   7.540  11.100  0.00  0.00    +0.000 N 
ATOM     21  C   UNL     1      52.306   7.795  10.140  0.00  0.00    +0.000 C 
ATOM     22  O   UNL     1      52.355   8.850   9.515  0.00  0.00    +0.000 OA
ATOM     23  H   UNL     1      51.172   6.567  11.321  0.00  0.00    +0.000 HD
BRANCH  21  24
ATOM     24  C   UNL     1      53.317   6.751   9.942  0.00  0.00    +0.000 A 
ATOM     25  C   UNL     1      54.207   6.446  10.964  0.00  0.00    +0.000 A 
ATOM     26  S   UNL     1      55.314   5.211  10.559  0.00  0.00    +0.000 S 
ATOM     27  C   UNL     1      54.662   5.067   8.994  0.00  0.00    +0.000 A 
ATOM     28  N   UNL     1      55.191   4.195   8.091  0.00  0.00    +0.000 NA
ATOM     29  C   UNL     1      54.616   4.214   6.934  0.00  0.00    +0.000 A 
ATOM     30  N   UNL     1      53.552   5.008   6.602  0.00  0.00    +0.000 N 
ATOM     31  C   UNL     1      52.958   5.869   7.495  0.00  0.00    +0.000 A 
ATOM     32  O   UNL     1      51.956   6.511   7.191  0.00  0.00    +0.000 OA
ATOM     33  C   UNL     1      53.592   5.920   8.794  0.00  0.00    +0.000 A 
ATOM     34  H   UNL     1      53.132   4.957   5.686  0.00  0.00    +0.000 HD
ENDBRANCH  21  24
ENDBRANCH   2  20
TORSDOF 6
ENDMDL
MODEL 4
REMARK VINA RESULT:    -6.398      2.892      7.019
REMARK INTER + INTRA:          -9.976
REMARK INTER:                  -9.097
REMARK INTRA:                  -0.878
REMARK UNBOUND:                -1.333
REMARK  Name = 
REMARK  7 active torsions:
REMARK  status: ('A' for Active; 'I' for Inactive)
REMARK    1  A    between atoms: C_1  and  C_2
REMARK    2  A    between atoms: C_2  and  N_3
REMARK    3  A    between atoms: C_2  and  C_16
REMARK    4  A    between atoms: C_4  and  C_6
REMARK    5  A    between atoms: C_19  and  C_20
REMARK    6  A    between atoms: C_20  and  N_21
REMARK    7  A    between atoms: C_22  and  C_24
REMARK                            x       y       z     vdW  Elec       q    Type
REMARK                         _______ _______ _______ _____ _____    ______ ____
ROOT
ATOM      1  C   UNL     1      50.629   9.326  13.909  0.00  0.00    +0.000 C 
ATOM      2  C   UNL     1      50.116   7.921  13.570  0.00  0.00    +0.000 C 
ENDROOT
BRANCH   2   3
ATOM      3  C   UNL     1      48.718   8.006  12.963  0.00  0.00    +0.000 A 
ATOM      4  C   UNL     1      48.137   6.901  12.327  0.00  0.00    +0.000 A 
ATOM      5  C   UNL     1      46.827   6.970  11.828  0.00  0.00    +0.000 A 
ATOM      6  C   UNL     1      46.074   8.146  11.950  0.00  0.00    +0.000 A 
ATOM      7  C   UNL     1      46.658   9.255  12.574  0.00  0.00    +0.000 A 
ATOM      8  C   UNL     1      47.964   9.187  13.065  0.00  0.00    +0.000 A 
BRANCH   6   9
ATOM      9  C   UNL     1      44.655   8.224  11.446  0.00  0.00    +0.000 C 
BRANCH   9  10
ATOM     10  N   UNL     1      44.238   6.987  10.826  0.00  0.00    +0.000 N 
ATOM     11  C   UNL     1      43.644   5.985  11.574  0.00  0.00    +0.000 C 
ATOM     12  O   UNL     1      43.430   6.090  12.775  0.00  0.00    +0.000 OA
ATOM     13  H   UNL     1      44.536   6.787   9.879  0.00  0.00    +0.000 HD
BRANCH  11  14
ATOM     14  C   UNL     1      43.273   4.743  10.729  0.00  0.00    +0.000 C 
ATOM     15  C   UNL     1      44.463   4.043  10.096  0.00  0.00    +0.000 C 
ATOM     16  C   UNL     1      45.008   3.185  11.220  0.00  0.00    +0.000 C 
ATOM     17  C   UNL     1      43.799   2.877  12.091  0.00  0.00    +0.000 C 
ATOM     18  N   UNL     1      42.685   3.695  11.594  0.00  0.00    +0.000 NA
ATOM     19  H   UNL     1      42.197   4.121  12.382  0.00  0.00    +0.000 HD
ENDBRANCH  11  14
ENDBRANCH   9  10
ENDBRANCH   6   9
ENDBRANCH   2   3
BRANCH   2  20
ATOM     20  N   UNL     1      50.070   7.049  14.736  0.00  0.00    +0.000 N 
ATOM     21  C   UNL     1      49.598   7.437  15.963  0.00  0.00    +0.000 C 
ATOM     22  O   UNL     1      49.149   8.558  16.181  0.00  0.00    +0.000 OA
ATOM     23  H   UNL     1      50.715   6.264  14.712  0.00  0.00    +0.000 HD
BRANCH  21  24
ATOM     24  C   UNL     1      49.595   6.405  17.007  0.00  0.00    +0.000 A 
ATOM     25  C   UNL     1      50.446   6.524  18.098  0.00  0.00    +0.000 A 
ATOM     26  S   UNL     1      50.312   5.235  19.210  0.00  0.00    +0.000 S 
ATOM     27  C   UNL     1      49.138   4.461  18.252  0.00  0.00    +0.000 A 
ATOM     28  N   UNL     1      48.617   3.256  18.617  0.00  0.00    +0.000 NA
ATOM     29  C   UNL     1      47.759   2.773  17.781  0.00  0.00    +0.000 A 
ATOM     30  N   UNL     1      47.360   3.389  16.625  0.00  0.00    +0.000 N 
ATOM     31  C   UNL     1      47.825   4.624  16.241  0.00  0.00    +0.000 A 
ATOM     32  O   UNL     1      47.390   5.186  15.239  0.00  0.00    +0.000 OA
ATOM     33  C   UNL     1      48.823   5.191  17.121  0.00  0.00    +0.000 A 
ATOM     34  H   UNL     1      46.666   2.968  16.025  0.00  0.00    +0.000 HD
ENDBRANCH  21  24
ENDBRANCH   2  20
TORSDOF 6
ENDMDL
MODEL 5
REMARK VINA RESULT:    -6.387      2.484      3.173
REMARK INTER + INTRA:          -9.961
REMARK INTER:                  -8.845
REMARK INTRA:                  -1.117
REMARK UNBOUND:                -1.333
REMARK  Name = 
REMARK  7 active torsions:
REMARK  status: ('A' for Active; 'I' for Inactive)
REMARK    1  A    between atoms: C_1  and  C_2
REMARK    2  A    between atoms: C_2  and  N_3
REMARK    3  A    between atoms: C_2  and  C_16
REMARK    4  A    between atoms: C_4  and  C_6
REMARK    5  A    between atoms: C_19  and  C_20
REMARK    6  A    between atoms: C_20  and  N_21
REMARK    7  A    between atoms: C_22  and  C_24
REMARK                            x       y       z     vdW  Elec       q    Type
REMARK                         _______ _______ _______ _____ _____    ______ ____
ROOT
ATOM      1  C   UNL     1      49.283   7.713  11.254  0.00  0.00    +0.000 C 
ATOM      2  C   UNL     1      48.250   7.588  12.381  0.00  0.00    +0.000 C 
ENDROOT
BRANCH   2   3
ATOM      3  C   UNL     1      48.954   7.394  13.721  0.00  0.00    +0.000 A 
ATOM      4  C   UNL     1      48.361   6.651  14.749  0.00  0.00    +0.000 A 
ATOM      5  C   UNL     1      49.044   6.425  15.954  0.00  0.00    +0.000 A 
ATOM      6  C   UNL     1      50.331   6.945  16.158  0.00  0.00    +0.000 A 
ATOM      7  C   UNL     1      50.919   7.698  15.135  0.00  0.00    +0.000 A 
ATOM      8  C   UNL     1      50.236   7.927  13.939  0.00  0.00    +0.000 A 
BRANCH   6   9
ATOM      9  C   UNL     1      51.088   6.684  17.435  0.00  0.00    +0.000 C 
BRANCH   9  10
ATOM     10  N   UNL     1      51.963   5.539  17.316  0.00  0.00    +0.000 N 
ATOM     11  C   UNL     1      51.731   4.392  18.056  0.00  0.00    +0.000 C 
ATOM     12  O   UNL     1      50.787   4.276  18.826  0.00  0.00    +0.000 OA
ATOM     13  H   UNL     1      52.841   5.641  16.823  0.00  0.00    +0.000 HD
BRANCH  11  14
ATOM     14  C   UNL     1      52.778   3.283  17.790  0.00  0.00    +0.000 C 
ATOM     15  C   UNL     1      54.192   3.798  17.590  0.00  0.00    +0.000 C 
ATOM     16  C   UNL     1      54.694   4.010  19.006  0.00  0.00    +0.000 C 
ATOM     17  C   UNL     1      53.926   2.998  19.842  0.00  0.00    +0.000 C 
ATOM     18  N   UNL     1      52.900   2.404  18.974  0.00  0.00    +0.000 NA
ATOM     19  H   UNL     1      52.013   2.360  19.475  0.00  0.00    +0.000 HD
ENDBRANCH  11  14
ENDBRANCH   9  10
ENDBRANCH   6   9
ENDBRANCH   2   3
BRANCH   2  20
ATOM     20  N   UNL     1      47.328   6.480  12.170  0.00  0.00    +0.000 N 
ATOM     21  C   UNL     1      45.968   6.625  12.066  0.00  0.00    +0.000 C 
ATOM     22  O   UNL     1      45.408   7.715  12.121  0.00  0.00    +0.000 OA
ATOM     23  H   UNL     1      47.678   5.569  12.451  0.00  0.00    +0.000 HD
BRANCH  21  24
ATOM     24  C   UNL     1      45.208   5.396  11.815  0.00  0.00    +0.000 A 
ATOM     25  C   UNL     1      44.462   4.823  12.838  0.00  0.00    +0.000 A 
ATOM     26  S   UNL     1      43.646   3.398  12.371  0.00  0.00    +0.000 S 
ATOM     27  C   UNL     1      44.287   3.483  10.797  0.00  0.00    +0.000 A 
ATOM     28  N   UNL     1      44.013   2.519   9.875  0.00  0.00    +0.000 NA
ATOM     29  C   UNL     1      44.592   2.696   8.733  0.00  0.00    +0.000 A 
ATOM     30  N   UNL     1      45.403   3.754   8.423  0.00  0.00    +0.000 N 
ATOM     31  C   UNL     1      45.671   4.772   9.307  0.00  0.00    +0.000 A 
ATOM     32  O   UNL     1      46.339   5.747   8.974  0.00  0.00    +0.000 OA
ATOM     33  C   UNL     1      45.082   4.600  10.617  0.00  0.00    +0.000 A 
ATOM     34  H   UNL     1      45.807   3.847   7.502  0.00  0.00    +0.000 HD
ENDBRANCH  21  24
ENDBRANCH   2  20
TORSDOF 6
ENDMDL
MODEL 6
REMARK VINA RESULT:    -6.335      3.106      7.732
REMARK INTER + INTRA:          -9.890
REMARK INTER:                  -8.659
REMARK INTRA:                  -1.231
REMARK UNBOUND:                -1.333
REMARK  Name = 
REMARK  7 active torsions:
REMARK  status: ('A' for Active; 'I' for Inactive)
REMARK    1  A    between atoms: C_1  and  C_2
REMARK    2  A    between atoms: C_2  and  N_3
REMARK    3  A    between atoms: C_2  and  C_16
REMARK    4  A    between atoms: C_4  and  C_6
REMARK    5  A    between atoms: C_19  and  C_20
REMARK    6  A    between atoms: C_20  and  N_21
REMARK    7  A    between atoms: C_22  and  C_24
REMARK                            x       y       z     vdW  Elec       q    Type
REMARK                         _______ _______ _______ _____ _____    ______ ____
ROOT
ATOM      1  C   UNL     1      50.716   8.915  13.918  0.00  0.00    +0.000 C 
ATOM      2  C   UNL     1      49.844   7.687  14.201  0.00  0.00    +0.000 C 
ENDROOT
BRANCH   2   3
ATOM      3  C   UNL     1      48.526   7.792  13.439  0.00  0.00    +0.000 A 
ATOM      4  C   UNL     1      48.206   6.888  12.417  0.00  0.00    +0.000 A 
ATOM      5  C   UNL     1      46.965   6.955  11.766  0.00  0.00    +0.000 A 
ATOM      6  C   UNL     1      46.021   7.931  12.118  0.00  0.00    +0.000 A 
ATOM      7  C   UNL     1      46.345   8.843  13.129  0.00  0.00    +0.000 A 
ATOM      8  C   UNL     1      47.582   8.779  13.773  0.00  0.00    +0.000 A 
BRANCH   6   9
ATOM      9  C   UNL     1      44.672   7.995  11.447  0.00  0.00    +0.000 C 
BRANCH   9  10
ATOM     10  N   UNL     1      44.327   6.742  10.816  0.00  0.00    +0.000 N 
ATOM     11  C   UNL     1      43.576   5.793  11.489  0.00  0.00    +0.000 C 
ATOM     12  O   UNL     1      43.158   5.961  12.627  0.00  0.00    +0.000 OA
ATOM     13  H   UNL     1      44.780   6.488   9.947  0.00  0.00    +0.000 HD
BRANCH  11  14
ATOM     14  C   UNL     1      43.316   4.522  10.645  0.00  0.00    +0.000 C 
ATOM     15  C   UNL     1      44.572   3.885  10.077  0.00  0.00    +0.000 C 
ATOM     16  C   UNL     1      45.113   3.072  11.237  0.00  0.00    +0.000 C 
ATOM     17  C   UNL     1      43.884   2.705  12.056  0.00  0.00    +0.000 C 
ATOM     18  N   UNL     1      42.749   3.452  11.497  0.00  0.00    +0.000 NA
ATOM     19  H   UNL     1      42.201   3.858  12.255  0.00  0.00    +0.000 HD
ENDBRANCH  11  14
ENDBRANCH   9  10
ENDBRANCH   6   9
ENDBRANCH   2   3
BRANCH   2  20
ATOM     20  N   UNL     1      49.554   7.524  15.620  0.00  0.00    +0.000 N 
ATOM     21  C   UNL     1      48.977   6.403  16.159  0.00  0.00    +0.000 C 
ATOM     22  O   UNL     1      48.673   5.421  15.489  0.00  0.00    +0.000 OA
ATOM     23  H   UNL     1      49.466   8.390  16.143  0.00  0.00    +0.000 HD
BRANCH  21  24
ATOM     24  C   UNL     1      48.800   6.408  17.615  0.00  0.00    +0.000 A 
ATOM     25  C   UNL     1      49.134   5.282  18.357  0.00  0.00    +0.000 A 
ATOM     26  S   UNL     1      48.861   5.464  20.032  0.00  0.00    +0.000 S 
ATOM     27  C   UNL     1      48.258   7.040  19.818  0.00  0.00    +0.000 A 
ATOM     28  N   UNL     1      47.796   7.765  20.874  0.00  0.00    +0.000 NA
ATOM     29  C   UNL     1      47.340   8.932  20.560  0.00  0.00    +0.000 A 
ATOM     30  N   UNL     1      47.319   9.448  19.292  0.00  0.00    +0.000 N 
ATOM     31  C   UNL     1      47.815   8.770  18.203  0.00  0.00    +0.000 A 
ATOM     32  O   UNL     1      47.853   9.290  17.092  0.00  0.00    +0.000 OA
ATOM     33  C   UNL     1      48.298   7.438  18.494  0.00  0.00    +0.000 A 
ATOM     34  H   UNL     1      46.970  10.379  19.115  0.00  0.00    +0.000 HD
ENDBRANCH  21  24
ENDBRANCH   2  20
TORSDOF 6
ENDMDL
MODEL 7
REMARK VINA RESULT:    -6.315      2.391      3.483
REMARK INTER + INTRA:          -9.864
REMARK INTER:                  -8.713
REMARK INTRA:                  -1.151
REMARK UNBOUND:                -1.333
REMARK  Name = 
REMARK  7 active torsions:
REMARK  status: ('A' for Active; 'I' for Inactive)
REMARK    1  A    between atoms: C_1  and  C_2
REMARK    2  A    between atoms: C_2  and  N_3
REMARK    3  A    between atoms: C_2  and  C_16
REMARK    4  A    between atoms: C_4  and  C_6
REMARK    5  A    between atoms: C_19  and  C_20
REMARK    6  A    between atoms: C_20  and  N_21
REMARK    7  A    between atoms: C_22  and  C_24
REMARK                            x       y       z     vdW  Elec       q    Type
REMARK                         _______ _______ _______ _____ _____    ______ ____
ROOT
ATOM      1  C   UNL     1      44.906   7.729  11.170  0.00  0.00    +0.000 C 
ATOM      2  C   UNL     1      45.016   6.427  11.972  0.00  0.00    +0.000 C 
ENDROOT
BRANCH   2   3
ATOM      3  C   UNL     1      46.146   6.532  12.992  0.00  0.00    +0.000 A 
ATOM      4  C   UNL     1      46.550   5.420  13.742  0.00  0.00    +0.000 A 
ATOM      5  C   UNL     1      47.631   5.511  14.631  0.00  0.00    +0.000 A 
ATOM      6  C   UNL     1      48.327   6.718  14.794  0.00  0.00    +0.000 A 
ATOM      7  C   UNL     1      47.916   7.833  14.054  0.00  0.00    +0.000 A 
ATOM      8  C   UNL     1      46.836   7.743  13.174  0.00  0.00    +0.000 A 
BRANCH   6   9
ATOM      9  C   UNL     1      49.510   6.822  15.723  0.00  0.00    +0.000 C 
BRANCH   9  10
ATOM     10  N   UNL     1      49.459   5.827  16.769  0.00  0.00    +0.000 N 
ATOM     11  C   UNL     1      50.613   5.201  17.208  0.00  0.00    +0.000 C 
ATOM     12  O   UNL     1      51.722   5.456  16.755  0.00  0.00    +0.000 OA
ATOM     13  H   UNL     1      48.559   5.465  17.060  0.00  0.00    +0.000 HD
BRANCH  11  14
ATOM     14  C   UNL     1      50.348   4.168  18.330  0.00  0.00    +0.000 C 
ATOM     15  C   UNL     1      48.885   3.806  18.510  0.00  0.00    +0.000 C 
ATOM     16  C   UNL     1      48.639   2.775  17.425  0.00  0.00    +0.000 C 
ATOM     17  C   UNL     1      49.991   2.108  17.215  0.00  0.00    +0.000 C 
ATOM     18  N   UNL     1      50.978   2.873  17.988  0.00  0.00    +0.000 NA
ATOM     19  H   UNL     1      51.813   3.024  17.421  0.00  0.00    +0.000 HD
ENDBRANCH  11  14
ENDBRANCH   9  10
ENDBRANCH   6   9
ENDBRANCH   2   3
BRANCH   2  20
ATOM     20  N   UNL     1      45.256   5.269  11.122  0.00  0.00    +0.000 N 
ATOM     21  C   UNL     1      44.265   4.579  10.470  0.00  0.00    +0.000 C 
ATOM     22  O   UNL     1      43.082   4.896  10.530  0.00  0.00    +0.000 OA
ATOM     23  H   UNL     1      46.125   4.774  11.303  0.00  0.00    +0.000 HD
BRANCH  21  24
ATOM     24  C   UNL     1      44.707   3.462   9.627  0.00  0.00    +0.000 A 
ATOM     25  C   UNL     1      44.145   2.204   9.797  0.00  0.00    +0.000 A 
ATOM     26  S   UNL     1      44.778   1.026   8.735  0.00  0.00    +0.000 S 
ATOM     27  C   UNL     1      45.847   2.151   8.038  0.00  0.00    +0.000 A 
ATOM     28  N   UNL     1      46.727   1.776   7.069  0.00  0.00    +0.000 NA
ATOM     29  C   UNL     1      47.497   2.726   6.653  0.00  0.00    +0.000 A 
ATOM     30  N   UNL     1      47.457   4.019   7.103  0.00  0.00    +0.000 N 
ATOM     31  C   UNL     1      46.556   4.452   8.047  0.00  0.00    +0.000 A 
ATOM     32  O   UNL     1      46.493   5.634   8.373  0.00  0.00    +0.000 OA
ATOM     33  C   UNL     1      45.699   3.415   8.579  0.00  0.00    +0.000 A 
ATOM     34  H   UNL     1      48.072   4.722   6.719  0.00  0.00    +0.000 HD
ENDBRANCH  21  24
ENDBRANCH   2  20
TORSDOF 6
ENDMDL
MODEL 8
REMARK VINA RESULT:    -6.177      4.771      6.793
REMARK INTER + INTRA:          -9.677
REMARK INTER:                  -8.543
REMARK INTRA:                  -1.134
REMARK UNBOUND:                -1.333
REMARK  Name = 
REMARK  7 active torsions:
REMARK  status: ('A' for Active; 'I' for Inactive)
REMARK    1  A    between atoms: C_1  and  C_2
REMARK    2  A    between atoms: C_2  and  N_3
REMARK    3  A    between atoms: C_2  and  C_16
REMARK    4  A    between atoms: C_4  and  C_6
REMARK    5  A    between atoms: C_19  and  C_20
REMARK    6  A    between atoms: C_20  and  N_21
REMARK    7  A    between atoms: C_22  and  C_24
REMARK                            x       y       z     vdW  Elec       q    Type
REMARK                         _______ _______ _______ _____ _____    ______ ____
ROOT
ATOM      1  C   UNL     1      52.630   8.481  12.841  0.00  0.00    +0.000 C 
ATOM      2  C   UNL     1      51.513   8.762  11.829  0.00  0.00    +0.000 C 
ENDROOT
BRANCH   2   3
ATOM      3  C   UNL     1      50.238   8.030  12.237  0.00  0.00    +0.000 A 
ATOM      4  C   UNL     1      49.251   7.714  11.294  0.00  0.00    +0.000 A 
ATOM      5  C   UNL     1      48.112   6.986  11.668  0.00  0.00    +0.000 A 
ATOM      6  C   UNL     1      47.932   6.565  12.994  0.00  0.00    +0.000 A 
ATOM      7  C   UNL     1      48.911   6.892  13.939  0.00  0.00    +0.000 A 
ATOM      8  C   UNL     1      50.042   7.621  13.567  0.00  0.00    +0.000 A 
BRANCH   6   9
ATOM      9  C   UNL     1      46.727   5.756  13.403  0.00  0.00    +0.000 C 
BRANCH   9  10
ATOM     10  N   UNL     1      46.788   5.370  14.795  0.00  0.00    +0.000 N 
ATOM     11  C   UNL     1      47.087   4.067  15.156  0.00  0.00    +0.000 C 
ATOM     12  O   UNL     1      47.326   3.188  14.337  0.00  0.00    +0.000 OA
ATOM     13  H   UNL     1      46.443   6.010  15.498  0.00  0.00    +0.000 HD
BRANCH  11  14
ATOM     14  C   UNL     1      47.101   3.855  16.689  0.00  0.00    +0.000 C 
ATOM     15  C   UNL     1      48.256   3.006  17.189  0.00  0.00    +0.000 C 
ATOM     16  C   UNL     1      49.412   3.986  17.258  0.00  0.00    +0.000 C 
ATOM     17  C   UNL     1      48.757   5.336  17.512  0.00  0.00    +0.000 C 
ATOM     18  N   UNL     1      47.306   5.148  17.380  0.00  0.00    +0.000 NA
ATOM     19  H   UNL     1      46.913   5.910  16.827  0.00  0.00    +0.000 HD
ENDBRANCH  11  14
ENDBRANCH   9  10
ENDBRANCH   6   9
ENDBRANCH   2   3
BRANCH   2  20
ATOM     20  N   UNL     1      51.874   8.358  10.476  0.00  0.00    +0.000 N 
ATOM     21  C   UNL     1      52.778   9.030   9.693  0.00  0.00    +0.000 C 
ATOM     22  O   UNL     1      53.383  10.025  10.076  0.00  0.00    +0.000 OA
ATOM     23  H   UNL     1      51.187   7.779  10.001  0.00  0.00    +0.000 HD
BRANCH  21  24
ATOM     24  C   UNL     1      53.040   8.448   8.371  0.00  0.00    +0.000 A 
ATOM     25  C   UNL     1      52.990   9.252   7.240  0.00  0.00    +0.000 A 
ATOM     26  S   UNL     1      53.318   8.410   5.791  0.00  0.00    +0.000 S 
ATOM     27  C   UNL     1      53.504   6.939   6.625  0.00  0.00    +0.000 A 
ATOM     28  N   UNL     1      53.759   5.780   5.956  0.00  0.00    +0.000 NA
ATOM     29  C   UNL     1      53.846   4.737   6.713  0.00  0.00    +0.000 A 
ATOM     30  N   UNL     1      53.719   4.747   8.076  0.00  0.00    +0.000 N 
ATOM     31  C   UNL     1      53.506   5.899   8.796  0.00  0.00    +0.000 A 
ATOM     32  O   UNL     1      53.474   5.887  10.023  0.00  0.00    +0.000 OA
ATOM     33  C   UNL     1      53.356   7.091   7.991  0.00  0.00    +0.000 A 
ATOM     34  H   UNL     1      53.822   3.899   8.614  0.00  0.00    +0.000 HD
ENDBRANCH  21  24
ENDBRANCH   2  20
TORSDOF 6
ENDMDL
MODEL 9
REMARK VINA RESULT:    -6.041      4.210      6.296
REMARK INTER + INTRA:          -9.493
REMARK INTER:                  -9.170
REMARK INTRA:                  -0.323
REMARK UNBOUND:                -1.333
REMARK  Name = 
REMARK  7 active torsions:
REMARK  status: ('A' for Active; 'I' for Inactive)
REMARK    1  A    between atoms: C_1  and  C_2
REMARK    2  A    between atoms: C_2  and  N_3
REMARK    3  A    between atoms: C_2  and  C_16
REMARK    4  A    between atoms: C_4  and  C_6
REMARK    5  A    between atoms: C_19  and  C_20
REMARK    6  A    between atoms: C_20  and  N_21
REMARK    7  A    between atoms: C_22  and  C_24
REMARK                            x       y       z     vdW  Elec       q    Type
REMARK                         _______ _______ _______ _____ _____    ______ ____
ROOT
ATOM      1  C   UNL     1      45.407   9.188  12.739  0.00  0.00    +0.000 C 
ATOM      2  C   UNL     1      46.335   8.032  13.129  0.00  0.00    +0.000 C 
ENDROOT
BRANCH   2   3
ATOM      3  C   UNL     1      47.706   8.220  12.485  0.00  0.00    +0.000 A 
ATOM      4  C   UNL     1      48.120   9.474  12.016  0.00  0.00    +0.000 A 
ATOM      5  C   UNL     1      49.407   9.649  11.484  0.00  0.00    +0.000 A 
ATOM      6  C   UNL     1      50.303   8.573  11.403  0.00  0.00    +0.000 A 
ATOM      7  C   UNL     1      49.886   7.318  11.859  0.00  0.00    +0.000 A 
ATOM      8  C   UNL     1      48.603   7.143  12.384  0.00  0.00    +0.000 A 
BRANCH   6   9
ATOM      9  C   UNL     1      51.698   8.755  10.861  0.00  0.00    +0.000 C 
BRANCH   9  10
ATOM     10  N   UNL     1      52.069   7.684   9.964  0.00  0.00    +0.000 N 
ATOM     11  C   UNL     1      53.311   7.080  10.058  0.00  0.00    +0.000 C 
ATOM     12  O   UNL     1      54.145   7.400  10.896  0.00  0.00    +0.000 OA
ATOM     13  H   UNL     1      51.487   7.494   9.158  0.00  0.00    +0.000 HD
BRANCH  11  14
ATOM     14  C   UNL     1      53.516   5.960   9.010  0.00  0.00    +0.000 C 
ATOM     15  C   UNL     1      52.933   6.273   7.643  0.00  0.00    +0.000 C 
ATOM     16  C   UNL     1      53.992   7.147   6.999  0.00  0.00    +0.000 C 
ATOM     17  C   UNL     1      55.300   6.703   7.638  0.00  0.00    +0.000 C 
ATOM     18  N   UNL     1      54.959   5.782   8.731  0.00  0.00    +0.000 NA
ATOM     19  H   UNL     1      55.510   6.014   9.557  0.00  0.00    +0.000 HD
ENDBRANCH  11  14
ENDBRANCH   9  10
ENDBRANCH   6   9
ENDBRANCH   2   3
BRANCH   2  20
ATOM     20  N   UNL     1      45.804   6.734  12.733  0.00  0.00    +0.000 N 
ATOM     21  C   UNL     1      44.952   6.547  11.675  0.00  0.00    +0.000 C 
ATOM     22  O   UNL     1      44.578   7.463  10.949  0.00  0.00    +0.000 OA
ATOM     23  H   UNL     1      45.799   6.030  13.465  0.00  0.00    +0.000 HD
BRANCH  21  24
ATOM     24  C   UNL     1      44.555   5.160  11.407  0.00  0.00    +0.000 A 
ATOM     25  C   UNL     1      43.777   4.473  12.330  0.00  0.00    +0.000 A 
ATOM     26  S   UNL     1      43.413   2.873  11.857  0.00  0.00    +0.000 S 
ATOM     27  C   UNL     1      44.310   3.036  10.420  0.00  0.00    +0.000 A 
ATOM     28  N   UNL     1      44.446   1.993   9.556  0.00  0.00    +0.000 NA
ATOM     29  C   UNL     1      45.178   2.251   8.523  0.00  0.00    +0.000 A 
ATOM     30  N   UNL     1      45.771   3.458   8.265  0.00  0.00    +0.000 N 
ATOM     31  C   UNL     1      45.623   4.550   9.087  0.00  0.00    +0.000 A 
ATOM     32  O   UNL     1      46.103   5.641   8.789  0.00  0.00    +0.000 OA
ATOM     33  C   UNL     1      44.848   4.302  10.283  0.00  0.00    +0.000 A 
ATOM     34  H   UNL     1      46.312   3.602   7.426  0.00  0.00    +0.000 HD
ENDBRANCH  21  24
ENDBRANCH   2  20
TORSDOF 6
ENDMDL
