MODEL 1
REMARK VINA RESULT:    -8.819      0.000      0.000
REMARK INTER + INTRA:         -12.686
REMARK INTER:                 -11.913
REMARK INTRA:                  -0.773
REMARK UNBOUND:                -0.773
REMARK  Name = 
REMARK  6 active torsions:
REMARK  status: ('A' for Active; 'I' for Inactive)
REMARK    1  A    between atoms: C_2  and  C_25
REMARK    2  A    between atoms: N_3  and  C_4
REMARK    3  A    between atoms: C_4  and  C_5
REMARK    4  A    between atoms: C_8  and  C_9
REMARK    5  A    between atoms: C_9  and  N_10
REMARK    6  A    between atoms: C_11  and  C_13
REMARK                            x       y       z     vdW  Elec       q    Type
REMARK                         _______ _______ _______ _____ _____    ______ ____
ROOT
ATOM      1  C   UNL     1      43.051   4.282  11.684  0.00  0.00    +0.000 C 
ATOM      2  C   UNL     1      43.944   3.121  12.140  0.00  0.00    +0.000 C 
ATOM      3  C   UNL     1      45.392   3.552  12.358  0.00  0.00    +0.000 C 
ATOM      4  C   UNL     1      45.513   4.728  13.343  0.00  0.00    +0.000 C 
ATOM      5  C   UNL     1      44.575   5.885  12.956  0.00  0.00    +0.000 C 
ATOM      6  C   UNL     1      43.139   5.420  12.716  0.00  0.00    +0.000 C 
ENDROOT
BRANCH   1   7
ATOM      7  C   UNL     1      43.415   4.778  10.272  0.00  0.00    +0.000 C 
BRANCH   7  10
ATOM      8  O   UNL     1      45.745   5.261   8.782  0.00  0.00    +0.000 OA
ATOM      9  C   UNL     1      45.279   4.127   8.809  0.00  0.00    +0.000 C 
ATOM     10  N   UNL     1      44.137   3.789   9.497  0.00  0.00    +0.000 N 
ATOM     11  H   UNL     1      43.799   2.836   9.419  0.00  0.00    +0.000 HD
BRANCH   9  12
ATOM     12  C   UNL     1      45.954   3.020   8.074  0.00  0.00    +0.000 A 
ATOM     13  C   UNL     1      45.824   1.729   8.562  0.00  0.00    +0.000 A 
ATOM     14  N   UNL     1      46.428   0.665   7.968  0.00  0.00    +0.000 NA
ATOM     15  C   UNL     1      47.158   0.962   6.871  0.00  0.00    +0.000 A 
ATOM     16  C   UNL     1      47.280   2.254   6.379  0.00  0.00    +0.000 A 
ATOM     17  N   UNL     1      46.681   3.325   6.963  0.00  0.00    +0.000 NA
ENDBRANCH   9  12
ENDBRANCH   7  10
ENDBRANCH   1   7
BRANCH   4  18
ATOM     18  C   UNL     1      46.959   5.245  13.442  0.00  0.00    +0.000 C 
BRANCH  18  19
ATOM     19  N   UNL     1      47.331   5.585  14.800  0.00  0.00    +0.000 N 
ATOM     20  C   UNL     1      48.495   6.261  15.083  0.00  0.00    +0.000 C 
ATOM     21  O   UNL     1      49.257   6.664  14.209  0.00  0.00    +0.000 OA
ATOM     22  H   UNL     1      46.942   5.011  15.540  0.00  0.00    +0.000 HD
BRANCH  20  23
ATOM     23  C   UNL     1      48.737   6.551  16.500  0.00  0.00    +0.000 A 
ATOM     24  C   UNL     1      48.830   7.867  16.928  0.00  0.00    +0.000 A 
ATOM     25  S   UNL     1      49.074   8.021  18.609  0.00  0.00    +0.000 S 
ATOM     26  C   UNL     1      49.109   6.332  18.814  0.00  0.00    +0.000 A 
ATOM     27  N   UNL     1      49.313   5.776  20.037  0.00  0.00    +0.000 NA
ATOM     28  C   UNL     1      49.347   4.484  20.040  0.00  0.00    +0.000 A 
ATOM     29  N   UNL     1      49.190   3.698  18.925  0.00  0.00    +0.000 N 
ATOM     30  C   UNL     1      48.944   4.213  17.677  0.00  0.00    +0.000 A 
ATOM     31  O   UNL     1      48.742   3.482  16.713  0.00  0.00    +0.000 OA
ATOM     32  C   UNL     1      48.917   5.662  17.618  0.00  0.00    +0.000 A 
ATOM     33  H   UNL     1      49.212   2.693  18.999  0.00  0.00    +0.000 HD
ENDBRANCH  20  23
ENDBRANCH  18  19
ENDBRANCH   4  18
TORSDOF 6
ENDMDL
MODEL 2
REMARK VINA RESULT:    -8.816      1.581      1.978
REMARK INTER + INTRA:         -12.680
REMARK INTER:                 -11.950
REMARK INTRA:                  -0.731
REMARK UNBOUND:                -0.773
REMARK  Name = 
REMARK  6 active torsions:
REMARK  status: ('A' for Active; 'I' for Inactive)
REMARK    1  A    between atoms: C_2  and  C_25
REMARK    2  A    between atoms: N_3  and  C_4
REMARK    3  A    between atoms: C_4  and  C_5
REMARK    4  A    between atoms: C_8  and  C_9
REMARK    5  A    between atoms: C_9  and  N_10
REMARK    6  A    between atoms: C_11  and  C_13
REMARK                            x       y       z     vdW  Elec       q    Type
REMARK                         _______ _______ _______ _____ _____    ______ ____
ROOT
ATOM      1  C   UNL     1      43.376   4.088  11.479  0.00  0.00    +0.000 C 
ATOM      2  C   UNL     1      43.300   4.783  12.844  0.00  0.00    +0.000 C 
ATOM      3  C   UNL     1      44.601   5.493  13.209  0.00  0.00    +0.000 C 
ATOM      4  C   UNL     1      45.045   6.496  12.130  0.00  0.00    +0.000 C 
ATOM      5  C   UNL     1      45.064   5.851  10.733  0.00  0.00    +0.000 C 
ATOM      6  C   UNL     1      43.760   5.123  10.408  0.00  0.00    +0.000 C 
ENDROOT
BRANCH   1   7
ATOM      7  C   UNL     1      44.356   2.899  11.483  0.00  0.00    +0.000 C 
BRANCH   7  10
ATOM      8  O   UNL     1      43.973   1.382   9.152  0.00  0.00    +0.000 OA
ATOM      9  C   UNL     1      44.951   2.118   9.230  0.00  0.00    +0.000 C 
ATOM     10  N   UNL     1      45.236   2.891  10.330  0.00  0.00    +0.000 N 
ATOM     11  H   UNL     1      46.094   3.431  10.324  0.00  0.00    +0.000 HD
BRANCH   9  12
ATOM     12  C   UNL     1      45.910   2.216   8.093  0.00  0.00    +0.000 A 
ATOM     13  C   UNL     1      46.738   1.135   7.833  0.00  0.00    +0.000 A 
ATOM     14  N   UNL     1      47.658   1.150   6.832  0.00  0.00    +0.000 NA
ATOM     15  C   UNL     1      47.703   2.294   6.115  0.00  0.00    +0.000 A 
ATOM     16  C   UNL     1      46.868   3.373   6.372  0.00  0.00    +0.000 A 
ATOM     17  N   UNL     1      45.944   3.369   7.368  0.00  0.00    +0.000 NA
ENDBRANCH   9  12
ENDBRANCH   7  10
ENDBRANCH   1   7
BRANCH   4  18
ATOM     18  C   UNL     1      46.428   7.097  12.441  0.00  0.00    +0.000 C 
BRANCH  18  19
ATOM     19  N   UNL     1      46.874   6.789  13.784  0.00  0.00    +0.000 N 
ATOM     20  C   UNL     1      48.197   6.539  14.067  0.00  0.00    +0.000 C 
ATOM     21  O   UNL     1      49.082   6.616  13.220  0.00  0.00    +0.000 OA
ATOM     22  H   UNL     1      46.187   6.394  14.417  0.00  0.00    +0.000 HD
BRANCH  20  23
ATOM     23  C   UNL     1      48.508   6.255  15.471  0.00  0.00    +0.000 A 
ATOM     24  C   UNL     1      49.243   7.167  16.213  0.00  0.00    +0.000 A 
ATOM     25  S   UNL     1      49.477   6.694  17.835  0.00  0.00    +0.000 S 
ATOM     26  C   UNL     1      48.642   5.233  17.587  0.00  0.00    +0.000 A 
ATOM     27  N   UNL     1      48.496   4.328  18.591  0.00  0.00    +0.000 NA
ATOM     28  C   UNL     1      47.868   3.250  18.253  0.00  0.00    +0.000 A 
ATOM     29  N   UNL     1      47.368   2.999  16.999  0.00  0.00    +0.000 N 
ATOM     30  C   UNL     1      47.459   3.899  15.966  0.00  0.00    +0.000 A 
ATOM     31  O   UNL     1      46.943   3.673  14.875  0.00  0.00    +0.000 OA
ATOM     32  C   UNL     1      48.174   5.118  16.290  0.00  0.00    +0.000 A 
ATOM     33  H   UNL     1      46.873   2.142  16.806  0.00  0.00    +0.000 HD
ENDBRANCH  20  23
ENDBRANCH  18  19
ENDBRANCH   4  18
TORSDOF 6
ENDMDL
MODEL 3
REMARK VINA RESULT:    -7.688      2.179      2.649
REMARK INTER + INTRA:         -11.157
REMARK INTER:                 -10.046
REMARK INTRA:                  -1.111
REMARK UNBOUND:                -0.773
REMARK  Name = 
REMARK  6 active torsions:
REMARK  status: ('A' for Active; 'I' for Inactive)
REMARK    1  A    between atoms: C_2  and  C_25
REMARK    2  A    between atoms: N_3  and  C_4
REMARK    3  A    between atoms: C_4  and  C_5
REMARK    4  A    between atoms: C_8  and  C_9
REMARK    5  A    between atoms: C_9  and  N_10
REMARK    6  A    between atoms: C_11  and  C_13
REMARK                            x       y       z     vdW  Elec       q    Type
REMARK                         _______ _______ _______ _____ _____    ______ ____
ROOT
ATOM      1  C   UNL     1      44.096   3.084  12.235  0.00  0.00    +0.000 C 
ATOM      2  C   UNL     1      45.598   3.298  12.452  0.00  0.00    +0.000 C 
ATOM      3  C   UNL     1      46.012   4.755  12.257  0.00  0.00    +0.000 C 
ATOM      4  C   UNL     1      45.208   5.718  13.148  0.00  0.00    +0.000 C 
ATOM      5  C   UNL     1      43.693   5.482  13.009  0.00  0.00    +0.000 C 
ATOM      6  C   UNL     1      43.313   4.011  13.180  0.00  0.00    +0.000 C 
ENDROOT
BRANCH   1   7
ATOM      7  C   UNL     1      43.681   3.302  10.768  0.00  0.00    +0.000 C 
BRANCH   7  10
ATOM      8  O   UNL     1      44.325   4.476   8.299  0.00  0.00    +0.000 OA
ATOM      9  C   UNL     1      44.909   3.454   8.644  0.00  0.00    +0.000 C 
ATOM     10  N   UNL     1      44.659   2.796   9.825  0.00  0.00    +0.000 N 
ATOM     11  H   UNL     1      45.157   1.929  10.002  0.00  0.00    +0.000 HD
BRANCH   9  12
ATOM     12  C   UNL     1      45.959   2.858   7.770  0.00  0.00    +0.000 A 
ATOM     13  C   UNL     1      46.357   1.552   8.013  0.00  0.00    +0.000 A 
ATOM     14  N   UNL     1      47.325   0.940   7.281  0.00  0.00    +0.000 NA
ATOM     15  C   UNL     1      47.866   1.699   6.302  0.00  0.00    +0.000 A 
ATOM     16  C   UNL     1      47.461   3.004   6.055  0.00  0.00    +0.000 A 
ATOM     17  N   UNL     1      46.494   3.625   6.780  0.00  0.00    +0.000 NA
ENDBRANCH   9  12
ENDBRANCH   7  10
ENDBRANCH   1   7
BRANCH   4  18
ATOM     18  C   UNL     1      45.532   7.190  12.838  0.00  0.00    +0.000 C 
BRANCH  18  19
ATOM     19  N   UNL     1      46.728   7.647  13.515  0.00  0.00    +0.000 N 
ATOM     20  C   UNL     1      47.920   7.807  12.849  0.00  0.00    +0.000 C 
ATOM     21  O   UNL     1      48.033   7.630  11.639  0.00  0.00    +0.000 OA
ATOM     22  H   UNL     1      46.779   7.484  14.515  0.00  0.00    +0.000 HD
BRANCH  20  23
ATOM     23  C   UNL     1      49.045   8.289  13.657  0.00  0.00    +0.000 A 
ATOM     24  C   UNL     1      49.718   9.443  13.283  0.00  0.00    +0.000 A 
ATOM     25  S   UNL     1      50.970   9.879  14.357  0.00  0.00    +0.000 S 
ATOM     26  C   UNL     1      50.683   8.514  15.332  0.00  0.00    +0.000 A 
ATOM     27  N   UNL     1      51.441   8.265  16.432  0.00  0.00    +0.000 NA
ATOM     28  C   UNL     1      51.133   7.177  17.060  0.00  0.00    +0.000 A 
ATOM     29  N   UNL     1      50.128   6.319  16.686  0.00  0.00    +0.000 N 
ATOM     30  C   UNL     1      49.314   6.550  15.605  0.00  0.00    +0.000 A 
ATOM     31  O   UNL     1      48.381   5.798  15.337  0.00  0.00    +0.000 OA
ATOM     32  C   UNL     1      49.633   7.749  14.855  0.00  0.00    +0.000 A 
ATOM     33  H   UNL     1      49.929   5.494  17.230  0.00  0.00    +0.000 HD
ENDBRANCH  20  23
ENDBRANCH  18  19
ENDBRANCH   4  18
TORSDOF 6
ENDMDL
MODEL 4
REMARK VINA RESULT:    -7.494      3.874      9.352
REMARK INTER + INTRA:         -10.895
REMARK INTER:                  -9.974
REMARK INTRA:                  -0.921
REMARK UNBOUND:                -0.773
REMARK  Name = 
REMARK  6 active torsions:
REMARK  status: ('A' for Active; 'I' for Inactive)
REMARK    1  A    between atoms: C_2  and  C_25
REMARK    2  A    between atoms: N_3  and  C_4
REMARK    3  A    between atoms: C_4  and  C_5
REMARK    4  A    between atoms: C_8  and  C_9
REMARK    5  A    between atoms: C_9  and  N_10
REMARK    6  A    between atoms: C_11  and  C_13
REMARK                            x       y       z     vdW  Elec       q    Type
REMARK                         _______ _______ _______ _____ _____    ______ ____
ROOT
ATOM      1  C   UNL     1      49.423   3.001  18.187  0.00  0.00    +0.000 C 
ATOM      2  C   UNL     1      50.056   4.334  18.602  0.00  0.00    +0.000 C 
ATOM      3  C   UNL     1      50.078   5.348  17.462  0.00  0.00    +0.000 C 
ATOM      4  C   UNL     1      48.681   5.591  16.866  0.00  0.00    +0.000 C 
ATOM      5  C   UNL     1      47.985   4.268  16.502  0.00  0.00    +0.000 C 
ATOM      6  C   UNL     1      48.004   3.262  17.653  0.00  0.00    +0.000 C 
ENDROOT
BRANCH   1   7
ATOM      7  C   UNL     1      50.279   2.245  17.153  0.00  0.00    +0.000 C 
BRANCH   7  10
ATOM      8  O   UNL     1      52.930   3.145  17.374  0.00  0.00    +0.000 OA
ATOM      9  C   UNL     1      52.634   2.043  17.826  0.00  0.00    +0.000 C 
ATOM     10  N   UNL     1      51.370   1.506  17.757  0.00  0.00    +0.000 N 
ATOM     11  H   UNL     1      51.232   0.567  18.114  0.00  0.00    +0.000 HD
BRANCH   9  12
ATOM     12  C   UNL     1      53.667   1.206  18.498  0.00  0.00    +0.000 A 
ATOM     13  C   UNL     1      53.894  -0.075  18.017  0.00  0.00    +0.000 A 
ATOM     14  N   UNL     1      54.799  -0.914  18.587  0.00  0.00    +0.000 NA
ATOM     15  C   UNL     1      55.457  -0.406  19.652  0.00  0.00    +0.000 A 
ATOM     16  C   UNL     1      55.234   0.879  20.128  0.00  0.00    +0.000 A 
ATOM     17  N   UNL     1      54.333   1.726  19.566  0.00  0.00    +0.000 NA
ENDBRANCH   9  12
ENDBRANCH   7  10
ENDBRANCH   1   7
BRANCH   4  18
ATOM     18  C   UNL     1      48.738   6.503  15.626  0.00  0.00    +0.000 C 
BRANCH  18  19
ATOM     19  N   UNL     1      47.553   6.389  14.802  0.00  0.00    +0.000 N 
ATOM     20  C   UNL     1      47.632   6.145  13.451  0.00  0.00    +0.000 C 
ATOM     21  O   UNL     1      48.699   5.955  12.873  0.00  0.00    +0.000 OA
ATOM     22  H   UNL     1      46.715   6.852  15.136  0.00  0.00    +0.000 HD
BRANCH  20  23
ATOM     23  C   UNL     1      46.352   6.039  12.744  0.00  0.00    +0.000 A 
ATOM     24  C   UNL     1      45.758   7.176  12.218  0.00  0.00    +0.000 A 
ATOM     25  S   UNL     1      44.296   6.863  11.396  0.00  0.00    +0.000 S 
ATOM     26  C   UNL     1      44.386   5.203  11.756  0.00  0.00    +0.000 A 
ATOM     27  N   UNL     1      43.411   4.343  11.357  0.00  0.00    +0.000 NA
ATOM     28  C   UNL     1      43.593   3.118  11.727  0.00  0.00    +0.000 A 
ATOM     29  N   UNL     1      44.668   2.675  12.457  0.00  0.00    +0.000 N 
ATOM     30  C   UNL     1      45.694   3.499  12.849  0.00  0.00    +0.000 A 
ATOM     31  O   UNL     1      46.674   3.059  13.443  0.00  0.00    +0.000 OA
ATOM     32  C   UNL     1      45.526   4.890  12.475  0.00  0.00    +0.000 A 
ATOM     33  H   UNL     1      44.757   1.701  12.700  0.00  0.00    +0.000 HD
ENDBRANCH  20  23
ENDBRANCH  18  19
ENDBRANCH   4  18
TORSDOF 6
ENDMDL
MODEL 5
REMARK VINA RESULT:    -7.411      4.251      4.843
REMARK INTER + INTRA:         -10.783
REMARK INTER:                 -10.032
REMARK INTRA:                  -0.751
REMARK UNBOUND:                -0.773
REMARK  Name = 
REMARK  6 active torsions:
REMARK  status: ('A' for Active; 'I' for Inactive)
REMARK    1  A    between atoms: C_2  and  C_25
REMARK    2  A    between atoms: N_3  and  C_4
REMARK    3  A    between atoms: C_4  and  C_5
REMARK    4  A    between atoms: C_8  and  C_9
REMARK    5  A    between atoms: C_9  and  N_10
REMARK    6  A    between atoms: C_11  and  C_13
REMARK                            x       y       z     vdW  Elec       q    Type
REMARK                         _______ _______ _______ _____ _____    ______ ____
ROOT
ATOM      1  C   UNL     1      44.364   3.210  12.644  0.00  0.00    +0.000 C 
ATOM      2  C   UNL     1      45.728   3.908  12.594  0.00  0.00    +0.000 C 
ATOM      3  C   UNL     1      45.660   5.270  11.908  0.00  0.00    +0.000 C 
ATOM      4  C   UNL     1      44.616   6.199  12.551  0.00  0.00    +0.000 C 
ATOM      5  C   UNL     1      43.248   5.505  12.683  0.00  0.00    +0.000 C 
ATOM      6  C   UNL     1      43.352   4.132  13.346  0.00  0.00    +0.000 C 
ENDROOT
BRANCH   1   7
ATOM      7  C   UNL     1      43.867   2.798  11.245  0.00  0.00    +0.000 C 
BRANCH   7  10
ATOM      8  O   UNL     1      43.873   1.323   8.855  0.00  0.00    +0.000 OA
ATOM      9  C   UNL     1      44.819   2.064   9.101  0.00  0.00    +0.000 C 
ATOM     10  N   UNL     1      44.918   2.818  10.246  0.00  0.00    +0.000 N 
ATOM     11  H   UNL     1      45.762   3.364  10.386  0.00  0.00    +0.000 HD
BRANCH   9  12
ATOM     12  C   UNL     1      45.945   2.190   8.133  0.00  0.00    +0.000 A 
ATOM     13  C   UNL     1      46.707   1.066   7.857  0.00  0.00    +0.000 A 
ATOM     14  N   UNL     1      47.768   1.099   7.007  0.00  0.00    +0.000 NA
ATOM     15  C   UNL     1      48.019   2.306   6.454  0.00  0.00    +0.000 A 
ATOM     16  C   UNL     1      47.249   3.429   6.725  0.00  0.00    +0.000 A 
ATOM     17  N   UNL     1      46.187   3.408   7.572  0.00  0.00    +0.000 NA
ENDBRANCH   9  12
ENDBRANCH   7  10
ENDBRANCH   1   7
BRANCH   4  18
ATOM     18  C   UNL     1      44.455   7.512  11.762  0.00  0.00    +0.000 C 
BRANCH  18  19
ATOM     19  N   UNL     1      45.728   8.129  11.453  0.00  0.00    +0.000 N 
ATOM     20  C   UNL     1      46.378   8.937  12.356  0.00  0.00    +0.000 C 
ATOM     21  O   UNL     1      45.954   9.140  13.490  0.00  0.00    +0.000 OA
ATOM     22  H   UNL     1      45.943   8.271  10.472  0.00  0.00    +0.000 HD
BRANCH  20  23
ATOM     23  C   UNL     1      47.666   9.483  11.915  0.00  0.00    +0.000 A 
ATOM     24  C   UNL     1      47.749  10.803  11.498  0.00  0.00    +0.000 A 
ATOM     25  S   UNL     1      49.326  11.280  11.058  0.00  0.00    +0.000 S 
ATOM     26  C   UNL     1      49.942   9.724  11.366  0.00  0.00    +0.000 A 
ATOM     27  N   UNL     1      51.254   9.434  11.163  0.00  0.00    +0.000 NA
ATOM     28  C   UNL     1      51.576   8.205  11.407  0.00  0.00    +0.000 A 
ATOM     29  N   UNL     1      50.700   7.242  11.842  0.00  0.00    +0.000 N 
ATOM     30  C   UNL     1      49.375   7.498  12.097  0.00  0.00    +0.000 A 
ATOM     31  O   UNL     1      48.633   6.631  12.549  0.00  0.00    +0.000 OA
ATOM     32  C   UNL     1      48.960   8.859  11.818  0.00  0.00    +0.000 A 
ATOM     33  H   UNL     1      51.020   6.305  12.029  0.00  0.00    +0.000 HD
ENDBRANCH  20  23
ENDBRANCH  18  19
ENDBRANCH   4  18
TORSDOF 6
ENDMDL
MODEL 6
REMARK VINA RESULT:    -7.085      3.013      5.080
REMARK INTER + INTRA:         -10.342
REMARK INTER:                  -8.697
REMARK INTRA:                  -1.646
REMARK UNBOUND:                -0.773
REMARK  Name = 
REMARK  6 active torsions:
REMARK  status: ('A' for Active; 'I' for Inactive)
REMARK    1  A    between atoms: C_2  and  C_25
REMARK    2  A    between atoms: N_3  and  C_4
REMARK    3  A    between atoms: C_4  and  C_5
REMARK    4  A    between atoms: C_8  and  C_9
REMARK    5  A    between atoms: C_9  and  N_10
REMARK    6  A    between atoms: C_11  and  C_13
REMARK                            x       y       z     vdW  Elec       q    Type
REMARK                         _______ _______ _______ _____ _____    ______ ____
ROOT
ATOM      1  C   UNL     1      47.760   8.820  12.158  0.00  0.00    +0.000 C 
ATOM      2  C   UNL     1      48.380  10.121  12.680  0.00  0.00    +0.000 C 
ATOM      3  C   UNL     1      49.490   9.869  13.697  0.00  0.00    +0.000 C 
ATOM      4  C   UNL     1      50.590   8.944  13.149  0.00  0.00    +0.000 C 
ATOM      5  C   UNL     1      49.997   7.656  12.550  0.00  0.00    +0.000 C 
ATOM      6  C   UNL     1      48.869   7.938  11.558  0.00  0.00    +0.000 C 
ENDROOT
BRANCH   1   7
ATOM      7  C   UNL     1      46.977   8.066  13.250  0.00  0.00    +0.000 C 
BRANCH   7  10
ATOM      8  O   UNL     1      47.219   5.284  13.539  0.00  0.00    +0.000 OA
ATOM      9  C   UNL     1      46.265   5.738  12.917  0.00  0.00    +0.000 C 
ATOM     10  N   UNL     1      46.062   7.081  12.708  0.00  0.00    +0.000 N 
ATOM     11  H   UNL     1      45.271   7.361  12.137  0.00  0.00    +0.000 HD
BRANCH   9  12
ATOM     12  C   UNL     1      45.241   4.822  12.339  0.00  0.00    +0.000 A 
ATOM     13  C   UNL     1      44.878   4.990  11.012  0.00  0.00    +0.000 A 
ATOM     14  N   UNL     1      43.934   4.216  10.413  0.00  0.00    +0.000 NA
ATOM     15  C   UNL     1      43.381   3.274  11.208  0.00  0.00    +0.000 A 
ATOM     16  C   UNL     1      43.750   3.102  12.535  0.00  0.00    +0.000 A 
ATOM     17  N   UNL     1      44.693   3.869  13.143  0.00  0.00    +0.000 NA
ENDBRANCH   9  12
ENDBRANCH   7  10
ENDBRANCH   1   7
BRANCH   4  18
ATOM     18  C   UNL     1      51.626   8.582  14.229  0.00  0.00    +0.000 C 
BRANCH  18  19
ATOM     19  N   UNL     1      51.276   7.374  14.947  0.00  0.00    +0.000 N 
ATOM     20  C   UNL     1      51.692   7.155  16.239  0.00  0.00    +0.000 C 
ATOM     21  O   UNL     1      52.331   7.984  16.880  0.00  0.00    +0.000 OA
ATOM     22  H   UNL     1      51.060   6.555  14.389  0.00  0.00    +0.000 HD
BRANCH  20  23
ATOM     23  C   UNL     1      51.251   5.896  16.847  0.00  0.00    +0.000 A 
ATOM     24  C   UNL     1      52.187   5.024  17.382  0.00  0.00    +0.000 A 
ATOM     25  S   UNL     1      51.497   3.629  18.082  0.00  0.00    +0.000 S 
ATOM     26  C   UNL     1      49.927   4.124  17.652  0.00  0.00    +0.000 A 
ATOM     27  N   UNL     1      48.844   3.355  17.940  0.00  0.00    +0.000 NA
ATOM     28  C   UNL     1      47.718   3.838  17.527  0.00  0.00    +0.000 A 
ATOM     29  N   UNL     1      47.580   5.027  16.855  0.00  0.00    +0.000 N 
ATOM     30  C   UNL     1      48.640   5.854  16.576  0.00  0.00    +0.000 A 
ATOM     31  O   UNL     1      48.474   6.943  16.033  0.00  0.00    +0.000 OA
ATOM     32  C   UNL     1      49.929   5.346  17.002  0.00  0.00    +0.000 A 
ATOM     33  H   UNL     1      46.669   5.355  16.574  0.00  0.00    +0.000 HD
ENDBRANCH  20  23
ENDBRANCH  18  19
ENDBRANCH   4  18
TORSDOF 6
ENDMDL
MODEL 7
REMARK VINA RESULT:    -7.016      2.817      4.235
REMARK INTER + INTRA:         -10.249
REMARK INTER:                  -9.459
REMARK INTRA:                  -0.790
REMARK UNBOUND:                -0.773
REMARK  Name = 
REMARK  6 active torsions:
REMARK  status: ('A' for Active; 'I' for Inactive)
REMARK    1  A    between atoms: C_2  and  C_25
REMARK    2  A    between atoms: N_3  and  C_4
REMARK    3  A    between atoms: C_4  and  C_5
REMARK    4  A    between atoms: C_8  and  C_9
REMARK    5  A    between atoms: C_9  and  N_10
REMARK    6  A    between atoms: C_11  and  C_13
REMARK                            x       y       z     vdW  Elec       q    Type
REMARK                         _______ _______ _______ _____ _____    ______ ____
ROOT
ATOM      1  C   UNL     1      47.771   8.119  12.076  0.00  0.00    +0.000 C 
ATOM      2  C   UNL     1      47.855   9.336  13.005  0.00  0.00    +0.000 C 
ATOM      3  C   UNL     1      47.837   8.944  14.481  0.00  0.00    +0.000 C 
ATOM      4  C   UNL     1      48.941   7.933  14.834  0.00  0.00    +0.000 C 
ATOM      5  C   UNL     1      48.932   6.730  13.875  0.00  0.00    +0.000 C 
ATOM      6  C   UNL     1      48.922   7.153  12.406  0.00  0.00    +0.000 C 
ENDROOT
BRANCH   1   7
ATOM      7  C   UNL     1      46.406   7.411  12.164  0.00  0.00    +0.000 C 
BRANCH   7  10
ATOM      8  O   UNL     1      44.009   6.146  11.428  0.00  0.00    +0.000 OA
ATOM      9  C   UNL     1      45.065   5.752  10.943  0.00  0.00    +0.000 C 
ATOM     10  N   UNL     1      46.291   6.294  11.246  0.00  0.00    +0.000 N 
ATOM     11  H   UNL     1      47.115   5.869  10.834  0.00  0.00    +0.000 HD
BRANCH   9  12
ATOM     12  C   UNL     1      45.068   4.629   9.963  0.00  0.00    +0.000 A 
ATOM     13  C   UNL     1      44.489   3.426  10.337  0.00  0.00    +0.000 A 
ATOM     14  N   UNL     1      44.472   2.343   9.515  0.00  0.00    +0.000 NA
ATOM     15  C   UNL     1      45.058   2.529   8.312  0.00  0.00    +0.000 A 
ATOM     16  C   UNL     1      45.631   3.737   7.937  0.00  0.00    +0.000 A 
ATOM     17  N   UNL     1      45.653   4.826   8.749  0.00  0.00    +0.000 NA
ENDBRANCH   9  12
ENDBRANCH   7  10
ENDBRANCH   1   7
BRANCH   4  18
ATOM     18  C   UNL     1      48.821   7.438  16.287  0.00  0.00    +0.000 C 
BRANCH  18  19
ATOM     19  N   UNL     1      49.885   6.526  16.649  0.00  0.00    +0.000 N 
ATOM     20  C   UNL     1      49.914   5.895  17.871  0.00  0.00    +0.000 C 
ATOM     21  O   UNL     1      49.019   6.021  18.702  0.00  0.00    +0.000 OA
ATOM     22  H   UNL     1      50.773   6.645  16.173  0.00  0.00    +0.000 HD
BRANCH  20  23
ATOM     23  C   UNL     1      51.043   4.987  18.096  0.00  0.00    +0.000 A 
ATOM     24  C   UNL     1      52.209   5.467  18.674  0.00  0.00    +0.000 A 
ATOM     25  S   UNL     1      53.401   4.267  18.897  0.00  0.00    +0.000 S 
ATOM     26  C   UNL     1      52.415   3.077  18.187  0.00  0.00    +0.000 A 
ATOM     27  N   UNL     1      52.851   1.798  18.039  0.00  0.00    +0.000 NA
ATOM     28  C   UNL     1      52.011   1.009  17.455  0.00  0.00    +0.000 A 
ATOM     29  N   UNL     1      50.768   1.385  17.010  0.00  0.00    +0.000 N 
ATOM     30  C   UNL     1      50.270   2.655  17.171  0.00  0.00    +0.000 A 
ATOM     31  O   UNL     1      49.129   2.942  16.822  0.00  0.00    +0.000 OA
ATOM     32  C   UNL     1      51.185   3.584  17.803  0.00  0.00    +0.000 A 
ATOM     33  H   UNL     1      50.153   0.714  16.576  0.00  0.00    +0.000 HD
ENDBRANCH  20  23
ENDBRANCH  18  19
ENDBRANCH   4  18
TORSDOF 6
ENDMDL
MODEL 8
REMARK VINA RESULT:    -6.976      3.854      9.457
REMARK INTER + INTRA:         -10.195
REMARK INTER:                  -9.506
REMARK INTRA:                  -0.689
REMARK UNBOUND:                -0.773
REMARK  Name = 
REMARK  6 active torsions:
REMARK  status: ('A' for Active; 'I' for Inactive)
REMARK    1  A    between atoms: C_2  and  C_25
REMARK    2  A    between atoms: N_3  and  C_4
REMARK    3  A    between atoms: C_4  and  C_5
REMARK    4  A    between atoms: C_8  and  C_9
REMARK    5  A    between atoms: C_9  and  N_10
REMARK    6  A    between atoms: C_11  and  C_13
REMARK                            x       y       z     vdW  Elec       q    Type
REMARK                         _______ _______ _______ _____ _____    ______ ____
ROOT
ATOM      1  C   UNL     1      48.918   5.303  20.089  0.00  0.00    +0.000 C 
ATOM      2  C   UNL     1      47.780   6.020  19.353  0.00  0.00    +0.000 C 
ATOM      3  C   UNL     1      47.608   5.520  17.921  0.00  0.00    +0.000 C 
ATOM      4  C   UNL     1      47.403   3.997  17.852  0.00  0.00    +0.000 C 
ATOM      5  C   UNL     1      48.488   3.245  18.642  0.00  0.00    +0.000 C 
ATOM      6  C   UNL     1      48.659   3.787  20.062  0.00  0.00    +0.000 C 
ENDROOT
BRANCH   1   7
ATOM      7  C   UNL     1      50.300   5.644  19.502  0.00  0.00    +0.000 C 
BRANCH   7  10
ATOM      8  O   UNL     1      51.846   4.655  17.377  0.00  0.00    +0.000 OA
ATOM      9  C   UNL     1      51.954   4.138  18.484  0.00  0.00    +0.000 C 
ATOM     10  N   UNL     1      51.235   4.539  19.585  0.00  0.00    +0.000 N 
ATOM     11  H   UNL     1      51.354   4.018  20.447  0.00  0.00    +0.000 HD
BRANCH   9  12
ATOM     12  C   UNL     1      52.907   3.013  18.697  0.00  0.00    +0.000 A 
ATOM     13  C   UNL     1      53.711   3.033  19.826  0.00  0.00    +0.000 A 
ATOM     14  N   UNL     1      54.625   2.061  20.085  0.00  0.00    +0.000 NA
ATOM     15  C   UNL     1      54.689   1.077  19.160  0.00  0.00    +0.000 A 
ATOM     16  C   UNL     1      53.878   1.054  18.033  0.00  0.00    +0.000 A 
ATOM     17  N   UNL     1      52.961   2.020  17.766  0.00  0.00    +0.000 NA
ENDBRANCH   9  12
ENDBRANCH   7  10
ENDBRANCH   1   7
BRANCH   4  18
ATOM     18  C   UNL     1      47.375   3.488  16.399  0.00  0.00    +0.000 C 
BRANCH  18  19
ATOM     19  N   UNL     1      46.776   4.444  15.491  0.00  0.00    +0.000 N 
ATOM     20  C   UNL     1      46.827   4.276  14.127  0.00  0.00    +0.000 C 
ATOM     21  O   UNL     1      47.330   3.288  13.599  0.00  0.00    +0.000 OA
ATOM     22  H   UNL     1      46.660   5.392  15.833  0.00  0.00    +0.000 HD
BRANCH  20  23
ATOM     23  C   UNL     1      46.165   5.313  13.330  0.00  0.00    +0.000 A 
ATOM     24  C   UNL     1      46.822   6.506  13.069  0.00  0.00    +0.000 A 
ATOM     25  S   UNL     1      45.922   7.580  12.096  0.00  0.00    +0.000 S 
ATOM     26  C   UNL     1      44.605   6.504  12.030  0.00  0.00    +0.000 A 
ATOM     27  N   UNL     1      43.467   6.826  11.361  0.00  0.00    +0.000 NA
ATOM     28  C   UNL     1      42.538   5.929  11.421  0.00  0.00    +0.000 A 
ATOM     29  N   UNL     1      42.650   4.734  12.088  0.00  0.00    +0.000 N 
ATOM     30  C   UNL     1      43.793   4.350  12.745  0.00  0.00    +0.000 A 
ATOM     31  O   UNL     1      43.885   3.247  13.275  0.00  0.00    +0.000 OA
ATOM     32  C   UNL     1      44.859   5.334  12.724  0.00  0.00    +0.000 A 
ATOM     33  H   UNL     1      41.892   4.070  12.082  0.00  0.00    +0.000 HD
ENDBRANCH  20  23
ENDBRANCH  18  19
ENDBRANCH   4  18
TORSDOF 6
ENDMDL
MODEL 9
REMARK VINA RESULT:    -6.602      2.927      5.300
REMARK INTER + INTRA:          -9.691
REMARK INTER:                  -8.008
REMARK INTRA:                  -1.683
REMARK UNBOUND:                -0.773
REMARK  Name = 
REMARK  6 active torsions:
REMARK  status: ('A' for Active; 'I' for Inactive)
REMARK    1  A    between atoms: C_2  and  C_25
REMARK    2  A    between atoms: N_3  and  C_4
REMARK    3  A    between atoms: C_4  and  C_5
REMARK    4  A    between atoms: C_8  and  C_9
REMARK    5  A    between atoms: C_9  and  N_10
REMARK    6  A    between atoms: C_11  and  C_13
REMARK                            x       y       z     vdW  Elec       q    Type
REMARK                         _______ _______ _______ _____ _____    ______ ____
ROOT
ATOM      1  C   UNL     1      49.057   8.350  11.710  0.00  0.00    +0.000 C 
ATOM      2  C   UNL     1      48.287   9.540  12.294  0.00  0.00    +0.000 C 
ATOM      3  C   UNL     1      48.652   9.811  13.752  0.00  0.00    +0.000 C 
ATOM      4  C   UNL     1      50.164  10.013  13.950  0.00  0.00    +0.000 C 
ATOM      5  C   UNL     1      50.975   8.870  13.312  0.00  0.00    +0.000 C 
ATOM      6  C   UNL     1      50.567   8.603  11.863  0.00  0.00    +0.000 C 
ENDROOT
BRANCH   1   7
ATOM      7  C   UNL     1      48.647   7.014  12.357  0.00  0.00    +0.000 C 
BRANCH   7  10
ATOM      8  O   UNL     1      47.284   4.817  13.453  0.00  0.00    +0.000 OA
ATOM      9  C   UNL     1      46.690   5.562  12.680  0.00  0.00    +0.000 C 
ATOM     10  N   UNL     1      47.269   6.656  12.081  0.00  0.00    +0.000 N 
ATOM     11  H   UNL     1      46.714   7.184  11.416  0.00  0.00    +0.000 HD
BRANCH   9  12
ATOM     12  C   UNL     1      45.260   5.311  12.345  0.00  0.00    +0.000 A 
ATOM     13  C   UNL     1      44.937   4.982  11.037  0.00  0.00    +0.000 A 
ATOM     14  N   UNL     1      43.655   4.762  10.639  0.00  0.00    +0.000 NA
ATOM     15  C   UNL     1      42.727   4.887  11.613  0.00  0.00    +0.000 A 
ATOM     16  C   UNL     1      43.053   5.209  12.923  0.00  0.00    +0.000 A 
ATOM     17  N   UNL     1      44.329   5.430  13.332  0.00  0.00    +0.000 NA
ENDBRANCH   9  12
ENDBRANCH   7  10
ENDBRANCH   1   7
BRANCH   4  18
ATOM     18  C   UNL     1      50.535  10.140  15.439  0.00  0.00    +0.000 C 
BRANCH  18  19
ATOM     19  N   UNL     1      49.750   9.259  16.280  0.00  0.00    +0.000 N 
ATOM     20  C   UNL     1      50.274   8.689  17.417  0.00  0.00    +0.000 C 
ATOM     21  O   UNL     1      51.408   8.931  17.819  0.00  0.00    +0.000 OA
ATOM     22  H   UNL     1      48.973   8.778  15.841  0.00  0.00    +0.000 HD
BRANCH  20  23
ATOM     23  C   UNL     1      49.362   7.831  18.180  0.00  0.00    +0.000 A 
ATOM     24  C   UNL     1      49.046   8.154  19.491  0.00  0.00    +0.000 A 
ATOM     25  S   UNL     1      47.942   7.071  20.212  0.00  0.00    +0.000 S 
ATOM     26  C   UNL     1      47.887   6.108  18.810  0.00  0.00    +0.000 A 
ATOM     27  N   UNL     1      47.131   4.980  18.762  0.00  0.00    +0.000 NA
ATOM     28  C   UNL     1      47.208   4.330  17.647  0.00  0.00    +0.000 A 
ATOM     29  N   UNL     1      47.972   4.714  16.572  0.00  0.00    +0.000 N 
ATOM     30  C   UNL     1      48.720   5.865  16.562  0.00  0.00    +0.000 A 
ATOM     31  O   UNL     1      49.339   6.215  15.561  0.00  0.00    +0.000 OA
ATOM     32  C   UNL     1      48.683   6.619  17.800  0.00  0.00    +0.000 A 
ATOM     33  H   UNL     1      47.975   4.169  15.724  0.00  0.00    +0.000 HD
ENDBRANCH  20  23
ENDBRANCH  18  19
ENDBRANCH   4  18
TORSDOF 6
ENDMDL
