MODEL 1
REMARK VINA RESULT:    -8.290      0.000      0.000
REMARK INTER + INTRA:         -11.488
REMARK INTER:                 -10.713
REMARK INTRA:                  -0.775
REMARK UNBOUND:                -0.775
REMARK  Name = 
REMARK  6 active torsions:
REMARK  status: ('A' for Active; 'I' for Inactive)
REMARK    1  A    between atoms: C_1  and  C_2
REMARK    2  A    between atoms: C_6  and  O_7
REMARK    3  A    between atoms: O_7  and  C_8
REMARK    4  A    between atoms: C_11  and  C_12
REMARK    5  A    between atoms: C_12  and  N_13
REMARK    6  A    between atoms: C_14  and  C_16
REMARK                            x       y       z     vdW  Elec       q    Type
REMARK                         _______ _______ _______ _____ _____    ______ ____
ROOT
ATOM      1  C   UNL     1      45.682   7.504  12.498  0.00  0.00    +0.000 C 
ENDROOT
BRANCH   1   5
ATOM      2  C   UNL     1      44.464   4.368   9.775  0.00  0.00    +0.000 A 
ATOM      3  C   UNL     1      43.763   4.579  10.964  0.00  0.00    +0.000 A 
ATOM      4  C   UNL     1      44.155   5.587  11.855  0.00  0.00    +0.000 A 
ATOM      5  C   UNL     1      45.279   6.379  11.579  0.00  0.00    +0.000 A 
ATOM      6  C   UNL     1      46.033   6.099  10.429  0.00  0.00    +0.000 A 
ATOM      7  C   UNL     1      45.625   5.106   9.531  0.00  0.00    +0.000 A 
BRANCH   2   8
ATOM      8  O   UNL     1      44.133   3.418   8.837  0.00  0.00    +0.000 OA
BRANCH   8  14
ATOM      9  C   UNL     1      47.151   3.178   5.199  0.00  0.00    +0.000 C 
ATOM     10  C   UNL     1      46.622   2.572   6.463  0.00  0.00    +0.000 A 
ATOM     11  C   UNL     1      47.133   1.385   6.948  0.00  0.00    +0.000 A 
ATOM     12  C   UNL     1      46.557   0.904   8.100  0.00  0.00    +0.000 A 
ATOM     13  N   UNL     1      45.554   1.525   8.743  0.00  0.00    +0.000 NA
ATOM     14  C   UNL     1      45.150   2.698   8.219  0.00  0.00    +0.000 A 
ATOM     15  N   UNL     1      45.630   3.243   7.088  0.00  0.00    +0.000 NA
ENDBRANCH   8  14
ENDBRANCH   2   8
ENDBRANCH   1   5
BRANCH   1  16
ATOM     16  N   UNL     1      46.411   7.026  13.644  0.00  0.00    +0.000 N 
ATOM     17  C   UNL     1      47.779   6.916  13.634  0.00  0.00    +0.000 C 
ATOM     18  O   UNL     1      48.460   7.237  12.665  0.00  0.00    +0.000 OA
ATOM     19  H   UNL     1      45.881   6.506  14.335  0.00  0.00    +0.000 HD
BRANCH  17  20
ATOM     20  C   UNL     1      48.392   6.458  14.889  0.00  0.00    +0.000 A 
ATOM     21  C   UNL     1      49.436   7.173  15.458  0.00  0.00    +0.000 A 
ATOM     22  S   UNL     1      49.953   6.543  16.957  0.00  0.00    +0.000 S 
ATOM     23  C   UNL     1      48.844   5.255  16.862  0.00  0.00    +0.000 A 
ATOM     24  N   UNL     1      48.776   4.312  17.840  0.00  0.00    +0.000 NA
ATOM     25  C   UNL     1      47.913   3.375  17.618  0.00  0.00    +0.000 A 
ATOM     26  N   UNL     1      47.113   3.297  16.510  0.00  0.00    +0.000 N 
ATOM     27  C   UNL     1      47.117   4.246  15.517  0.00  0.00    +0.000 A 
ATOM     28  O   UNL     1      46.345   4.178  14.570  0.00  0.00    +0.000 OA
ATOM     29  C   UNL     1      48.080   5.315  15.711  0.00  0.00    +0.000 A 
ATOM     30  H   UNL     1      46.446   2.546  16.401  0.00  0.00    +0.000 HD
ENDBRANCH  17  20
ENDBRANCH   1  16
TORSDOF 5
ENDMDL
MODEL 2
REMARK VINA RESULT:    -8.012      1.125      1.311
REMARK INTER + INTRA:         -11.129
REMARK INTER:                 -10.313
REMARK INTRA:                  -0.816
REMARK UNBOUND:                -0.775
REMARK  Name = 
REMARK  6 active torsions:
REMARK  status: ('A' for Active; 'I' for Inactive)
REMARK    1  A    between atoms: C_1  and  C_2
REMARK    2  A    between atoms: C_6  and  O_7
REMARK    3  A    between atoms: O_7  and  C_8
REMARK    4  A    between atoms: C_11  and  C_12
REMARK    5  A    between atoms: C_12  and  N_13
REMARK    6  A    between atoms: C_14  and  C_16
REMARK                            x       y       z     vdW  Elec       q    Type
REMARK                         _______ _______ _______ _____ _____    ______ ____
ROOT
ATOM      1  C   UNL     1      47.032   7.923  13.398  0.00  0.00    +0.000 C 
ENDROOT
BRANCH   1   5
ATOM      2  C   UNL     1      44.745   5.449  10.680  0.00  0.00    +0.000 A 
ATOM      3  C   UNL     1      44.235   5.766  11.941  0.00  0.00    +0.000 A 
ATOM      4  C   UNL     1      44.973   6.561  12.829  0.00  0.00    +0.000 A 
ATOM      5  C   UNL     1      46.248   7.022  12.477  0.00  0.00    +0.000 A 
ATOM      6  C   UNL     1      46.792   6.622  11.247  0.00  0.00    +0.000 A 
ATOM      7  C   UNL     1      46.045   5.846  10.352  0.00  0.00    +0.000 A 
BRANCH   2   8
ATOM      8  O   UNL     1      44.080   4.696   9.740  0.00  0.00    +0.000 OA
BRANCH   8  14
ATOM      9  C   UNL     1      46.709   3.557   5.973  0.00  0.00    +0.000 C 
ATOM     10  C   UNL     1      46.050   3.129   7.249  0.00  0.00    +0.000 A 
ATOM     11  C   UNL     1      46.145   1.825   7.693  0.00  0.00    +0.000 A 
ATOM     12  C   UNL     1      45.480   1.533   8.860  0.00  0.00    +0.000 A 
ATOM     13  N   UNL     1      44.770   2.438   9.555  0.00  0.00    +0.000 NA
ATOM     14  C   UNL     1      44.770   3.693   9.068  0.00  0.00    +0.000 A 
ATOM     15  N   UNL     1      45.367   4.077   7.927  0.00  0.00    +0.000 NA
ENDBRANCH   8  14
ENDBRANCH   2   8
ENDBRANCH   1   5
BRANCH   1  16
ATOM     16  N   UNL     1      47.498   7.223  14.566  0.00  0.00    +0.000 N 
ATOM     17  C   UNL     1      48.794   6.784  14.672  0.00  0.00    +0.000 C 
ATOM     18  O   UNL     1      49.633   6.980  13.798  0.00  0.00    +0.000 OA
ATOM     19  H   UNL     1      46.790   6.811  15.162  0.00  0.00    +0.000 HD
BRANCH  17  20
ATOM     20  C   UNL     1      49.143   6.126  15.939  0.00  0.00    +0.000 A 
ATOM     21  C   UNL     1      50.227   6.569  16.683  0.00  0.00    +0.000 A 
ATOM     22  S   UNL     1      50.417   5.745  18.165  0.00  0.00    +0.000 S 
ATOM     23  C   UNL     1      49.098   4.723  17.831  0.00  0.00    +0.000 A 
ATOM     24  N   UNL     1      48.724   3.749  18.704  0.00  0.00    +0.000 NA
ATOM     25  C   UNL     1      47.729   3.027  18.303  0.00  0.00    +0.000 A 
ATOM     26  N   UNL     1      47.075   3.191  17.111  0.00  0.00    +0.000 N 
ATOM     27  C   UNL     1      47.390   4.185  16.217  0.00  0.00    +0.000 A 
ATOM     28  O   UNL     1      46.745   4.342  15.188  0.00  0.00    +0.000 OA
ATOM     29  C   UNL     1      48.512   5.017  16.613  0.00  0.00    +0.000 A 
ATOM     30  H   UNL     1      46.293   2.603  16.861  0.00  0.00    +0.000 HD
ENDBRANCH  17  20
ENDBRANCH   1  16
TORSDOF 5
ENDMDL
MODEL 3
REMARK VINA RESULT:    -7.325      1.755      2.667
REMARK INTER + INTRA:         -10.241
REMARK INTER:                  -9.727
REMARK INTRA:                  -0.513
REMARK UNBOUND:                -0.775
REMARK  Name = 
REMARK  6 active torsions:
REMARK  status: ('A' for Active; 'I' for Inactive)
REMARK    1  A    between atoms: C_1  and  C_2
REMARK    2  A    between atoms: C_6  and  O_7
REMARK    3  A    between atoms: O_7  and  C_8
REMARK    4  A    between atoms: C_11  and  C_12
REMARK    5  A    between atoms: C_12  and  N_13
REMARK    6  A    between atoms: C_14  and  C_16
REMARK                            x       y       z     vdW  Elec       q    Type
REMARK                         _______ _______ _______ _____ _____    ______ ____
ROOT
ATOM      1  C   UNL     1      45.096   4.903  13.635  0.00  0.00    +0.000 C 
ENDROOT
BRANCH   1   5
ATOM      2  C   UNL     1      44.913   4.309   9.352  0.00  0.00    +0.000 A 
ATOM      3  C   UNL     1      44.311   3.392  10.216  0.00  0.00    +0.000 A 
ATOM      4  C   UNL     1      44.372   3.573  11.604  0.00  0.00    +0.000 A 
ATOM      5  C   UNL     1      45.067   4.663  12.147  0.00  0.00    +0.000 A 
ATOM      6  C   UNL     1      45.747   5.527  11.277  0.00  0.00    +0.000 A 
ATOM      7  C   UNL     1      45.667   5.356   9.890  0.00  0.00    +0.000 A 
BRANCH   2   8
ATOM      8  O   UNL     1      44.881   4.220   7.980  0.00  0.00    +0.000 OA
BRANCH   8  14
ATOM      9  C   UNL     1      46.843  -0.077   7.674  0.00  0.00    +0.000 C 
ATOM     10  C   UNL     1      46.768   1.334   7.172  0.00  0.00    +0.000 A 
ATOM     11  C   UNL     1      47.581   1.763   6.141  0.00  0.00    +0.000 A 
ATOM     12  C   UNL     1      47.450   3.083   5.779  0.00  0.00    +0.000 A 
ATOM     13  N   UNL     1      46.594   3.933   6.368  0.00  0.00    +0.000 NA
ATOM     14  C   UNL     1      45.813   3.413   7.334  0.00  0.00    +0.000 A 
ATOM     15  N   UNL     1      45.877   2.147   7.779  0.00  0.00    +0.000 NA
ENDBRANCH   8  14
ENDBRANCH   2   8
ENDBRANCH   1   5
BRANCH   1  16
ATOM     16  N   UNL     1      46.195   5.749  14.022  0.00  0.00    +0.000 N 
ATOM     17  C   UNL     1      47.331   5.236  14.596  0.00  0.00    +0.000 C 
ATOM     18  O   UNL     1      47.488   4.035  14.792  0.00  0.00    +0.000 OA
ATOM     19  H   UNL     1      45.992   6.736  14.131  0.00  0.00    +0.000 HD
BRANCH  17  20
ATOM     20  C   UNL     1      48.389   6.211  14.898  0.00  0.00    +0.000 A 
ATOM     21  C   UNL     1      48.942   6.978  13.883  0.00  0.00    +0.000 A 
ATOM     22  S   UNL     1      50.086   8.117  14.438  0.00  0.00    +0.000 S 
ATOM     23  C   UNL     1      49.930   7.574  16.044  0.00  0.00    +0.000 A 
ATOM     24  N   UNL     1      50.662   8.128  17.047  0.00  0.00    +0.000 NA
ATOM     25  C   UNL     1      50.467   7.593  18.208  0.00  0.00    +0.000 A 
ATOM     26  N   UNL     1      49.604   6.559  18.456  0.00  0.00    +0.000 N 
ATOM     27  C   UNL     1      48.814   5.995  17.484  0.00  0.00    +0.000 A 
ATOM     28  O   UNL     1      48.009   5.113  17.752  0.00  0.00    +0.000 OA
ATOM     29  C   UNL     1      49.007   6.550  16.156  0.00  0.00    +0.000 A 
ATOM     30  H   UNL     1      49.484   6.194  19.390  0.00  0.00    +0.000 HD
ENDBRANCH  17  20
ENDBRANCH   1  16
TORSDOF 5
ENDMDL
MODEL 4
REMARK VINA RESULT:    -7.114      2.784      3.628
REMARK INTER + INTRA:          -9.968
REMARK INTER:                  -9.158
REMARK INTRA:                  -0.810
REMARK UNBOUND:                -0.775
REMARK  Name = 
REMARK  6 active torsions:
REMARK  status: ('A' for Active; 'I' for Inactive)
REMARK    1  A    between atoms: C_1  and  C_2
REMARK    2  A    between atoms: C_6  and  O_7
REMARK    3  A    between atoms: O_7  and  C_8
REMARK    4  A    between atoms: C_11  and  C_12
REMARK    5  A    between atoms: C_12  and  N_13
REMARK    6  A    between atoms: C_14  and  C_16
REMARK                            x       y       z     vdW  Elec       q    Type
REMARK                         _______ _______ _______ _____ _____    ______ ____
ROOT
ATOM      1  C   UNL     1      48.426   7.459  14.037  0.00  0.00    +0.000 C 
ENDROOT
BRANCH   1   5
ATOM      2  C   UNL     1      45.320   5.972  11.414  0.00  0.00    +0.000 A 
ATOM      3  C   UNL     1      45.568   7.343  11.505  0.00  0.00    +0.000 A 
ATOM      4  C   UNL     1      46.567   7.833  12.357  0.00  0.00    +0.000 A 
ATOM      5  C   UNL     1      47.311   6.954  13.156  0.00  0.00    +0.000 A 
ATOM      6  C   UNL     1      46.993   5.588  13.129  0.00  0.00    +0.000 A 
ATOM      7  C   UNL     1      46.010   5.099  12.261  0.00  0.00    +0.000 A 
BRANCH   2   8
ATOM      8  O   UNL     1      44.377   5.406  10.589  0.00  0.00    +0.000 OA
BRANCH   8  14
ATOM      9  C   UNL     1      46.723   3.844   6.787  0.00  0.00    +0.000 C 
ATOM     10  C   UNL     1      45.868   3.534   7.978  0.00  0.00    +0.000 A 
ATOM     11  C   UNL     1      45.481   2.238   8.255  0.00  0.00    +0.000 A 
ATOM     12  C   UNL     1      44.674   2.070   9.355  0.00  0.00    +0.000 A 
ATOM     13  N   UNL     1      44.267   3.083  10.138  0.00  0.00    +0.000 NA
ATOM     14  C   UNL     1      44.730   4.305   9.815  0.00  0.00    +0.000 A 
ATOM     15  N   UNL     1      45.502   4.580   8.750  0.00  0.00    +0.000 NA
ENDBRANCH   8  14
ENDBRANCH   2   8
ENDBRANCH   1   5
BRANCH   1  16
ATOM     16  N   UNL     1      48.157   7.225  15.431  0.00  0.00    +0.000 N 
ATOM     17  C   UNL     1      49.080   6.629  16.253  0.00  0.00    +0.000 C 
ATOM     18  O   UNL     1      50.189   6.282  15.859  0.00  0.00    +0.000 OA
ATOM     19  H   UNL     1      47.184   7.241  15.715  0.00  0.00    +0.000 HD
BRANCH  17  20
ATOM     20  C   UNL     1      48.688   6.496  17.663  0.00  0.00    +0.000 A 
ATOM     21  C   UNL     1      48.811   5.275  18.311  0.00  0.00    +0.000 A 
ATOM     22  S   UNL     1      48.397   5.339  19.966  0.00  0.00    +0.000 S 
ATOM     23  C   UNL     1      47.974   6.984  19.854  0.00  0.00    +0.000 A 
ATOM     24  N   UNL     1      47.509   7.665  20.935  0.00  0.00    +0.000 NA
ATOM     25  C   UNL     1      47.193   8.896  20.695  0.00  0.00    +0.000 A 
ATOM     26  N   UNL     1      47.303   9.506  19.474  0.00  0.00    +0.000 N 
ATOM     27  C   UNL     1      47.805   8.872  18.364  0.00  0.00    +0.000 A 
ATOM     28  O   UNL     1      47.947   9.465  17.303  0.00  0.00    +0.000 OA
ATOM     29  C   UNL     1      48.161   7.480  18.576  0.00  0.00    +0.000 A 
ATOM     30  H   UNL     1      47.055  10.478  19.354  0.00  0.00    +0.000 HD
ENDBRANCH  17  20
ENDBRANCH   1  16
TORSDOF 5
ENDMDL
MODEL 5
REMARK VINA RESULT:    -7.052      4.188      9.261
REMARK INTER + INTRA:          -9.887
REMARK INTER:                  -9.335
REMARK INTRA:                  -0.553
REMARK UNBOUND:                -0.775
REMARK  Name = 
REMARK  6 active torsions:
REMARK  status: ('A' for Active; 'I' for Inactive)
REMARK    1  A    between atoms: C_1  and  C_2
REMARK    2  A    between atoms: C_6  and  O_7
REMARK    3  A    between atoms: O_7  and  C_8
REMARK    4  A    between atoms: C_11  and  C_12
REMARK    5  A    between atoms: C_12  and  N_13
REMARK    6  A    between atoms: C_14  and  C_16
REMARK                            x       y       z     vdW  Elec       q    Type
REMARK                         _______ _______ _______ _____ _____    ______ ____
ROOT
ATOM      1  C   UNL     1      47.220   3.467  16.780  0.00  0.00    +0.000 C 
ENDROOT
BRANCH   1   5
ATOM      2  C   UNL     1      51.450   3.878  17.598  0.00  0.00    +0.000 A 
ATOM      3  C   UNL     1      50.884   2.611  17.441  0.00  0.00    +0.000 A 
ATOM      4  C   UNL     1      49.514   2.470  17.183  0.00  0.00    +0.000 A 
ATOM      5  C   UNL     1      48.685   3.598  17.111  0.00  0.00    +0.000 A 
ATOM      6  C   UNL     1      49.244   4.860  17.363  0.00  0.00    +0.000 A 
ATOM      7  C   UNL     1      50.617   5.000  17.598  0.00  0.00    +0.000 A 
BRANCH   2   8
ATOM      8  O   UNL     1      52.787   4.108  17.830  0.00  0.00    +0.000 OA
BRANCH   8  14
ATOM      9  C   UNL     1      55.172   0.120  16.930  0.00  0.00    +0.000 C 
ATOM     10  C   UNL     1      54.732   1.150  17.926  0.00  0.00    +0.000 A 
ATOM     11  C   UNL     1      55.097   1.053  19.254  0.00  0.00    +0.000 A 
ATOM     12  C   UNL     1      54.617   2.035  20.087  0.00  0.00    +0.000 A 
ATOM     13  N   UNL     1      53.837   3.045  19.669  0.00  0.00    +0.000 NA
ATOM     14  C   UNL     1      53.568   3.081  18.350  0.00  0.00    +0.000 A 
ATOM     15  N   UNL     1      53.968   2.160  17.457  0.00  0.00    +0.000 NA
ENDBRANCH   8  14
ENDBRANCH   2   8
ENDBRANCH   1   5
BRANCH   1  16
ATOM     16  N   UNL     1      46.795   4.453  15.822  0.00  0.00    +0.000 N 
ATOM     17  C   UNL     1      46.848   4.215  14.472  0.00  0.00    +0.000 C 
ATOM     18  O   UNL     1      47.235   3.149  14.003  0.00  0.00    +0.000 OA
ATOM     19  H   UNL     1      46.737   5.411  16.150  0.00  0.00    +0.000 HD
BRANCH  17  20
ATOM     20  C   UNL     1      46.338   5.294  13.613  0.00  0.00    +0.000 A 
ATOM     21  C   UNL     1      47.115   6.417  13.366  0.00  0.00    +0.000 A 
ATOM     22  S   UNL     1      46.396   7.513  12.273  0.00  0.00    +0.000 S 
ATOM     23  C   UNL     1      44.993   6.557  12.148  0.00  0.00    +0.000 A 
ATOM     24  N   UNL     1      43.948   6.940  11.368  0.00  0.00    +0.000 NA
ATOM     25  C   UNL     1      42.937   6.135  11.397  0.00  0.00    +0.000 A 
ATOM     26  N   UNL     1      42.878   4.981  12.133  0.00  0.00    +0.000 N 
ATOM     27  C   UNL     1      43.923   4.532  12.903  0.00  0.00    +0.000 A 
ATOM     28  O   UNL     1      43.860   3.466  13.500  0.00  0.00    +0.000 OA
ATOM     29  C   UNL     1      45.080   5.410  12.917  0.00  0.00    +0.000 A 
ATOM     30  H   UNL     1      42.064   4.385  12.101  0.00  0.00    +0.000 HD
ENDBRANCH  17  20
ENDBRANCH   1  16
TORSDOF 5
ENDMDL
MODEL 6
REMARK VINA RESULT:    -6.987      4.036      8.791
REMARK INTER + INTRA:          -9.804
REMARK INTER:                  -9.019
REMARK INTRA:                  -0.785
REMARK UNBOUND:                -0.775
REMARK  Name = 
REMARK  6 active torsions:
REMARK  status: ('A' for Active; 'I' for Inactive)
REMARK    1  A    between atoms: C_1  and  C_2
REMARK    2  A    between atoms: C_6  and  O_7
REMARK    3  A    between atoms: O_7  and  C_8
REMARK    4  A    between atoms: C_11  and  C_12
REMARK    5  A    between atoms: C_12  and  N_13
REMARK    6  A    between atoms: C_14  and  C_16
REMARK                            x       y       z     vdW  Elec       q    Type
REMARK                         _______ _______ _______ _____ _____    ______ ____
ROOT
ATOM      1  C   UNL     1      47.346   3.500  16.559  0.00  0.00    +0.000 C 
ENDROOT
BRANCH   1   5
ATOM      2  C   UNL     1      51.270   4.740  17.897  0.00  0.00    +0.000 A 
ATOM      3  C   UNL     1      50.973   3.383  17.752  0.00  0.00    +0.000 A 
ATOM      4  C   UNL     1      49.702   2.974  17.326  0.00  0.00    +0.000 A 
ATOM      5  C   UNL     1      48.700   3.920  17.070  0.00  0.00    +0.000 A 
ATOM      6  C   UNL     1      48.978   5.274  17.309  0.00  0.00    +0.000 A 
ATOM      7  C   UNL     1      50.255   5.682  17.713  0.00  0.00    +0.000 A 
BRANCH   2   8
ATOM      8  O   UNL     1      52.496   5.229  18.287  0.00  0.00    +0.000 OA
BRANCH   8  14
ATOM      9  C   UNL     1      54.331   7.351  14.476  0.00  0.00    +0.000 C 
ATOM     10  C   UNL     1      54.439   6.282  15.520  0.00  0.00    +0.000 A 
ATOM     11  C   UNL     1      55.509   5.409  15.533  0.00  0.00    +0.000 A 
ATOM     12  C   UNL     1      55.495   4.449  16.516  0.00  0.00    +0.000 A 
ATOM     13  N   UNL     1      54.516   4.337  17.429  0.00  0.00    +0.000 NA
ATOM     14  C   UNL     1      53.536   5.258  17.364  0.00  0.00    +0.000 A 
ATOM     15  N   UNL     1      53.444   6.220  16.431  0.00  0.00    +0.000 NA
ENDBRANCH   8  14
ENDBRANCH   2   8
ENDBRANCH   1   5
BRANCH   1  16
ATOM     16  N   UNL     1      46.794   4.463  15.643  0.00  0.00    +0.000 N 
ATOM     17  C   UNL     1      46.765   4.235  14.290  0.00  0.00    +0.000 C 
ATOM     18  O   UNL     1      47.182   3.197  13.785  0.00  0.00    +0.000 OA
ATOM     19  H   UNL     1      46.702   5.413  15.983  0.00  0.00    +0.000 HD
BRANCH  17  20
ATOM     20  C   UNL     1      46.131   5.285  13.479  0.00  0.00    +0.000 A 
ATOM     21  C   UNL     1      46.794   6.480  13.241  0.00  0.00    +0.000 A 
ATOM     22  S   UNL     1      45.942   7.535  12.204  0.00  0.00    +0.000 S 
ATOM     23  C   UNL     1      44.629   6.457  12.095  0.00  0.00    +0.000 A 
ATOM     24  N   UNL     1      43.527   6.764  11.359  0.00  0.00    +0.000 NA
ATOM     25  C   UNL     1      42.595   5.869  11.396  0.00  0.00    +0.000 A 
ATOM     26  N   UNL     1      42.666   4.696  12.099  0.00  0.00    +0.000 N 
ATOM     27  C   UNL     1      43.773   4.324  12.823  0.00  0.00    +0.000 A 
ATOM     28  O   UNL     1      43.827   3.241  13.390  0.00  0.00    +0.000 OA
ATOM     29  C   UNL     1      44.845   5.303  12.827  0.00  0.00    +0.000 A 
ATOM     30  H   UNL     1      41.909   4.028  12.075  0.00  0.00    +0.000 HD
ENDBRANCH  17  20
ENDBRANCH   1  16
TORSDOF 5
ENDMDL
MODEL 7
REMARK VINA RESULT:    -6.978      2.346      4.137
REMARK INTER + INTRA:          -9.792
REMARK INTER:                  -9.095
REMARK INTRA:                  -0.697
REMARK UNBOUND:                -0.775
REMARK  Name = 
REMARK  6 active torsions:
REMARK  status: ('A' for Active; 'I' for Inactive)
REMARK    1  A    between atoms: C_1  and  C_2
REMARK    2  A    between atoms: C_6  and  O_7
REMARK    3  A    between atoms: O_7  and  C_8
REMARK    4  A    between atoms: C_11  and  C_12
REMARK    5  A    between atoms: C_12  and  N_13
REMARK    6  A    between atoms: C_14  and  C_16
REMARK                            x       y       z     vdW  Elec       q    Type
REMARK                         _______ _______ _______ _____ _____    ______ ____
ROOT
ATOM      1  C   UNL     1      46.067   5.093  13.911  0.00  0.00    +0.000 C 
ENDROOT
BRANCH   1   5
ATOM      2  C   UNL     1      45.006   4.315   9.789  0.00  0.00    +0.000 A 
ATOM      3  C   UNL     1      45.484   5.571  10.167  0.00  0.00    +0.000 A 
ATOM      4  C   UNL     1      45.823   5.833  11.501  0.00  0.00    +0.000 A 
ATOM      5  C   UNL     1      45.656   4.846  12.482  0.00  0.00    +0.000 A 
ATOM      6  C   UNL     1      45.087   3.619  12.111  0.00  0.00    +0.000 A 
ATOM      7  C   UNL     1      44.770   3.352  10.774  0.00  0.00    +0.000 A 
BRANCH   2   8
ATOM      8  O   UNL     1      44.672   3.967   8.500  0.00  0.00    +0.000 OA
BRANCH   8  14
ATOM      9  C   UNL     1      46.893  -0.129   7.665  0.00  0.00    +0.000 C 
ATOM     10  C   UNL     1      46.684   1.310   7.301  0.00  0.00    +0.000 A 
ATOM     11  C   UNL     1      47.384   1.886   6.260  0.00  0.00    +0.000 A 
ATOM     12  C   UNL     1      47.137   3.219   6.030  0.00  0.00    +0.000 A 
ATOM     13  N   UNL     1      46.272   3.949   6.753  0.00  0.00    +0.000 NA
ATOM     14  C   UNL     1      45.604   3.291   7.720  0.00  0.00    +0.000 A 
ATOM     15  N   UNL     1      45.788   1.999   8.041  0.00  0.00    +0.000 NA
ENDBRANCH   8  14
ENDBRANCH   2   8
ENDBRANCH   1   5
BRANCH   1  16
ATOM     16  N   UNL     1      46.607   6.415  14.095  0.00  0.00    +0.000 N 
ATOM     17  C   UNL     1      47.958   6.651  14.076  0.00  0.00    +0.000 C 
ATOM     18  O   UNL     1      48.781   5.762  13.880  0.00  0.00    +0.000 OA
ATOM     19  H   UNL     1      45.994   7.100  14.524  0.00  0.00    +0.000 HD
BRANCH  17  20
ATOM     20  C   UNL     1      48.364   8.055  14.231  0.00  0.00    +0.000 A 
ATOM     21  C   UNL     1      48.430   8.629  15.492  0.00  0.00    +0.000 A 
ATOM     22  S   UNL     1      49.010  10.234  15.479  0.00  0.00    +0.000 S 
ATOM     23  C   UNL     1      49.126  10.238  13.781  0.00  0.00    +0.000 A 
ATOM     24  N   UNL     1      49.550  11.341  13.108  0.00  0.00    +0.000 NA
ATOM     25  C   UNL     1      49.555  11.212  11.821  0.00  0.00    +0.000 A 
ATOM     26  N   UNL     1      49.176  10.080  11.149  0.00  0.00    +0.000 N 
ATOM     27  C   UNL     1      48.780   8.930  11.786  0.00  0.00    +0.000 A 
ATOM     28  O   UNL     1      48.507   7.917  11.156  0.00  0.00    +0.000 OA
ATOM     29  C   UNL     1      48.743   9.027  13.234  0.00  0.00    +0.000 A 
ATOM     30  H   UNL     1      49.217  10.036  10.141  0.00  0.00    +0.000 HD
ENDBRANCH  17  20
ENDBRANCH   1  16
TORSDOF 5
ENDMDL
MODEL 8
REMARK VINA RESULT:    -6.941      2.539      3.687
REMARK INTER + INTRA:          -9.744
REMARK INTER:                  -9.168
REMARK INTRA:                  -0.576
REMARK UNBOUND:                -0.775
REMARK  Name = 
REMARK  6 active torsions:
REMARK  status: ('A' for Active; 'I' for Inactive)
REMARK    1  A    between atoms: C_1  and  C_2
REMARK    2  A    between atoms: C_6  and  O_7
REMARK    3  A    between atoms: O_7  and  C_8
REMARK    4  A    between atoms: C_11  and  C_12
REMARK    5  A    between atoms: C_12  and  N_13
REMARK    6  A    between atoms: C_14  and  C_16
REMARK                            x       y       z     vdW  Elec       q    Type
REMARK                         _______ _______ _______ _____ _____    ______ ____
ROOT
ATOM      1  C   UNL     1      46.015   5.217  13.827  0.00  0.00    +0.000 C 
ENDROOT
BRANCH   1   5
ATOM      2  C   UNL     1      44.878   3.686   9.942  0.00  0.00    +0.000 A 
ATOM      3  C   UNL     1      45.242   5.026  10.092  0.00  0.00    +0.000 A 
ATOM      4  C   UNL     1      45.604   5.531  11.347  0.00  0.00    +0.000 A 
ATOM      5  C   UNL     1      45.576   4.705  12.479  0.00  0.00    +0.000 A 
ATOM      6  C   UNL     1      45.119   3.386  12.338  0.00  0.00    +0.000 A 
ATOM      7  C   UNL     1      44.779   2.877  11.078  0.00  0.00    +0.000 A 
BRANCH   2   8
ATOM      8  O   UNL     1      44.531   3.104   8.745  0.00  0.00    +0.000 OA
BRANCH   8  14
ATOM      9  C   UNL     1      47.477   3.071   5.041  0.00  0.00    +0.000 C 
ATOM     10  C   UNL     1      46.931   2.368   6.247  0.00  0.00    +0.000 A 
ATOM     11  C   UNL     1      47.378   1.109   6.596  0.00  0.00    +0.000 A 
ATOM     12  C   UNL     1      46.790   0.545   7.703  0.00  0.00    +0.000 A 
ATOM     13  N   UNL     1      45.836   1.152   8.427  0.00  0.00    +0.000 NA
ATOM     14  C   UNL     1      45.494   2.394   8.035  0.00  0.00    +0.000 A 
ATOM     15  N   UNL     1      45.990   3.026   6.958  0.00  0.00    +0.000 NA
ENDBRANCH   8  14
ENDBRANCH   2   8
ENDBRANCH   1   5
BRANCH   1  16
ATOM     16  N   UNL     1      46.537   6.557  13.750  0.00  0.00    +0.000 N 
ATOM     17  C   UNL     1      47.867   6.799  13.515  0.00  0.00    +0.000 C 
ATOM     18  O   UNL     1      48.681   5.899  13.335  0.00  0.00    +0.000 OA
ATOM     19  H   UNL     1      45.968   7.290  14.158  0.00  0.00    +0.000 HD
BRANCH  17  20
ATOM     20  C   UNL     1      48.250   8.215  13.415  0.00  0.00    +0.000 A 
ATOM     21  C   UNL     1      48.262   8.850  12.182  0.00  0.00    +0.000 A 
ATOM     22  S   UNL     1      48.640  10.512  12.279  0.00  0.00    +0.000 S 
ATOM     23  C   UNL     1      48.866  10.421  13.963  0.00  0.00    +0.000 A 
ATOM     24  N   UNL     1      49.229  11.516  14.684  0.00  0.00    +0.000 NA
ATOM     25  C   UNL     1      49.399  11.291  15.946  0.00  0.00    +0.000 A 
ATOM     26  N   UNL     1      49.237  10.073  16.551  0.00  0.00    +0.000 N 
ATOM     27  C   UNL     1      48.832   8.949  15.873  0.00  0.00    +0.000 A 
ATOM     28  O   UNL     1      48.637   7.891  16.455  0.00  0.00    +0.000 OA
ATOM     29  C   UNL     1      48.641   9.144  14.446  0.00  0.00    +0.000 A 
ATOM     30  H   UNL     1      49.370   9.965  17.546  0.00  0.00    +0.000 HD
ENDBRANCH  17  20
ENDBRANCH   1  16
TORSDOF 5
ENDMDL
MODEL 9
REMARK VINA RESULT:    -6.923      2.383      3.695
REMARK INTER + INTRA:          -9.722
REMARK INTER:                  -8.580
REMARK INTRA:                  -1.141
REMARK UNBOUND:                -0.775
REMARK  Name = 
REMARK  6 active torsions:
REMARK  status: ('A' for Active; 'I' for Inactive)
REMARK    1  A    between atoms: C_1  and  C_2
REMARK    2  A    between atoms: C_6  and  O_7
REMARK    3  A    between atoms: O_7  and  C_8
REMARK    4  A    between atoms: C_11  and  C_12
REMARK    5  A    between atoms: C_12  and  N_13
REMARK    6  A    between atoms: C_14  and  C_16
REMARK                            x       y       z     vdW  Elec       q    Type
REMARK                         _______ _______ _______ _____ _____    ______ ____
ROOT
ATOM      1  C   UNL     1      48.985   8.719  14.120  0.00  0.00    +0.000 C 
ENDROOT
BRANCH   1   5
ATOM      2  C   UNL     1      45.673   7.156  11.814  0.00  0.00    +0.000 A 
ATOM      3  C   UNL     1      46.936   6.569  11.718  0.00  0.00    +0.000 A 
ATOM      4  C   UNL     1      48.015   7.073  12.456  0.00  0.00    +0.000 A 
ATOM      5  C   UNL     1      47.849   8.197  13.278  0.00  0.00    +0.000 A 
ATOM      6  C   UNL     1      46.601   8.838  13.296  0.00  0.00    +0.000 A 
ATOM      7  C   UNL     1      45.519   8.318  12.575  0.00  0.00    +0.000 A 
BRANCH   2   8
ATOM      8  O   UNL     1      44.557   6.711  11.144  0.00  0.00    +0.000 OA
BRANCH   8  14
ATOM      9  C   UNL     1      44.613   2.549   8.892  0.00  0.00    +0.000 C 
ATOM     10  C   UNL     1      44.258   3.335  10.118  0.00  0.00    +0.000 A 
ATOM     11  C   UNL     1      43.655   2.726  11.200  0.00  0.00    +0.000 A 
ATOM     12  C   UNL     1      43.348   3.545  12.260  0.00  0.00    +0.000 A 
ATOM     13  N   UNL     1      43.604   4.863  12.278  0.00  0.00    +0.000 NA
ATOM     14  C   UNL     1      44.232   5.360  11.196  0.00  0.00    +0.000 A 
ATOM     15  N   UNL     1      44.555   4.652  10.100  0.00  0.00    +0.000 NA
ENDBRANCH   8  14
ENDBRANCH   2   8
ENDBRANCH   1   5
BRANCH   1  16
ATOM     16  N   UNL     1      49.191   7.921  15.300  0.00  0.00    +0.000 N 
ATOM     17  C   UNL     1      48.635   8.263  16.507  0.00  0.00    +0.000 C 
ATOM     18  O   UNL     1      47.916   9.247  16.648  0.00  0.00    +0.000 OA
ATOM     19  H   UNL     1      49.979   7.282  15.285  0.00  0.00    +0.000 HD
BRANCH  17  20
ATOM     20  C   UNL     1      48.892   7.331  17.615  0.00  0.00    +0.000 A 
ATOM     21  C   UNL     1      49.368   7.803  18.829  0.00  0.00    +0.000 A 
ATOM     22  S   UNL     1      49.514   6.589  20.020  0.00  0.00    +0.000 S 
ATOM     23  C   UNL     1      49.010   5.382  18.931  0.00  0.00    +0.000 A 
ATOM     24  N   UNL     1      48.929   4.079  19.314  0.00  0.00    +0.000 NA
ATOM     25  C   UNL     1      48.567   3.268  18.374  0.00  0.00    +0.000 A 
ATOM     26  N   UNL     1      48.276   3.643  17.090  0.00  0.00    +0.000 N 
ATOM     27  C   UNL     1      48.303   4.949  16.667  0.00  0.00    +0.000 A 
ATOM     28  O   UNL     1      47.978   5.256  15.528  0.00  0.00    +0.000 OA
ATOM     29  C   UNL     1      48.720   5.900  17.682  0.00  0.00    +0.000 A 
ATOM     30  H   UNL     1      47.982   2.962  16.403  0.00  0.00    +0.000 HD
ENDBRANCH  17  20
ENDBRANCH   1  16
TORSDOF 5
ENDMDL
