MODEL 1
REMARK VINA RESULT:    -8.082      0.000      0.000
REMARK INTER + INTRA:         -12.456
REMARK INTER:                 -11.389
REMARK INTRA:                  -1.067
REMARK UNBOUND:                -1.067
REMARK  Name = 
REMARK  8 active torsions:
REMARK  status: ('A' for Active; 'I' for Inactive)
REMARK    1  A    between atoms: C_1  and  O_2
REMARK    2  A    between atoms: O_2  and  C_3
REMARK    3  A    between atoms: C_10  and  C_11
REMARK    4  A    between atoms: N_13  and  C_14
REMARK    5  A    between atoms: C_14  and  C_15
REMARK    6  A    between atoms: C_18  and  C_19
REMARK    7  A    between atoms: C_19  and  C_20
REMARK    8  A    between atoms: C_20  and  N_21
REMARK                            x       y       z     vdW  Elec       q    Type
REMARK                         _______ _______ _______ _____ _____    ______ ____
ROOT
ATOM      1  C   UNL     1      48.007   6.917  13.327  0.00  0.00    +0.000 C 
ENDROOT
BRANCH   1   2
ATOM      2  C   UNL     1      46.836   6.140  12.774  0.00  0.00    +0.000 A 
ATOM      3  C   UNL     1      46.218   5.150  13.546  0.00  0.00    +0.000 A 
ATOM      4  C   UNL     1      45.192   4.357  13.015  0.00  0.00    +0.000 A 
ATOM      5  C   UNL     1      44.747   4.533  11.697  0.00  0.00    +0.000 A 
ATOM      6  C   UNL     1      45.334   5.563  10.945  0.00  0.00    +0.000 A 
ATOM      7  C   UNL     1      46.370   6.350  11.471  0.00  0.00    +0.000 A 
BRANCH   5   8
ATOM      8  C   UNL     1      43.688   3.656  11.046  0.00  0.00    +0.000 C 
BRANCH   8   9
ATOM      9  C   UNL     1      44.024   3.111   9.649  0.00  0.00    +0.000 C 
BRANCH   9  10
ATOM     10  N   UNL     1      45.124   2.153   9.685  0.00  0.00    +0.000 N 
ATOM     11  C   UNL     1      45.902   2.194   8.525  0.00  0.00    +0.000 A 
ATOM     12  N   UNL     1      46.022   3.346   7.848  0.00  0.00    +0.000 NA
ATOM     13  C   UNL     1      46.734   3.327   6.709  0.00  0.00    +0.000 A 
ATOM     14  C   UNL     1      47.344   2.202   6.222  0.00  0.00    +0.000 A 
ATOM     15  C   UNL     1      47.179   1.074   6.989  0.00  0.00    +0.000 A 
ATOM     16  N   UNL     1      46.459   1.041   8.131  0.00  0.00    +0.000 NA
ATOM     17  H   UNL     1      44.867   1.175   9.809  0.00  0.00    +0.000 HD
ENDBRANCH   9  10
ENDBRANCH   8   9
ENDBRANCH   5   8
ENDBRANCH   1   2
BRANCH   1  20
ATOM     18  C   UNL     1      49.152   6.967  15.510  0.00  0.00    +0.000 C 
ATOM     19  O   UNL     1      50.249   6.943  14.956  0.00  0.00    +0.000 OA
ATOM     20  N   UNL     1      47.994   6.942  14.776  0.00  0.00    +0.000 N 
ATOM     21  H   UNL     1      47.095   6.938  15.240  0.00  0.00    +0.000 HD
BRANCH  18  29
ATOM     22  C   UNL     1      48.928   4.566  17.982  0.00  0.00    +0.000 A 
ATOM     23  N   UNL     1      48.781   3.855  19.117  0.00  0.00    +0.000 NA
ATOM     24  C   UNL     1      48.673   4.524  20.268  0.00  0.00    +0.000 A 
ATOM     25  N   UNL     1      48.694   5.840  20.430  0.00  0.00    +0.000 NA
ATOM     26  C   UNL     1      48.822   6.510  19.272  0.00  0.00    +0.000 A 
ATOM     27  S   UNL     1      48.875   8.207  19.288  0.00  0.00    +0.000 S 
ATOM     28  C   UNL     1      49.025   8.268  17.598  0.00  0.00    +0.000 A 
ATOM     29  C   UNL     1      49.042   7.020  16.982  0.00  0.00    +0.000 A 
ATOM     30  C   UNL     1      48.932   5.973  17.995  0.00  0.00    +0.000 A 
BRANCH  22  32
ATOM     31  C   UNL     1      47.825   3.321  16.362  0.00  0.00    +0.000 C 
ATOM     32  O   UNL     1      49.068   3.866  16.799  0.00  0.00    +0.000 OA
ENDBRANCH  22  32
ENDBRANCH  18  29
ENDBRANCH   1  20
TORSDOF 7
ENDMDL
MODEL 2
REMARK VINA RESULT:    -7.687      1.775      2.791
REMARK INTER + INTRA:         -11.900
REMARK INTER:                 -10.853
REMARK INTRA:                  -1.047
REMARK UNBOUND:                -1.067
REMARK  Name = 
REMARK  8 active torsions:
REMARK  status: ('A' for Active; 'I' for Inactive)
REMARK    1  A    between atoms: C_1  and  O_2
REMARK    2  A    between atoms: O_2  and  C_3
REMARK    3  A    between atoms: C_10  and  C_11
REMARK    4  A    between atoms: N_13  and  C_14
REMARK    5  A    between atoms: C_14  and  C_15
REMARK    6  A    between atoms: C_18  and  C_19
REMARK    7  A    between atoms: C_19  and  C_20
REMARK    8  A    between atoms: C_20  and  N_21
REMARK                            x       y       z     vdW  Elec       q    Type
REMARK                         _______ _______ _______ _____ _____    ______ ____
ROOT
ATOM      1  C   UNL     1      48.289   6.287  14.215  0.00  0.00    +0.000 C 
ENDROOT
BRANCH   1   2
ATOM      2  C   UNL     1      47.044   5.986  13.415  0.00  0.00    +0.000 A 
ATOM      3  C   UNL     1      46.449   4.722  13.484  0.00  0.00    +0.000 A 
ATOM      4  C   UNL     1      45.350   4.397  12.678  0.00  0.00    +0.000 A 
ATOM      5  C   UNL     1      44.807   5.329  11.781  0.00  0.00    +0.000 A 
ATOM      6  C   UNL     1      45.374   6.613  11.755  0.00  0.00    +0.000 A 
ATOM      7  C   UNL     1      46.484   6.936  12.552  0.00  0.00    +0.000 A 
BRANCH   5   8
ATOM      8  C   UNL     1      43.661   5.009  10.833  0.00  0.00    +0.000 C 
BRANCH   8   9
ATOM      9  C   UNL     1      43.864   3.796   9.910  0.00  0.00    +0.000 C 
BRANCH   9  10
ATOM     10  N   UNL     1      44.286   4.192   8.571  0.00  0.00    +0.000 N 
ATOM     11  C   UNL     1      45.309   3.379   8.075  0.00  0.00    +0.000 A 
ATOM     12  N   UNL     1      45.384   2.097   8.465  0.00  0.00    +0.000 NA
ATOM     13  C   UNL     1      46.414   1.367   8.006  0.00  0.00    +0.000 A 
ATOM     14  C   UNL     1      47.372   1.864   7.162  0.00  0.00    +0.000 A 
ATOM     15  C   UNL     1      47.205   3.181   6.807  0.00  0.00    +0.000 A 
ATOM     16  N   UNL     1      46.196   3.957   7.255  0.00  0.00    +0.000 NA
ATOM     17  H   UNL     1      44.621   5.149   8.468  0.00  0.00    +0.000 HD
ENDBRANCH   9  10
ENDBRANCH   8   9
ENDBRANCH   5   8
ENDBRANCH   1   2
BRANCH   1  20
ATOM     18  C   UNL     1      48.938   6.120  16.588  0.00  0.00    +0.000 C 
ATOM     19  O   UNL     1      50.061   5.731  16.273  0.00  0.00    +0.000 OA
ATOM     20  N   UNL     1      47.998   6.403  15.631  0.00  0.00    +0.000 N 
ATOM     21  H   UNL     1      47.069   6.700  15.899  0.00  0.00    +0.000 HD
BRANCH  18  29
ATOM     22  C   UNL     1      47.720   8.771  18.435  0.00  0.00    +0.000 A 
ATOM     23  N   UNL     1      47.299   9.632  19.382  0.00  0.00    +0.000 NA
ATOM     24  C   UNL     1      47.182   9.182  20.634  0.00  0.00    +0.000 A 
ATOM     25  N   UNL     1      47.437   7.956  21.067  0.00  0.00    +0.000 NA
ATOM     26  C   UNL     1      47.873   7.135  20.096  0.00  0.00    +0.000 A 
ATOM     27  S   UNL     1      48.243   5.520  20.467  0.00  0.00    +0.000 S 
ATOM     28  C   UNL     1      48.684   5.199  18.858  0.00  0.00    +0.000 A 
ATOM     29  C   UNL     1      48.561   6.293  18.006  0.00  0.00    +0.000 A 
ATOM     30  C   UNL     1      48.063   7.444  18.754  0.00  0.00    +0.000 A 
BRANCH  22  32
ATOM     31  C   UNL     1      49.064   9.874  16.897  0.00  0.00    +0.000 C 
ATOM     32  O   UNL     1      47.811   9.237  17.138  0.00  0.00    +0.000 OA
ENDBRANCH  22  32
ENDBRANCH  18  29
ENDBRANCH   1  20
TORSDOF 7
ENDMDL
MODEL 3
REMARK VINA RESULT:    -7.438      1.857      2.254
REMARK INTER + INTRA:         -11.549
REMARK INTER:                 -10.453
REMARK INTRA:                  -1.095
REMARK UNBOUND:                -1.067
REMARK  Name = 
REMARK  8 active torsions:
REMARK  status: ('A' for Active; 'I' for Inactive)
REMARK    1  A    between atoms: C_1  and  O_2
REMARK    2  A    between atoms: O_2  and  C_3
REMARK    3  A    between atoms: C_10  and  C_11
REMARK    4  A    between atoms: N_13  and  C_14
REMARK    5  A    between atoms: C_14  and  C_15
REMARK    6  A    between atoms: C_18  and  C_19
REMARK    7  A    between atoms: C_19  and  C_20
REMARK    8  A    between atoms: C_20  and  N_21
REMARK                            x       y       z     vdW  Elec       q    Type
REMARK                         _______ _______ _______ _____ _____    ______ ____
ROOT
ATOM      1  C   UNL     1      47.020   8.058  13.515  0.00  0.00    +0.000 C 
ENDROOT
BRANCH   1   2
ATOM      2  C   UNL     1      46.193   6.946  12.915  0.00  0.00    +0.000 A 
ATOM      3  C   UNL     1      45.161   7.239  12.018  0.00  0.00    +0.000 A 
ATOM      4  C   UNL     1      44.325   6.228  11.525  0.00  0.00    +0.000 A 
ATOM      5  C   UNL     1      44.500   4.891  11.908  0.00  0.00    +0.000 A 
ATOM      6  C   UNL     1      45.571   4.595  12.766  0.00  0.00    +0.000 A 
ATOM      7  C   UNL     1      46.401   5.608  13.272  0.00  0.00    +0.000 A 
BRANCH   5   8
ATOM      8  C   UNL     1      43.580   3.763  11.460  0.00  0.00    +0.000 C 
BRANCH   8   9
ATOM      9  C   UNL     1      44.138   2.825  10.378  0.00  0.00    +0.000 C 
BRANCH   9  10
ATOM     10  N   UNL     1      44.226   3.481   9.078  0.00  0.00    +0.000 N 
ATOM     11  C   UNL     1      45.288   2.996   8.310  0.00  0.00    +0.000 A 
ATOM     12  N   UNL     1      45.690   1.725   8.463  0.00  0.00    +0.000 NA
ATOM     13  C   UNL     1      46.749   1.316   7.744  0.00  0.00    +0.000 A 
ATOM     14  C   UNL     1      47.420   2.126   6.867  0.00  0.00    +0.000 A 
ATOM     15  C   UNL     1      46.929   3.405   6.766  0.00  0.00    +0.000 A 
ATOM     16  N   UNL     1      45.879   3.865   7.479  0.00  0.00    +0.000 NA
ATOM     17  H   UNL     1      44.336   4.494   9.090  0.00  0.00    +0.000 HD
ENDBRANCH   9  10
ENDBRANCH   8   9
ENDBRANCH   5   8
ENDBRANCH   1   2
BRANCH   1  20
ATOM     18  C   UNL     1      48.674   8.096  15.342  0.00  0.00    +0.000 C 
ATOM     19  O   UNL     1      48.119   9.067  15.852  0.00  0.00    +0.000 OA
ATOM     20  N   UNL     1      48.202   7.546  14.178  0.00  0.00    +0.000 N 
ATOM     21  H   UNL     1      48.679   6.762  13.753  0.00  0.00    +0.000 HD
BRANCH  18  29
ATOM     22  C   UNL     1      49.394   4.958  16.592  0.00  0.00    +0.000 A 
ATOM     23  N   UNL     1      49.914   3.863  17.181  0.00  0.00    +0.000 NA
ATOM     24  C   UNL     1      51.164   3.932  17.644  0.00  0.00    +0.000 A 
ATOM     25  N   UNL     1      51.977   4.978  17.592  0.00  0.00    +0.000 NA
ATOM     26  C   UNL     1      51.413   6.053  17.016  0.00  0.00    +0.000 A 
ATOM     27  S   UNL     1      52.311   7.486  16.856  0.00  0.00    +0.000 S 
ATOM     28  C   UNL     1      51.007   8.279  16.112  0.00  0.00    +0.000 A 
ATOM     29  C   UNL     1      49.870   7.490  15.963  0.00  0.00    +0.000 A 
ATOM     30  C   UNL     1      50.127   6.154  16.496  0.00  0.00    +0.000 A 
BRANCH  22  32
ATOM     31  C   UNL     1      47.221   4.266  17.028  0.00  0.00    +0.000 C 
ATOM     32  O   UNL     1      48.110   4.869  16.089  0.00  0.00    +0.000 OA
ENDBRANCH  22  32
ENDBRANCH  18  29
ENDBRANCH   1  20
TORSDOF 7
ENDMDL
MODEL 4
REMARK VINA RESULT:    -7.288      4.862      9.414
REMARK INTER + INTRA:         -11.337
REMARK INTER:                 -10.488
REMARK INTRA:                  -0.849
REMARK UNBOUND:                -1.067
REMARK  Name = 
REMARK  8 active torsions:
REMARK  status: ('A' for Active; 'I' for Inactive)
REMARK    1  A    between atoms: C_1  and  O_2
REMARK    2  A    between atoms: O_2  and  C_3
REMARK    3  A    between atoms: C_10  and  C_11
REMARK    4  A    between atoms: N_13  and  C_14
REMARK    5  A    between atoms: C_14  and  C_15
REMARK    6  A    between atoms: C_18  and  C_19
REMARK    7  A    between atoms: C_19  and  C_20
REMARK    8  A    between atoms: C_20  and  N_21
REMARK                            x       y       z     vdW  Elec       q    Type
REMARK                         _______ _______ _______ _____ _____    ______ ____
ROOT
ATOM      1  C   UNL     1      47.190   3.357  16.772  0.00  0.00    +0.000 C 
ENDROOT
BRANCH   1   2
ATOM      2  C   UNL     1      48.678   3.271  17.019  0.00  0.00    +0.000 A 
ATOM      3  C   UNL     1      49.339   2.041  16.928  0.00  0.00    +0.000 A 
ATOM      4  C   UNL     1      50.699   1.928  17.245  0.00  0.00    +0.000 A 
ATOM      5  C   UNL     1      51.443   3.043  17.658  0.00  0.00    +0.000 A 
ATOM      6  C   UNL     1      50.788   4.284  17.696  0.00  0.00    +0.000 A 
ATOM      7  C   UNL     1      49.422   4.397  17.391  0.00  0.00    +0.000 A 
BRANCH   5   8
ATOM      8  C   UNL     1      52.902   2.966  18.082  0.00  0.00    +0.000 C 
BRANCH   8   9
ATOM      9  C   UNL     1      53.648   1.674  17.710  0.00  0.00    +0.000 C 
BRANCH   9  10
ATOM     10  N   UNL     1      53.919   0.843  18.877  0.00  0.00    +0.000 N 
ATOM     11  C   UNL     1      54.243  -0.471  18.529  0.00  0.00    +0.000 A 
ATOM     12  N   UNL     1      54.854  -0.716  17.359  0.00  0.00    +0.000 NA
ATOM     13  C   UNL     1      55.098  -1.997  17.041  0.00  0.00    +0.000 A 
ATOM     14  C   UNL     1      54.765  -3.051  17.851  0.00  0.00    +0.000 A 
ATOM     15  C   UNL     1      54.156  -2.704  19.032  0.00  0.00    +0.000 A 
ATOM     16  N   UNL     1      53.876  -1.432  19.388  0.00  0.00    +0.000 NA
ATOM     17  H   UNL     1      53.168   0.768  19.562  0.00  0.00    +0.000 HD
ENDBRANCH   9  10
ENDBRANCH   8   9
ENDBRANCH   5   8
ENDBRANCH   1   2
BRANCH   1  20
ATOM     18  C   UNL     1      46.876   4.250  14.496  0.00  0.00    +0.000 C 
ATOM     19  O   UNL     1      47.193   3.168  14.006  0.00  0.00    +0.000 OA
ATOM     20  N   UNL     1      46.863   4.430  15.855  0.00  0.00    +0.000 N 
ATOM     21  H   UNL     1      46.624   5.331  16.249  0.00  0.00    +0.000 HD
BRANCH  18  29
ATOM     22  C   UNL     1      44.049   5.061  12.686  0.00  0.00    +0.000 A 
ATOM     23  N   UNL     1      43.114   5.587  11.871  0.00  0.00    +0.000 NA
ATOM     24  C   UNL     1      43.386   6.746  11.267  0.00  0.00    +0.000 A 
ATOM     25  N   UNL     1      44.497   7.461  11.378  0.00  0.00    +0.000 NA
ATOM     26  C   UNL     1      45.410   6.891  12.184  0.00  0.00    +0.000 A 
ATOM     27  S   UNL     1      46.895   7.671  12.449  0.00  0.00    +0.000 S 
ATOM     28  C   UNL     1      47.425   6.422  13.471  0.00  0.00    +0.000 A 
ATOM     29  C   UNL     1      46.502   5.394  13.639  0.00  0.00    +0.000 A 
ATOM     30  C   UNL     1      45.293   5.690  12.874  0.00  0.00    +0.000 A 
BRANCH  22  32
ATOM     31  C   UNL     1      43.624   2.796  12.407  0.00  0.00    +0.000 C 
ATOM     32  O   UNL     1      43.747   3.876  13.330  0.00  0.00    +0.000 OA
ENDBRANCH  22  32
ENDBRANCH  18  29
ENDBRANCH   1  20
TORSDOF 7
ENDMDL
MODEL 5
REMARK VINA RESULT:    -7.242      1.596      2.191
REMARK INTER + INTRA:         -11.273
REMARK INTER:                 -10.273
REMARK INTRA:                  -1.000
REMARK UNBOUND:                -1.067
REMARK  Name = 
REMARK  8 active torsions:
REMARK  status: ('A' for Active; 'I' for Inactive)
REMARK    1  A    between atoms: C_1  and  O_2
REMARK    2  A    between atoms: O_2  and  C_3
REMARK    3  A    between atoms: C_10  and  C_11
REMARK    4  A    between atoms: N_13  and  C_14
REMARK    5  A    between atoms: C_14  and  C_15
REMARK    6  A    between atoms: C_18  and  C_19
REMARK    7  A    between atoms: C_19  and  C_20
REMARK    8  A    between atoms: C_20  and  N_21
REMARK                            x       y       z     vdW  Elec       q    Type
REMARK                         _______ _______ _______ _____ _____    ______ ____
ROOT
ATOM      1  C   UNL     1      48.458   6.050  14.485  0.00  0.00    +0.000 C 
ENDROOT
BRANCH   1   2
ATOM      2  C   UNL     1      47.210   5.936  13.642  0.00  0.00    +0.000 A 
ATOM      3  C   UNL     1      46.290   4.909  13.877  0.00  0.00    +0.000 A 
ATOM      4  C   UNL     1      45.176   4.734  13.046  0.00  0.00    +0.000 A 
ATOM      5  C   UNL     1      44.943   5.585  11.956  0.00  0.00    +0.000 A 
ATOM      6  C   UNL     1      45.839   6.647  11.757  0.00  0.00    +0.000 A 
ATOM      7  C   UNL     1      46.963   6.816  12.581  0.00  0.00    +0.000 A 
BRANCH   5   8
ATOM      8  C   UNL     1      43.790   5.400  10.980  0.00  0.00    +0.000 C 
BRANCH   8   9
ATOM      9  C   UNL     1      43.826   4.124  10.123  0.00  0.00    +0.000 C 
BRANCH   9  10
ATOM     10  N   UNL     1      44.185   4.405   8.738  0.00  0.00    +0.000 N 
ATOM     11  C   UNL     1      45.145   3.516   8.247  0.00  0.00    +0.000 A 
ATOM     12  N   UNL     1      45.192   2.262   8.724  0.00  0.00    +0.000 NA
ATOM     13  C   UNL     1      46.165   1.458   8.265  0.00  0.00    +0.000 A 
ATOM     14  C   UNL     1      47.090   1.852   7.335  0.00  0.00    +0.000 A 
ATOM     15  C   UNL     1      46.955   3.146   6.894  0.00  0.00    +0.000 A 
ATOM     16  N   UNL     1      46.004   3.995   7.338  0.00  0.00    +0.000 NA
ATOM     17  H   UNL     1      44.550   5.336   8.546  0.00  0.00    +0.000 HD
ENDBRANCH   9  10
ENDBRANCH   8   9
ENDBRANCH   5   8
ENDBRANCH   1   2
BRANCH   1  20
ATOM     18  C   UNL     1      48.633   8.046  15.921  0.00  0.00    +0.000 C 
ATOM     19  O   UNL     1      49.278   8.635  15.056  0.00  0.00    +0.000 OA
ATOM     20  N   UNL     1      48.203   6.759  15.723  0.00  0.00    +0.000 N 
ATOM     21  H   UNL     1      47.693   6.273  16.449  0.00  0.00    +0.000 HD
BRANCH  18  29
ATOM     22  C   UNL     1      47.991   6.880  19.108  0.00  0.00    +0.000 A 
ATOM     23  N   UNL     1      47.660   6.699  20.401  0.00  0.00    +0.000 NA
ATOM     24  C   UNL     1      47.392   7.780  21.139  0.00  0.00    +0.000 A 
ATOM     25  N   UNL     1      47.414   9.043  20.738  0.00  0.00    +0.000 NA
ATOM     26  C   UNL     1      47.729   9.177  19.439  0.00  0.00    +0.000 A 
ATOM     27  S   UNL     1      47.812  10.729  18.753  0.00  0.00    +0.000 S 
ATOM     28  C   UNL     1      48.218  10.089  17.232  0.00  0.00    +0.000 A 
ATOM     29  C   UNL     1      48.303   8.700  17.204  0.00  0.00    +0.000 A 
ATOM     30  C   UNL     1      48.021   8.164  18.533  0.00  0.00    +0.000 A 
BRANCH  22  32
ATOM     31  C   UNL     1      49.155   4.872  19.072  0.00  0.00    +0.000 C 
ATOM     32  O   UNL     1      48.295   5.759  18.359  0.00  0.00    +0.000 OA
ENDBRANCH  22  32
ENDBRANCH  18  29
ENDBRANCH   1  20
TORSDOF 7
ENDMDL
MODEL 6
REMARK VINA RESULT:    -6.700      4.116      8.984
REMARK INTER + INTRA:         -10.509
REMARK INTER:                  -9.520
REMARK INTRA:                  -0.988
REMARK UNBOUND:                -1.067
REMARK  Name = 
REMARK  8 active torsions:
REMARK  status: ('A' for Active; 'I' for Inactive)
REMARK    1  A    between atoms: C_1  and  O_2
REMARK    2  A    between atoms: O_2  and  C_3
REMARK    3  A    between atoms: C_10  and  C_11
REMARK    4  A    between atoms: N_13  and  C_14
REMARK    5  A    between atoms: C_14  and  C_15
REMARK    6  A    between atoms: C_18  and  C_19
REMARK    7  A    between atoms: C_19  and  C_20
REMARK    8  A    between atoms: C_20  and  N_21
REMARK                            x       y       z     vdW  Elec       q    Type
REMARK                         _______ _______ _______ _____ _____    ______ ____
ROOT
ATOM      1  C   UNL     1      47.468   3.437  17.111  0.00  0.00    +0.000 C 
ENDROOT
BRANCH   1   2
ATOM      2  C   UNL     1      48.959   3.248  17.264  0.00  0.00    +0.000 A 
ATOM      3  C   UNL     1      49.547   2.013  16.971  0.00  0.00    +0.000 A 
ATOM      4  C   UNL     1      50.912   1.792  17.197  0.00  0.00    +0.000 A 
ATOM      5  C   UNL     1      51.734   2.803  17.716  0.00  0.00    +0.000 A 
ATOM      6  C   UNL     1      51.150   4.056  17.957  0.00  0.00    +0.000 A 
ATOM      7  C   UNL     1      49.780   4.275  17.744  0.00  0.00    +0.000 A 
BRANCH   5   8
ATOM      8  C   UNL     1      53.206   2.598  18.047  0.00  0.00    +0.000 C 
BRANCH   8   9
ATOM      9  C   UNL     1      53.957   3.829  18.581  0.00  0.00    +0.000 C 
BRANCH   9  10
ATOM     10  N   UNL     1      55.190   4.079  17.845  0.00  0.00    +0.000 N 
ATOM     11  C   UNL     1      55.012   4.998  16.807  0.00  0.00    +0.000 A 
ATOM     12  N   UNL     1      54.079   5.956  16.924  0.00  0.00    +0.000 NA
ATOM     13  C   UNL     1      53.904   6.784  15.881  0.00  0.00    +0.000 A 
ATOM     14  C   UNL     1      54.634   6.702  14.724  0.00  0.00    +0.000 A 
ATOM     15  C   UNL     1      55.574   5.700  14.701  0.00  0.00    +0.000 A 
ATOM     16  N   UNL     1      55.774   4.835  15.718  0.00  0.00    +0.000 NA
ATOM     17  H   UNL     1      55.635   3.267  17.418  0.00  0.00    +0.000 HD
ENDBRANCH   9  10
ENDBRANCH   8   9
ENDBRANCH   5   8
ENDBRANCH   1   2
BRANCH   1  20
ATOM     18  C   UNL     1      47.137   4.241  14.804  0.00  0.00    +0.000 C 
ATOM     19  O   UNL     1      47.406   3.127  14.357  0.00  0.00    +0.000 OA
ATOM     20  N   UNL     1      47.159   4.481  16.153  0.00  0.00    +0.000 N 
ATOM     21  H   UNL     1      46.960   5.405  16.511  0.00  0.00    +0.000 HD
BRANCH  18  29
ATOM     22  C   UNL     1      44.652   4.730  12.456  0.00  0.00    +0.000 A 
ATOM     23  N   UNL     1      43.838   5.156  11.471  0.00  0.00    +0.000 NA
ATOM     24  C   UNL     1      44.057   6.368  10.954  0.00  0.00    +0.000 A 
ATOM     25  N   UNL     1      45.006   7.224  11.304  0.00  0.00    +0.000 NA
ATOM     26  C   UNL     1      45.808   6.752  12.274  0.00  0.00    +0.000 A 
ATOM     27  S   UNL     1      47.079   7.718  12.855  0.00  0.00    +0.000 S 
ATOM     28  C   UNL     1      47.563   6.510  13.947  0.00  0.00    +0.000 A 
ATOM     29  C   UNL     1      46.784   5.358  13.904  0.00  0.00    +0.000 A 
ATOM     30  C   UNL     1      45.727   5.517  12.908  0.00  0.00    +0.000 A 
BRANCH  22  32
ATOM     31  C   UNL     1      43.488   2.737  12.207  0.00  0.00    +0.000 C 
ATOM     32  O   UNL     1      44.401   3.488  13.006  0.00  0.00    +0.000 OA
ENDBRANCH  22  32
ENDBRANCH  18  29
ENDBRANCH   1  20
TORSDOF 7
ENDMDL
MODEL 7
REMARK VINA RESULT:    -6.617      2.657      3.755
REMARK INTER + INTRA:         -10.392
REMARK INTER:                  -9.482
REMARK INTRA:                  -0.910
REMARK UNBOUND:                -1.067
REMARK  Name = 
REMARK  8 active torsions:
REMARK  status: ('A' for Active; 'I' for Inactive)
REMARK    1  A    between atoms: C_1  and  O_2
REMARK    2  A    between atoms: O_2  and  C_3
REMARK    3  A    between atoms: C_10  and  C_11
REMARK    4  A    between atoms: N_13  and  C_14
REMARK    5  A    between atoms: C_14  and  C_15
REMARK    6  A    between atoms: C_18  and  C_19
REMARK    7  A    between atoms: C_19  and  C_20
REMARK    8  A    between atoms: C_20  and  N_21
REMARK                            x       y       z     vdW  Elec       q    Type
REMARK                         _______ _______ _______ _____ _____    ______ ____
ROOT
ATOM      1  C   UNL     1      46.326   8.522  13.087  0.00  0.00    +0.000 C 
ENDROOT
BRANCH   1   2
ATOM      2  C   UNL     1      45.700   7.244  12.580  0.00  0.00    +0.000 A 
ATOM      3  C   UNL     1      44.650   7.289  11.658  0.00  0.00    +0.000 A 
ATOM      4  C   UNL     1      43.997   6.118  11.250  0.00  0.00    +0.000 A 
ATOM      5  C   UNL     1      44.379   4.864  11.746  0.00  0.00    +0.000 A 
ATOM      6  C   UNL     1      45.469   4.819  12.630  0.00  0.00    +0.000 A 
ATOM      7  C   UNL     1      46.116   5.992  13.050  0.00  0.00    +0.000 A 
BRANCH   5   8
ATOM      8  C   UNL     1      43.662   3.569  11.392  0.00  0.00    +0.000 C 
BRANCH   8   9
ATOM      9  C   UNL     1      44.334   2.694  10.321  0.00  0.00    +0.000 C 
BRANCH   9  10
ATOM     10  N   UNL     1      44.298   3.319   9.003  0.00  0.00    +0.000 N 
ATOM     11  C   UNL     1      45.351   2.898   8.188  0.00  0.00    +0.000 A 
ATOM     12  N   UNL     1      45.862   1.667   8.347  0.00  0.00    +0.000 NA
ATOM     13  C   UNL     1      46.909   1.323   7.579  0.00  0.00    +0.000 A 
ATOM     14  C   UNL     1      47.464   2.159   6.646  0.00  0.00    +0.000 A 
ATOM     15  C   UNL     1      46.868   3.392   6.544  0.00  0.00    +0.000 A 
ATOM     16  N   UNL     1      45.825   3.787   7.304  0.00  0.00    +0.000 NA
ATOM     17  H   UNL     1      44.327   4.337   8.985  0.00  0.00    +0.000 HD
ENDBRANCH   9  10
ENDBRANCH   8   9
ENDBRANCH   5   8
ENDBRANCH   1   2
BRANCH   1  20
ATOM     18  C   UNL     1      48.571   8.811  14.061  0.00  0.00    +0.000 C 
ATOM     19  O   UNL     1      48.083   9.183  15.127  0.00  0.00    +0.000 OA
ATOM     20  N   UNL     1      47.772   8.479  12.999  0.00  0.00    +0.000 N 
ATOM     21  H   UNL     1      48.183   8.197  12.118  0.00  0.00    +0.000 HD
BRANCH  18  29
ATOM     22  C   UNL     1      51.072   7.130  15.749  0.00  0.00    +0.000 A 
ATOM     23  N   UNL     1      52.224   6.636  16.243  0.00  0.00    +0.000 NA
ATOM     24  C   UNL     1      53.364   6.965  15.630  0.00  0.00    +0.000 A 
ATOM     25  N   UNL     1      53.500   7.741  14.563  0.00  0.00    +0.000 NA
ATOM     26  C   UNL     1      52.330   8.228  14.115  0.00  0.00    +0.000 A 
ATOM     27  S   UNL     1      52.312   9.239  12.750  0.00  0.00    +0.000 S 
ATOM     28  C   UNL     1      50.624   9.409  12.838  0.00  0.00    +0.000 A 
ATOM     29  C   UNL     1      50.035   8.712  13.889  0.00  0.00    +0.000 A 
ATOM     30  C   UNL     1      51.064   7.998  14.641  0.00  0.00    +0.000 A 
BRANCH  22  32
ATOM     31  C   UNL     1      49.811   7.296  17.691  0.00  0.00    +0.000 C 
ATOM     32  O   UNL     1      49.895   6.762  16.371  0.00  0.00    +0.000 OA
ENDBRANCH  22  32
ENDBRANCH  18  29
ENDBRANCH   1  20
TORSDOF 7
ENDMDL
MODEL 8
REMARK VINA RESULT:    -6.390      2.106      3.742
REMARK INTER + INTRA:         -10.071
REMARK INTER:                  -9.131
REMARK INTRA:                  -0.940
REMARK UNBOUND:                -1.067
REMARK  Name = 
REMARK  8 active torsions:
REMARK  status: ('A' for Active; 'I' for Inactive)
REMARK    1  A    between atoms: C_1  and  O_2
REMARK    2  A    between atoms: O_2  and  C_3
REMARK    3  A    between atoms: C_10  and  C_11
REMARK    4  A    between atoms: N_13  and  C_14
REMARK    5  A    between atoms: C_14  and  C_15
REMARK    6  A    between atoms: C_18  and  C_19
REMARK    7  A    between atoms: C_19  and  C_20
REMARK    8  A    between atoms: C_20  and  N_21
REMARK                            x       y       z     vdW  Elec       q    Type
REMARK                         _______ _______ _______ _____ _____    ______ ____
ROOT
ATOM      1  C   UNL     1      47.537   4.967  14.536  0.00  0.00    +0.000 C 
ENDROOT
BRANCH   1   2
ATOM      2  C   UNL     1      46.482   5.007  13.455  0.00  0.00    +0.000 A 
ATOM      3  C   UNL     1      45.494   4.019  13.396  0.00  0.00    +0.000 A 
ATOM      4  C   UNL     1      44.566   3.989  12.347  0.00  0.00    +0.000 A 
ATOM      5  C   UNL     1      44.592   4.951  11.327  0.00  0.00    +0.000 A 
ATOM      6  C   UNL     1      45.551   5.972  11.420  0.00  0.00    +0.000 A 
ATOM      7  C   UNL     1      46.491   5.996  12.463  0.00  0.00    +0.000 A 
BRANCH   5   8
ATOM      8  C   UNL     1      43.655   4.927  10.128  0.00  0.00    +0.000 C 
BRANCH   8   9
ATOM      9  C   UNL     1      44.059   3.999   8.971  0.00  0.00    +0.000 C 
BRANCH   9  10
ATOM     10  N   UNL     1      45.017   2.983   9.394  0.00  0.00    +0.000 N 
ATOM     11  C   UNL     1      45.887   2.614   8.365  0.00  0.00    +0.000 A 
ATOM     12  N   UNL     1      46.212   3.509   7.419  0.00  0.00    +0.000 NA
ATOM     13  C   UNL     1      47.009   3.097   6.419  0.00  0.00    +0.000 A 
ATOM     14  C   UNL     1      47.505   1.823   6.330  0.00  0.00    +0.000 A 
ATOM     15  C   UNL     1      47.130   0.982   7.349  0.00  0.00    +0.000 A 
ATOM     16  N   UNL     1      46.320   1.347   8.365  0.00  0.00    +0.000 NA
ATOM     17  H   UNL     1      44.625   2.112   9.747  0.00  0.00    +0.000 HD
ENDBRANCH   9  10
ENDBRANCH   8   9
ENDBRANCH   5   8
ENDBRANCH   1   2
BRANCH   1  20
ATOM     18  C   UNL     1      48.943   6.506  15.852  0.00  0.00    +0.000 C 
ATOM     19  O   UNL     1      49.461   5.559  16.441  0.00  0.00    +0.000 OA
ATOM     20  N   UNL     1      47.973   6.299  14.905  0.00  0.00    +0.000 N 
ATOM     21  H   UNL     1      47.535   7.084  14.442  0.00  0.00    +0.000 HD
BRANCH  18  29
ATOM     22  C   UNL     1      49.781   9.220  13.887  0.00  0.00    +0.000 A 
ATOM     23  N   UNL     1      50.189  10.396  13.373  0.00  0.00    +0.000 NA
ATOM     24  C   UNL     1      50.493  11.382  14.221  0.00  0.00    +0.000 A 
ATOM     25  N   UNL     1      50.439  11.338  15.545  0.00  0.00    +0.000 NA
ATOM     26  C   UNL     1      50.047  10.142  16.017  0.00  0.00    +0.000 A 
ATOM     27  S   UNL     1      49.913   9.906  17.693  0.00  0.00    +0.000 S 
ATOM     28  C   UNL     1      49.422   8.294  17.476  0.00  0.00    +0.000 A 
ATOM     29  C   UNL     1      49.344   7.897  16.145  0.00  0.00    +0.000 A 
ATOM     30  C   UNL     1      49.708   9.015  15.277  0.00  0.00    +0.000 A 
BRANCH  22  32
ATOM     31  C   UNL     1      48.913   8.744  11.787  0.00  0.00    +0.000 C 
ATOM     32  O   UNL     1      49.440   8.215  13.002  0.00  0.00    +0.000 OA
ENDBRANCH  22  32
ENDBRANCH  18  29
ENDBRANCH   1  20
TORSDOF 7
ENDMDL
MODEL 9
REMARK VINA RESULT:    -6.297      3.707      9.325
REMARK INTER + INTRA:          -9.941
REMARK INTER:                  -8.823
REMARK INTRA:                  -1.118
REMARK UNBOUND:                -1.067
REMARK  Name = 
REMARK  8 active torsions:
REMARK  status: ('A' for Active; 'I' for Inactive)
REMARK    1  A    between atoms: C_1  and  O_2
REMARK    2  A    between atoms: O_2  and  C_3
REMARK    3  A    between atoms: C_10  and  C_11
REMARK    4  A    between atoms: N_13  and  C_14
REMARK    5  A    between atoms: C_14  and  C_15
REMARK    6  A    between atoms: C_18  and  C_19
REMARK    7  A    between atoms: C_19  and  C_20
REMARK    8  A    between atoms: C_20  and  N_21
REMARK                            x       y       z     vdW  Elec       q    Type
REMARK                         _______ _______ _______ _____ _____    ______ ____
ROOT
ATOM      1  C   UNL     1      47.501   3.503  16.516  0.00  0.00    +0.000 C 
ENDROOT
BRANCH   1   2
ATOM      2  C   UNL     1      48.270   4.105  17.668  0.00  0.00    +0.000 A 
ATOM      3  C   UNL     1      47.636   4.973  18.563  0.00  0.00    +0.000 A 
ATOM      4  C   UNL     1      48.356   5.613  19.580  0.00  0.00    +0.000 A 
ATOM      5  C   UNL     1      49.733   5.398  19.739  0.00  0.00    +0.000 A 
ATOM      6  C   UNL     1      50.353   4.484  18.873  0.00  0.00    +0.000 A 
ATOM      7  C   UNL     1      49.636   3.853  17.845  0.00  0.00    +0.000 A 
BRANCH   5   8
ATOM      8  C   UNL     1      50.578   6.118  20.781  0.00  0.00    +0.000 C 
BRANCH   8   9
ATOM      9  C   UNL     1      50.386   7.641  20.874  0.00  0.00    +0.000 C 
BRANCH   9  10
ATOM     10  N   UNL     1      50.941   8.334  19.718  0.00  0.00    +0.000 N 
ATOM     11  C   UNL     1      49.948   8.803  18.853  0.00  0.00    +0.000 A 
ATOM     12  N   UNL     1      48.748   9.148  19.346  0.00  0.00    +0.000 NA
ATOM     13  C   UNL     1      47.806   9.541  18.473  0.00  0.00    +0.000 A 
ATOM     14  C   UNL     1      48.017   9.614  17.122  0.00  0.00    +0.000 A 
ATOM     15  C   UNL     1      49.277   9.255  16.710  0.00  0.00    +0.000 A 
ATOM     16  N   UNL     1      50.251   8.839  17.548  0.00  0.00    +0.000 NA
ATOM     17  H   UNL     1      51.582   7.799  19.134  0.00  0.00    +0.000 HD
ENDBRANCH   9  10
ENDBRANCH   8   9
ENDBRANCH   5   8
ENDBRANCH   1   2
BRANCH   1  20
ATOM     18  C   UNL     1      46.851   4.319  14.283  0.00  0.00    +0.000 C 
ATOM     19  O   UNL     1      47.205   3.258  13.771  0.00  0.00    +0.000 OA
ATOM     20  N   UNL     1      46.978   4.525  15.632  0.00  0.00    +0.000 N 
ATOM     21  H   UNL     1      46.706   5.409  16.042  0.00  0.00    +0.000 HD
BRANCH  18  29
ATOM     22  C   UNL     1      43.881   4.722  12.569  0.00  0.00    +0.000 A 
ATOM     23  N   UNL     1      42.852   5.115  11.791  0.00  0.00    +0.000 NA
ATOM     24  C   UNL     1      42.927   6.313  11.207  0.00  0.00    +0.000 A 
ATOM     25  N   UNL     1      43.920   7.186  11.304  0.00  0.00    +0.000 NA
ATOM     26  C   UNL     1      44.932   6.748  12.072  0.00  0.00    +0.000 A 
ATOM     27  S   UNL     1      46.289   7.740  12.315  0.00  0.00    +0.000 S 
ATOM     28  C   UNL     1      47.033   6.567  13.293  0.00  0.00    +0.000 A 
ATOM     29  C   UNL     1      46.282   5.407  13.462  0.00  0.00    +0.000 A 
ATOM     30  C   UNL     1      45.020   5.530  12.737  0.00  0.00    +0.000 A 
BRANCH  22  32
ATOM     31  C   UNL     1      43.600   2.440  12.249  0.00  0.00    +0.000 C 
ATOM     32  O   UNL     1      43.782   3.494  13.193  0.00  0.00    +0.000 OA
ENDBRANCH  22  32
ENDBRANCH  18  29
ENDBRANCH   1  20
TORSDOF 7
ENDMDL
