MODEL 1
REMARK VINA RESULT:    -8.018      0.000      0.000
REMARK INTER + INTRA:         -12.273
REMARK INTER:                 -11.299
REMARK INTRA:                  -0.974
REMARK UNBOUND:                -0.974
REMARK  Name = 
REMARK  8 active torsions:
REMARK  status: ('A' for Active; 'I' for Inactive)
REMARK    1  A    between atoms: C_1  and  O_2
REMARK    2  A    between atoms: O_2  and  C_3
REMARK    3  A    between atoms: C_10  and  C_11
REMARK    4  A    between atoms: N_13  and  C_14
REMARK    5  A    between atoms: C_14  and  C_15
REMARK    6  A    between atoms: N_19  and  C_20
REMARK    7  A    between atoms: C_20  and  C_21
REMARK    8  A    between atoms: C_21  and  N_22
REMARK                            x       y       z     vdW  Elec       q    Type
REMARK                         _______ _______ _______ _____ _____    ______ ____
ROOT
ATOM      1  C   UNL     1      47.693   7.501  13.459  0.00  0.00    +0.000 C 
ENDROOT
BRANCH   1   2
ATOM      2  C   UNL     1      46.975   6.269  12.983  0.00  0.00    +0.000 A 
ATOM      3  C   UNL     1      46.961   5.084  13.713  0.00  0.00    +0.000 A 
ATOM      4  C   UNL     1      46.240   3.982  13.238  0.00  0.00    +0.000 A 
ATOM      5  C   UNL     1      45.569   4.061  12.017  0.00  0.00    +0.000 A 
ATOM      6  N   UNL     1      44.771   2.980  11.619  0.00  0.00    +0.000 N 
ATOM      7  N   UNL     1      45.609   5.190  11.284  0.00  0.00    +0.000 NA
ATOM      8  C   UNL     1      46.299   6.252  11.769  0.00  0.00    +0.000 A 
ATOM      9  H   UNL     1      45.284   2.103  11.664  0.00  0.00    +0.000 HD
BRANCH   6  10
ATOM     10  C   UNL     1      44.068   3.119  10.339  0.00  0.00    +0.000 C 
BRANCH  10  11
ATOM     11  C   UNL     1      44.473   2.052   9.289  0.00  0.00    +0.000 C 
BRANCH  11  12
ATOM     12  N   UNL     1      45.736   2.315   8.550  0.00  0.00    +0.000 NA
ATOM     13  C   UNL     1      46.275   1.090   7.935  0.00  0.00    +0.000 C 
ATOM     14  C   UNL     1      47.608   1.367   7.239  0.00  0.00    +0.000 C 
ATOM     15  C   UNL     1      47.469   2.460   6.186  0.00  0.00    +0.000 C 
ATOM     16  C   UNL     1      46.807   3.694   6.785  0.00  0.00    +0.000 C 
ATOM     17  C   UNL     1      45.502   3.333   7.503  0.00  0.00    +0.000 C 
ENDBRANCH  11  12
ENDBRANCH  10  11
ENDBRANCH   6  10
ENDBRANCH   1   2
BRANCH   1  20
ATOM     18  C   UNL     1      48.931   7.161  15.574  0.00  0.00    +0.000 C 
ATOM     19  O   UNL     1      49.934   6.781  14.977  0.00  0.00    +0.000 OA
ATOM     20  N   UNL     1      47.797   7.529  14.894  0.00  0.00    +0.000 N 
ATOM     21  H   UNL     1      46.981   7.819  15.415  0.00  0.00    +0.000 HD
BRANCH  18  29
ATOM     22  C   UNL     1      49.025   4.779  18.058  0.00  0.00    +0.000 A 
ATOM     23  N   UNL     1      49.073   4.070  19.201  0.00  0.00    +0.000 NA
ATOM     24  C   UNL     1      49.013   4.739  20.356  0.00  0.00    +0.000 A 
ATOM     25  N   UNL     1      48.908   6.056  20.514  0.00  0.00    +0.000 NA
ATOM     26  C   UNL     1      48.877   6.725  19.348  0.00  0.00    +0.000 A 
ATOM     27  S   UNL     1      48.741   8.418  19.354  0.00  0.00    +0.000 S 
ATOM     28  C   UNL     1      48.774   8.478  17.655  0.00  0.00    +0.000 A 
ATOM     29  C   UNL     1      48.889   7.232  17.048  0.00  0.00    +0.000 A 
ATOM     30  C   UNL     1      48.941   6.183  18.068  0.00  0.00    +0.000 A 
BRANCH  22  32
ATOM     31  C   UNL     1      48.066   3.115  16.725  0.00  0.00    +0.000 C 
ATOM     32  O   UNL     1      49.097   4.090  16.867  0.00  0.00    +0.000 OA
ENDBRANCH  22  32
ENDBRANCH  18  29
ENDBRANCH   1  20
TORSDOF 7
ENDMDL
MODEL 2
REMARK VINA RESULT:    -7.751      1.351      2.028
REMARK INTER + INTRA:         -11.897
REMARK INTER:                 -10.968
REMARK INTRA:                  -0.928
REMARK UNBOUND:                -0.974
REMARK  Name = 
REMARK  8 active torsions:
REMARK  status: ('A' for Active; 'I' for Inactive)
REMARK    1  A    between atoms: C_1  and  O_2
REMARK    2  A    between atoms: O_2  and  C_3
REMARK    3  A    between atoms: C_10  and  C_11
REMARK    4  A    between atoms: N_13  and  C_14
REMARK    5  A    between atoms: C_14  and  C_15
REMARK    6  A    between atoms: N_19  and  C_20
REMARK    7  A    between atoms: C_20  and  C_21
REMARK    8  A    between atoms: C_21  and  N_22
REMARK                            x       y       z     vdW  Elec       q    Type
REMARK                         _______ _______ _______ _____ _____    ______ ____
ROOT
ATOM      1  C   UNL     1      47.774   8.757  13.881  0.00  0.00    +0.000 C 
ENDROOT
BRANCH   1   2
ATOM      2  C   UNL     1      46.873   7.958  12.980  0.00  0.00    +0.000 A 
ATOM      3  C   UNL     1      45.598   8.392  12.623  0.00  0.00    +0.000 A 
ATOM      4  C   UNL     1      44.822   7.624  11.748  0.00  0.00    +0.000 A 
ATOM      5  C   UNL     1      45.310   6.409  11.264  0.00  0.00    +0.000 A 
ATOM      6  N   UNL     1      44.555   5.716  10.308  0.00  0.00    +0.000 N 
ATOM      7  N   UNL     1      46.525   5.963  11.634  0.00  0.00    +0.000 NA
ATOM      8  C   UNL     1      47.269   6.728  12.470  0.00  0.00    +0.000 A 
ATOM      9  H   UNL     1      43.592   5.594  10.613  0.00  0.00    +0.000 HD
BRANCH   6  10
ATOM     10  C   UNL     1      45.120   4.456   9.813  0.00  0.00    +0.000 C 
BRANCH  10  11
ATOM     11  C   UNL     1      44.479   3.966   8.489  0.00  0.00    +0.000 C 
BRANCH  11  12
ATOM     12  N   UNL     1      45.282   2.996   7.699  0.00  0.00    +0.000 NA
ATOM     13  C   UNL     1      46.411   3.651   7.015  0.00  0.00    +0.000 C 
ATOM     14  C   UNL     1      47.184   2.650   6.155  0.00  0.00    +0.000 C 
ATOM     15  C   UNL     1      47.689   1.476   6.985  0.00  0.00    +0.000 C 
ATOM     16  C   UNL     1      46.549   0.862   7.786  0.00  0.00    +0.000 C 
ATOM     17  C   UNL     1      45.793   1.929   8.587  0.00  0.00    +0.000 C 
ENDBRANCH  11  12
ENDBRANCH  10  11
ENDBRANCH   6  10
ENDBRANCH   1   2
BRANCH   1  20
ATOM     18  C   UNL     1      49.023   7.402  15.531  0.00  0.00    +0.000 C 
ATOM     19  O   UNL     1      49.962   7.244  14.757  0.00  0.00    +0.000 OA
ATOM     20  N   UNL     1      47.919   8.132  15.169  0.00  0.00    +0.000 N 
ATOM     21  H   UNL     1      47.155   8.229  15.822  0.00  0.00    +0.000 HD
BRANCH  18  29
ATOM     22  C   UNL     1      48.284   4.267  16.744  0.00  0.00    +0.000 A 
ATOM     23  N   UNL     1      48.088   3.145  17.462  0.00  0.00    +0.000 NA
ATOM     24  C   UNL     1      48.289   3.202  18.781  0.00  0.00    +0.000 A 
ATOM     25  N   UNL     1      48.668   4.264  19.487  0.00  0.00    +0.000 NA
ATOM     26  C   UNL     1      48.866   5.357  18.730  0.00  0.00    +0.000 A 
ATOM     27  S   UNL     1      49.350   6.810  19.462  0.00  0.00    +0.000 S 
ATOM     28  C   UNL     1      49.380   7.616  17.964  0.00  0.00    +0.000 A 
ATOM     29  C   UNL     1      49.029   6.812  16.885  0.00  0.00    +0.000 A 
ATOM     30  C   UNL     1      48.712   5.461  17.351  0.00  0.00    +0.000 A 
BRANCH  22  32
ATOM     31  C   UNL     1      46.737   4.462  15.002  0.00  0.00    +0.000 C 
ATOM     32  O   UNL     1      48.086   4.204  15.382  0.00  0.00    +0.000 OA
ENDBRANCH  22  32
ENDBRANCH  18  29
ENDBRANCH   1  20
TORSDOF 7
ENDMDL
MODEL 3
REMARK VINA RESULT:    -7.536      2.084      2.674
REMARK INTER + INTRA:         -11.593
REMARK INTER:                 -10.573
REMARK INTRA:                  -1.020
REMARK UNBOUND:                -0.974
REMARK  Name = 
REMARK  8 active torsions:
REMARK  status: ('A' for Active; 'I' for Inactive)
REMARK    1  A    between atoms: C_1  and  O_2
REMARK    2  A    between atoms: O_2  and  C_3
REMARK    3  A    between atoms: C_10  and  C_11
REMARK    4  A    between atoms: N_13  and  C_14
REMARK    5  A    between atoms: C_14  and  C_15
REMARK    6  A    between atoms: N_19  and  C_20
REMARK    7  A    between atoms: C_20  and  C_21
REMARK    8  A    between atoms: C_21  and  N_22
REMARK                            x       y       z     vdW  Elec       q    Type
REMARK                         _______ _______ _______ _____ _____    ______ ____
ROOT
ATOM      1  C   UNL     1      48.387   7.543  14.956  0.00  0.00    +0.000 C 
ENDROOT
BRANCH   1   2
ATOM      2  C   UNL     1      47.532   6.901  13.900  0.00  0.00    +0.000 A 
ATOM      3  C   UNL     1      47.067   7.599  12.788  0.00  0.00    +0.000 A 
ATOM      4  C   UNL     1      46.308   6.936  11.816  0.00  0.00    +0.000 A 
ATOM      5  C   UNL     1      45.988   5.587  11.981  0.00  0.00    +0.000 A 
ATOM      6  N   UNL     1      45.320   4.925  10.943  0.00  0.00    +0.000 N 
ATOM      7  N   UNL     1      46.400   4.913  13.072  0.00  0.00    +0.000 NA
ATOM      8  C   UNL     1      47.148   5.569  13.994  0.00  0.00    +0.000 A 
ATOM      9  H   UNL     1      44.488   5.434  10.652  0.00  0.00    +0.000 HD
BRANCH   6  10
ATOM     10  C   UNL     1      45.025   3.503  11.154  0.00  0.00    +0.000 C 
BRANCH  10  11
ATOM     11  C   UNL     1      44.682   2.740   9.847  0.00  0.00    +0.000 C 
BRANCH  11  12
ATOM     12  N   UNL     1      45.772   2.655   8.840  0.00  0.00    +0.000 NA
ATOM     13  C   UNL     1      45.940   1.283   8.332  0.00  0.00    +0.000 C 
ATOM     14  C   UNL     1      47.109   1.203   7.349  0.00  0.00    +0.000 C 
ATOM     15  C   UNL     1      46.925   2.170   6.185  0.00  0.00    +0.000 C 
ATOM     16  C   UNL     1      46.636   3.574   6.702  0.00  0.00    +0.000 C 
ATOM     17  C   UNL     1      45.484   3.569   7.713  0.00  0.00    +0.000 C 
ENDBRANCH  11  12
ENDBRANCH  10  11
ENDBRANCH   6  10
ENDBRANCH   1   2
BRANCH   1  20
ATOM     18  C   UNL     1      49.597   6.530  16.861  0.00  0.00    +0.000 C 
ATOM     19  O   UNL     1      49.043   7.273  17.666  0.00  0.00    +0.000 OA
ATOM     20  N   UNL     1      49.323   6.606  15.519  0.00  0.00    +0.000 N 
ATOM     21  H   UNL     1      49.810   5.993  14.879  0.00  0.00    +0.000 HD
BRANCH  18  29
ATOM     22  C   UNL     1      49.674   3.090  16.752  0.00  0.00    +0.000 A 
ATOM     23  N   UNL     1      49.968   1.777  16.804  0.00  0.00    +0.000 NA
ATOM     24  C   UNL     1      51.141   1.418  17.333  0.00  0.00    +0.000 A 
ATOM     25  N   UNL     1      52.075   2.224  17.830  0.00  0.00    +0.000 NA
ATOM     26  C   UNL     1      51.747   3.525  17.747  0.00  0.00    +0.000 A 
ATOM     27  S   UNL     1      52.820   4.701  18.337  0.00  0.00    +0.000 S 
ATOM     28  C   UNL     1      51.765   5.960  17.893  0.00  0.00    +0.000 A 
ATOM     29  C   UNL     1      50.588   5.524  17.293  0.00  0.00    +0.000 A 
ATOM     30  C   UNL     1      50.578   4.062  17.216  0.00  0.00    +0.000 A 
BRANCH  22  32
ATOM     31  C   UNL     1      47.407   3.500  17.145  0.00  0.00    +0.000 C 
ATOM     32  O   UNL     1      48.470   3.461  16.196  0.00  0.00    +0.000 OA
ENDBRANCH  22  32
ENDBRANCH  18  29
ENDBRANCH   1  20
TORSDOF 7
ENDMDL
MODEL 4
REMARK VINA RESULT:    -7.202      1.570      3.091
REMARK INTER + INTRA:         -11.123
REMARK INTER:                  -9.918
REMARK INTRA:                  -1.205
REMARK UNBOUND:                -0.974
REMARK  Name = 
REMARK  8 active torsions:
REMARK  status: ('A' for Active; 'I' for Inactive)
REMARK    1  A    between atoms: C_1  and  O_2
REMARK    2  A    between atoms: O_2  and  C_3
REMARK    3  A    between atoms: C_10  and  C_11
REMARK    4  A    between atoms: N_13  and  C_14
REMARK    5  A    between atoms: C_14  and  C_15
REMARK    6  A    between atoms: N_19  and  C_20
REMARK    7  A    between atoms: C_20  and  C_21
REMARK    8  A    between atoms: C_21  and  N_22
REMARK                            x       y       z     vdW  Elec       q    Type
REMARK                         _______ _______ _______ _____ _____    ______ ____
ROOT
ATOM      1  C   UNL     1      47.494   4.030  15.305  0.00  0.00    +0.000 C 
ENDROOT
BRANCH   1   2
ATOM      2  C   UNL     1      46.776   4.372  14.029  0.00  0.00    +0.000 A 
ATOM      3  C   UNL     1      46.721   5.670  13.528  0.00  0.00    +0.000 A 
ATOM      4  C   UNL     1      46.072   5.920  12.312  0.00  0.00    +0.000 A 
ATOM      5  C   UNL     1      45.451   4.877  11.625  0.00  0.00    +0.000 A 
ATOM      6  N   UNL     1      44.903   5.138  10.362  0.00  0.00    +0.000 N 
ATOM      7  N   UNL     1      45.465   3.625  12.121  0.00  0.00    +0.000 NA
ATOM      8  C   UNL     1      46.112   3.399  13.292  0.00  0.00    +0.000 A 
ATOM      9  H   UNL     1      44.280   5.942  10.387  0.00  0.00    +0.000 HD
BRANCH   6  10
ATOM     10  C   UNL     1      44.280   4.004   9.670  0.00  0.00    +0.000 C 
BRANCH  10  11
ATOM     11  C   UNL     1      44.407   4.075   8.125  0.00  0.00    +0.000 C 
BRANCH  11  12
ATOM     12  N   UNL     1      45.257   3.031   7.495  0.00  0.00    +0.000 NA
ATOM     13  C   UNL     1      46.439   3.613   6.836  0.00  0.00    +0.000 C 
ATOM     14  C   UNL     1      47.263   2.532   6.136  0.00  0.00    +0.000 C 
ATOM     15  C   UNL     1      47.696   1.443   7.112  0.00  0.00    +0.000 C 
ATOM     16  C   UNL     1      46.494   0.914   7.884  0.00  0.00    +0.000 C 
ATOM     17  C   UNL     1      45.692   2.055   8.519  0.00  0.00    +0.000 C 
ENDBRANCH  11  12
ENDBRANCH  10  11
ENDBRANCH   6  10
ENDBRANCH   1   2
BRANCH   1  20
ATOM     18  C   UNL     1      48.272   5.168  17.359  0.00  0.00    +0.000 C 
ATOM     19  O   UNL     1      48.970   4.210  17.679  0.00  0.00    +0.000 OA
ATOM     20  N   UNL     1      47.523   5.149  16.210  0.00  0.00    +0.000 N 
ATOM     21  H   UNL     1      46.943   5.945  15.984  0.00  0.00    +0.000 HD
BRANCH  18  29
ATOM     22  C   UNL     1      48.596   8.527  16.684  0.00  0.00    +0.000 A 
ATOM     23  N   UNL     1      48.645   9.873  16.688  0.00  0.00    +0.000 NA
ATOM     24  C   UNL     1      48.460  10.503  17.852  0.00  0.00    +0.000 A 
ATOM     25  N   UNL     1      48.228   9.944  19.036  0.00  0.00    +0.000 NA
ATOM     26  C   UNL     1      48.173   8.601  18.984  0.00  0.00    +0.000 A 
ATOM     27  S   UNL     1      47.890   7.716  20.404  0.00  0.00    +0.000 S 
ATOM     28  C   UNL     1      47.959   6.240  19.560  0.00  0.00    +0.000 A 
ATOM     29  C   UNL     1      48.195   6.382  18.196  0.00  0.00    +0.000 A 
ATOM     30  C   UNL     1      48.332   7.799  17.858  0.00  0.00    +0.000 A 
BRANCH  22  32
ATOM     31  C   UNL     1      50.143   7.584  15.208  0.00  0.00    +0.000 C 
ATOM     32  O   UNL     1      48.776   7.879  15.482  0.00  0.00    +0.000 OA
ENDBRANCH  22  32
ENDBRANCH  18  29
ENDBRANCH   1  20
TORSDOF 7
ENDMDL
MODEL 5
REMARK VINA RESULT:    -7.074      1.570      2.452
REMARK INTER + INTRA:         -10.943
REMARK INTER:                  -9.924
REMARK INTRA:                  -1.020
REMARK UNBOUND:                -0.974
REMARK  Name = 
REMARK  8 active torsions:
REMARK  status: ('A' for Active; 'I' for Inactive)
REMARK    1  A    between atoms: C_1  and  O_2
REMARK    2  A    between atoms: O_2  and  C_3
REMARK    3  A    between atoms: C_10  and  C_11
REMARK    4  A    between atoms: N_13  and  C_14
REMARK    5  A    between atoms: C_14  and  C_15
REMARK    6  A    between atoms: N_19  and  C_20
REMARK    7  A    between atoms: C_20  and  C_21
REMARK    8  A    between atoms: C_21  and  N_22
REMARK                            x       y       z     vdW  Elec       q    Type
REMARK                         _______ _______ _______ _____ _____    ______ ____
ROOT
ATOM      1  C   UNL     1      47.600   4.276  15.541  0.00  0.00    +0.000 C 
ENDROOT
BRANCH   1   2
ATOM      2  C   UNL     1      46.752   4.429  14.309  0.00  0.00    +0.000 A 
ATOM      3  C   UNL     1      46.180   5.645  13.942  0.00  0.00    +0.000 A 
ATOM      4  C   UNL     1      45.435   5.735  12.761  0.00  0.00    +0.000 A 
ATOM      5  C   UNL     1      45.235   4.600  11.973  0.00  0.00    +0.000 A 
ATOM      6  N   UNL     1      44.576   4.744  10.745  0.00  0.00    +0.000 N 
ATOM      7  N   UNL     1      45.751   3.412  12.339  0.00  0.00    +0.000 NA
ATOM      8  C   UNL     1      46.484   3.348  13.479  0.00  0.00    +0.000 A 
ATOM      9  H   UNL     1      43.693   5.238  10.853  0.00  0.00    +0.000 HD
BRANCH   6  10
ATOM     10  C   UNL     1      44.410   3.527   9.943  0.00  0.00    +0.000 C 
BRANCH  10  11
ATOM     11  C   UNL     1      44.438   3.784   8.413  0.00  0.00    +0.000 C 
BRANCH  11  12
ATOM     12  N   UNL     1      45.304   2.873   7.619  0.00  0.00    +0.000 NA
ATOM     13  C   UNL     1      46.386   3.604   6.938  0.00  0.00    +0.000 C 
ATOM     14  C   UNL     1      47.223   2.662   6.072  0.00  0.00    +0.000 C 
ATOM     15  C   UNL     1      47.806   1.520   6.896  0.00  0.00    +0.000 C 
ATOM     16  C   UNL     1      46.709   0.828   7.696  0.00  0.00    +0.000 C 
ATOM     17  C   UNL     1      45.885   1.838   8.502  0.00  0.00    +0.000 C 
ENDBRANCH  11  12
ENDBRANCH  10  11
ENDBRANCH   6  10
ENDBRANCH   1   2
BRANCH   1  20
ATOM     18  C   UNL     1      48.690   6.408  16.163  0.00  0.00    +0.000 C 
ATOM     19  O   UNL     1      49.618   6.211  15.384  0.00  0.00    +0.000 OA
ATOM     20  N   UNL     1      47.667   5.503  16.291  0.00  0.00    +0.000 N 
ATOM     21  H   UNL     1      46.927   5.684  16.955  0.00  0.00    +0.000 HD
BRANCH  18  29
ATOM     22  C   UNL     1      47.738   6.976  19.422  0.00  0.00    +0.000 A 
ATOM     23  N   UNL     1      47.460   7.459  20.647  0.00  0.00    +0.000 NA
ATOM     24  C   UNL     1      47.635   8.766  20.860  0.00  0.00    +0.000 A 
ATOM     25  N   UNL     1      48.061   9.670  19.982  0.00  0.00    +0.000 NA
ATOM     26  C   UNL     1      48.340   9.143  18.777  0.00  0.00    +0.000 A 
ATOM     27  S   UNL     1      48.893  10.150  17.527  0.00  0.00    +0.000 S 
ATOM     28  C   UNL     1      49.005   8.839  16.449  0.00  0.00    +0.000 A 
ATOM     29  C   UNL     1      48.631   7.620  17.004  0.00  0.00    +0.000 A 
ATOM     30  C   UNL     1      48.224   7.809  18.398  0.00  0.00    +0.000 A 
BRANCH  22  32
ATOM     31  C   UNL     1      48.572   4.831  19.832  0.00  0.00    +0.000 C 
ATOM     32  O   UNL     1      47.568   5.626  19.205  0.00  0.00    +0.000 OA
ENDBRANCH  22  32
ENDBRANCH  18  29
ENDBRANCH   1  20
TORSDOF 7
ENDMDL
MODEL 6
REMARK VINA RESULT:    -7.061      2.150      2.774
REMARK INTER + INTRA:         -10.924
REMARK INTER:                  -9.747
REMARK INTRA:                  -1.177
REMARK UNBOUND:                -0.974
REMARK  Name = 
REMARK  8 active torsions:
REMARK  status: ('A' for Active; 'I' for Inactive)
REMARK    1  A    between atoms: C_1  and  O_2
REMARK    2  A    between atoms: O_2  and  C_3
REMARK    3  A    between atoms: C_10  and  C_11
REMARK    4  A    between atoms: N_13  and  C_14
REMARK    5  A    between atoms: C_14  and  C_15
REMARK    6  A    between atoms: N_19  and  C_20
REMARK    7  A    between atoms: C_20  and  C_21
REMARK    8  A    between atoms: C_21  and  N_22
REMARK                            x       y       z     vdW  Elec       q    Type
REMARK                         _______ _______ _______ _____ _____    ______ ____
ROOT
ATOM      1  C   UNL     1      49.060   8.003  12.558  0.00  0.00    +0.000 C 
ENDROOT
BRANCH   1   2
ATOM      2  C   UNL     1      47.663   7.454  12.639  0.00  0.00    +0.000 A 
ATOM      3  C   UNL     1      46.537   8.273  12.637  0.00  0.00    +0.000 A 
ATOM      4  C   UNL     1      45.260   7.701  12.673  0.00  0.00    +0.000 A 
ATOM      5  C   UNL     1      45.118   6.315  12.750  0.00  0.00    +0.000 A 
ATOM      6  N   UNL     1      43.830   5.767  12.677  0.00  0.00    +0.000 N 
ATOM      7  N   UNL     1      46.201   5.516  12.792  0.00  0.00    +0.000 NA
ATOM      8  C   UNL     1      47.430   6.088  12.739  0.00  0.00    +0.000 A 
ATOM      9  H   UNL     1      43.202   6.207  13.346  0.00  0.00    +0.000 HD
BRANCH   6  10
ATOM     10  C   UNL     1      43.734   4.305  12.739  0.00  0.00    +0.000 C 
BRANCH  10  11
ATOM     11  C   UNL     1      43.359   3.650  11.384  0.00  0.00    +0.000 C 
BRANCH  11  12
ATOM     12  N   UNL     1      44.477   3.462  10.423  0.00  0.00    +0.000 NA
ATOM     13  C   UNL     1      44.384   2.169   9.723  0.00  0.00    +0.000 C 
ATOM     14  C   UNL     1      45.579   1.965   8.790  0.00  0.00    +0.000 C 
ATOM     15  C   UNL     1      45.694   3.098   7.777  0.00  0.00    +0.000 C 
ATOM     16  C   UNL     1      45.674   4.447   8.484  0.00  0.00    +0.000 C 
ATOM     17  C   UNL     1      44.476   4.562   9.433  0.00  0.00    +0.000 C 
ENDBRANCH  11  12
ENDBRANCH  10  11
ENDBRANCH   6  10
ENDBRANCH   1   2
BRANCH   1  20
ATOM     18  C   UNL     1      50.080   7.830  14.805  0.00  0.00    +0.000 C 
ATOM     19  O   UNL     1      49.465   8.812  15.209  0.00  0.00    +0.000 OA
ATOM     20  N   UNL     1      49.930   7.377  13.519  0.00  0.00    +0.000 N 
ATOM     21  H   UNL     1      50.465   6.577  13.210  0.00  0.00    +0.000 HD
BRANCH  18  29
ATOM     22  C   UNL     1      49.650   5.440  17.245  0.00  0.00    +0.000 A 
ATOM     23  N   UNL     1      49.763   4.495  18.197  0.00  0.00    +0.000 NA
ATOM     24  C   UNL     1      50.988   4.187  18.632  0.00  0.00    +0.000 A 
ATOM     25  N   UNL     1      52.138   4.718  18.227  0.00  0.00    +0.000 NA
ATOM     26  C   UNL     1      51.980   5.646  17.267  0.00  0.00    +0.000 A 
ATOM     27  S   UNL     1      53.341   6.436  16.630  0.00  0.00    +0.000 S 
ATOM     28  C   UNL     1      52.377   7.358  15.574  0.00  0.00    +0.000 A 
ATOM     29  C   UNL     1      51.016   7.091  15.677  0.00  0.00    +0.000 A 
ATOM     30  C   UNL     1      50.782   6.071  16.700  0.00  0.00    +0.000 A 
BRANCH  22  32
ATOM     31  C   UNL     1      47.737   4.649  16.158  0.00  0.00    +0.000 C 
ATOM     32  O   UNL     1      48.387   5.750  16.789  0.00  0.00    +0.000 OA
ENDBRANCH  22  32
ENDBRANCH  18  29
ENDBRANCH   1  20
TORSDOF 7
ENDMDL
MODEL 7
REMARK VINA RESULT:    -6.914      4.901      9.202
REMARK INTER + INTRA:         -10.717
REMARK INTER:                  -9.924
REMARK INTRA:                  -0.792
REMARK UNBOUND:                -0.974
REMARK  Name = 
REMARK  8 active torsions:
REMARK  status: ('A' for Active; 'I' for Inactive)
REMARK    1  A    between atoms: C_1  and  O_2
REMARK    2  A    between atoms: O_2  and  C_3
REMARK    3  A    between atoms: C_10  and  C_11
REMARK    4  A    between atoms: N_13  and  C_14
REMARK    5  A    between atoms: C_14  and  C_15
REMARK    6  A    between atoms: N_19  and  C_20
REMARK    7  A    between atoms: C_20  and  C_21
REMARK    8  A    between atoms: C_21  and  N_22
REMARK                            x       y       z     vdW  Elec       q    Type
REMARK                         _______ _______ _______ _____ _____    ______ ____
ROOT
ATOM      1  C   UNL     1      47.092   3.415  16.835  0.00  0.00    +0.000 C 
ENDROOT
BRANCH   1   2
ATOM      2  C   UNL     1      48.564   3.213  17.067  0.00  0.00    +0.000 A 
ATOM      3  C   UNL     1      49.365   4.184  17.663  0.00  0.00    +0.000 A 
ATOM      4  C   UNL     1      50.722   3.922  17.890  0.00  0.00    +0.000 A 
ATOM      5  C   UNL     1      51.276   2.706  17.487  0.00  0.00    +0.000 A 
ATOM      6  N   UNL     1      52.608   2.432  17.824  0.00  0.00    +0.000 N 
ATOM      7  N   UNL     1      50.517   1.777  16.876  0.00  0.00    +0.000 NA
ATOM      8  C   UNL     1      49.202   2.042  16.678  0.00  0.00    +0.000 A 
ATOM      9  H   UNL     1      53.225   3.191  17.545  0.00  0.00    +0.000 HD
BRANCH   6  10
ATOM     10  C   UNL     1      53.138   1.132  17.398  0.00  0.00    +0.000 C 
BRANCH  10  11
ATOM     11  C   UNL     1      54.383   0.676  18.202  0.00  0.00    +0.000 C 
BRANCH  11  12
ATOM     12  N   UNL     1      54.964  -0.636  17.810  0.00  0.00    +0.000 NA
ATOM     13  C   UNL     1      54.330  -1.752  18.534  0.00  0.00    +0.000 C 
ATOM     14  C   UNL     1      54.986  -3.084  18.169  0.00  0.00    +0.000 C 
ATOM     15  C   UNL     1      54.930  -3.339  16.667  0.00  0.00    +0.000 C 
ATOM     16  C   UNL     1      55.478  -2.140  15.904  0.00  0.00    +0.000 C 
ATOM     17  C   UNL     1      54.807  -0.838  16.353  0.00  0.00    +0.000 C 
ENDBRANCH  11  12
ENDBRANCH  10  11
ENDBRANCH   6  10
ENDBRANCH   1   2
BRANCH   1  20
ATOM     18  C   UNL     1      46.913   4.200  14.496  0.00  0.00    +0.000 C 
ATOM     19  O   UNL     1      47.186   3.088  14.055  0.00  0.00    +0.000 OA
ATOM     20  N   UNL     1      46.849   4.432  15.846  0.00  0.00    +0.000 N 
ATOM     21  H   UNL     1      46.640   5.363  16.179  0.00  0.00    +0.000 HD
BRANCH  18  29
ATOM     22  C   UNL     1      44.177   5.165  12.642  0.00  0.00    +0.000 A 
ATOM     23  N   UNL     1      43.260   5.773  11.866  0.00  0.00    +0.000 NA
ATOM     24  C   UNL     1      43.608   6.912  11.260  0.00  0.00    +0.000 A 
ATOM     25  N   UNL     1      44.784   7.531  11.333  0.00  0.00    +0.000 NA
ATOM     26  C   UNL     1      45.663   6.897  12.128  0.00  0.00    +0.000 A 
ATOM     27  S   UNL     1      47.220   7.541  12.339  0.00  0.00    +0.000 S 
ATOM     28  C   UNL     1      47.659   6.274  13.386  0.00  0.00    +0.000 A 
ATOM     29  C   UNL     1      46.648   5.344  13.600  0.00  0.00    +0.000 A 
ATOM     30  C   UNL     1      45.456   5.717  12.836  0.00  0.00    +0.000 A 
BRANCH  22  32
ATOM     31  C   UNL     1      43.641   2.906  12.375  0.00  0.00    +0.000 C 
ATOM     32  O   UNL     1      43.814   3.997  13.275  0.00  0.00    +0.000 OA
ENDBRANCH  22  32
ENDBRANCH  18  29
ENDBRANCH   1  20
TORSDOF 7
ENDMDL
MODEL 8
REMARK VINA RESULT:    -6.909      3.635      5.767
REMARK INTER + INTRA:         -10.710
REMARK INTER:                  -9.451
REMARK INTRA:                  -1.260
REMARK UNBOUND:                -0.974
REMARK  Name = 
REMARK  8 active torsions:
REMARK  status: ('A' for Active; 'I' for Inactive)
REMARK    1  A    between atoms: C_1  and  O_2
REMARK    2  A    between atoms: O_2  and  C_3
REMARK    3  A    between atoms: C_10  and  C_11
REMARK    4  A    between atoms: N_13  and  C_14
REMARK    5  A    between atoms: C_14  and  C_15
REMARK    6  A    between atoms: N_19  and  C_20
REMARK    7  A    between atoms: C_20  and  C_21
REMARK    8  A    between atoms: C_21  and  N_22
REMARK                            x       y       z     vdW  Elec       q    Type
REMARK                         _______ _______ _______ _____ _____    ______ ____
ROOT
ATOM      1  C   UNL     1      48.312   3.422  17.695  0.00  0.00    +0.000 C 
ENDROOT
BRANCH   1   2
ATOM      2  C   UNL     1      48.193   4.429  16.585  0.00  0.00    +0.000 A 
ATOM      3  C   UNL     1      48.782   5.689  16.655  0.00  0.00    +0.000 A 
ATOM      4  C   UNL     1      48.672   6.570  15.572  0.00  0.00    +0.000 A 
ATOM      5  C   UNL     1      47.941   6.199  14.442  0.00  0.00    +0.000 A 
ATOM      6  N   UNL     1      47.938   7.057  13.334  0.00  0.00    +0.000 N 
ATOM      7  N   UNL     1      47.335   4.998  14.381  0.00  0.00    +0.000 NA
ATOM      8  C   UNL     1      47.467   4.152  15.434  0.00  0.00    +0.000 A 
ATOM      9  H   UNL     1      47.686   8.006  13.600  0.00  0.00    +0.000 HD
BRANCH   6  10
ATOM     10  C   UNL     1      47.174   6.612  12.162  0.00  0.00    +0.000 C 
BRANCH  10  11
ATOM     11  C   UNL     1      45.797   7.311  12.018  0.00  0.00    +0.000 C 
BRANCH  11  12
ATOM     12  N   UNL     1      44.653   6.424  11.675  0.00  0.00    +0.000 NA
ATOM     13  C   UNL     1      45.036   5.395  10.693  0.00  0.00    +0.000 C 
ATOM     14  C   UNL     1      43.832   4.538  10.302  0.00  0.00    +0.000 C 
ATOM     15  C   UNL     1      43.196   3.881  11.522  0.00  0.00    +0.000 C 
ATOM     16  C   UNL     1      42.902   4.923  12.593  0.00  0.00    +0.000 C 
ATOM     17  C   UNL     1      44.140   5.772  12.900  0.00  0.00    +0.000 C 
ENDBRANCH  11  12
ENDBRANCH  10  11
ENDBRANCH   6  10
ENDBRANCH   1   2
BRANCH   1  20
ATOM     18  C   UNL     1      50.409   2.214  17.183  0.00  0.00    +0.000 C 
ATOM     19  O   UNL     1      49.907   1.666  16.206  0.00  0.00    +0.000 OA
ATOM     20  N   UNL     1      49.686   3.086  17.958  0.00  0.00    +0.000 N 
ATOM     21  H   UNL     1      50.122   3.506  18.767  0.00  0.00    +0.000 HD
BRANCH  18  29
ATOM     22  C   UNL     1      53.095   4.267  17.830  0.00  0.00    +0.000 A 
ATOM     23  N   UNL     1      54.272   4.831  18.161  0.00  0.00    +0.000 NA
ATOM     24  C   UNL     1      55.284   4.023  18.490  0.00  0.00    +0.000 A 
ATOM     25  N   UNL     1      55.265   2.693  18.530  0.00  0.00    +0.000 NA
ATOM     26  C   UNL     1      54.068   2.173  18.206  0.00  0.00    +0.000 A 
ATOM     27  S   UNL     1      53.858   0.489  18.199  0.00  0.00    +0.000 S 
ATOM     28  C   UNL     1      52.229   0.641  17.737  0.00  0.00    +0.000 A 
ATOM     29  C   UNL     1      51.808   1.958  17.580  0.00  0.00    +0.000 A 
ATOM     30  C   UNL     1      52.918   2.872  17.853  0.00  0.00    +0.000 A 
BRANCH  22  32
ATOM     31  C   UNL     1      52.465   6.257  16.777  0.00  0.00    +0.000 C 
ATOM     32  O   UNL     1      52.049   5.102  17.501  0.00  0.00    +0.000 OA
ENDBRANCH  22  32
ENDBRANCH  18  29
ENDBRANCH   1  20
TORSDOF 7
ENDMDL
MODEL 9
REMARK VINA RESULT:    -6.096      3.875      9.493
REMARK INTER + INTRA:          -9.565
REMARK INTER:                  -8.633
REMARK INTRA:                  -0.932
REMARK UNBOUND:                -0.974
REMARK  Name = 
REMARK  8 active torsions:
REMARK  status: ('A' for Active; 'I' for Inactive)
REMARK    1  A    between atoms: C_1  and  O_2
REMARK    2  A    between atoms: O_2  and  C_3
REMARK    3  A    between atoms: C_10  and  C_11
REMARK    4  A    between atoms: N_13  and  C_14
REMARK    5  A    between atoms: C_14  and  C_15
REMARK    6  A    between atoms: N_19  and  C_20
REMARK    7  A    between atoms: C_20  and  C_21
REMARK    8  A    between atoms: C_21  and  N_22
REMARK                            x       y       z     vdW  Elec       q    Type
REMARK                         _______ _______ _______ _____ _____    ______ ____
ROOT
ATOM      1  C   UNL     1      47.541   3.641  16.522  0.00  0.00    +0.000 C 
ENDROOT
BRANCH   1   2
ATOM      2  C   UNL     1      48.591   4.236  17.419  0.00  0.00    +0.000 A 
ATOM      3  C   UNL     1      48.525   5.550  17.876  0.00  0.00    +0.000 A 
ATOM      4  C   UNL     1      49.512   6.035  18.743  0.00  0.00    +0.000 A 
ATOM      5  C   UNL     1      50.577   5.215  19.118  0.00  0.00    +0.000 A 
ATOM      6  N   UNL     1      51.489   5.692  20.068  0.00  0.00    +0.000 N 
ATOM      7  N   UNL     1      50.670   3.956  18.650  0.00  0.00    +0.000 NA
ATOM      8  C   UNL     1      49.696   3.498  17.824  0.00  0.00    +0.000 A 
ATOM      9  H   UNL     1      51.845   6.610  19.813  0.00  0.00    +0.000 HD
BRANCH   6  10
ATOM     10  C   UNL     1      52.578   4.785  20.447  0.00  0.00    +0.000 C 
BRANCH  10  11
ATOM     11  C   UNL     1      53.937   5.138  19.788  0.00  0.00    +0.000 C 
BRANCH  11  12
ATOM     12  N   UNL     1      54.651   4.012  19.130  0.00  0.00    +0.000 NA
ATOM     13  C   UNL     1      54.130   2.705  19.568  0.00  0.00    +0.000 C 
ATOM     14  C   UNL     1      54.921   1.561  18.933  0.00  0.00    +0.000 C 
ATOM     15  C   UNL     1      54.899   1.645  17.412  0.00  0.00    +0.000 C 
ATOM     16  C   UNL     1      55.327   3.033  16.951  0.00  0.00    +0.000 C 
ATOM     17  C   UNL     1      54.523   4.128  17.661  0.00  0.00    +0.000 C 
ENDBRANCH  11  12
ENDBRANCH  10  11
ENDBRANCH   6  10
ENDBRANCH   1   2
BRANCH   1  20
ATOM     18  C   UNL     1      46.793   4.315  14.262  0.00  0.00    +0.000 C 
ATOM     19  O   UNL     1      46.983   3.188  13.815  0.00  0.00    +0.000 OA
ATOM     20  N   UNL     1      47.044   4.608  15.578  0.00  0.00    +0.000 N 
ATOM     21  H   UNL     1      46.896   5.550  15.912  0.00  0.00    +0.000 HD
BRANCH  18  29
ATOM     22  C   UNL     1      43.829   4.850  12.595  0.00  0.00    +0.000 A 
ATOM     23  N   UNL     1      42.780   5.312  11.888  0.00  0.00    +0.000 NA
ATOM     24  C   UNL     1      42.904   6.498  11.287  0.00  0.00    +0.000 A 
ATOM     25  N   UNL     1      43.968   7.296  11.303  0.00  0.00    +0.000 NA
ATOM     26  C   UNL     1      44.985   6.803  12.031  0.00  0.00    +0.000 A 
ATOM     27  S   UNL     1      46.430   7.686  12.162  0.00  0.00    +0.000 S 
ATOM     28  C   UNL     1      47.129   6.494  13.153  0.00  0.00    +0.000 A 
ATOM     29  C   UNL     1      46.294   5.411  13.408  0.00  0.00    +0.000 A 
ATOM     30  C   UNL     1      45.013   5.597  12.724  0.00  0.00    +0.000 A 
BRANCH  22  32
ATOM     31  C   UNL     1      43.556   2.546  12.311  0.00  0.00    +0.000 C 
ATOM     32  O   UNL     1      43.697   3.631  13.224  0.00  0.00    +0.000 OA
ENDBRANCH  22  32
ENDBRANCH  18  29
ENDBRANCH   1  20
TORSDOF 7
ENDMDL
