MODEL 1
REMARK VINA RESULT:    -6.866      0.000      0.000
REMARK INTER + INTRA:          -9.843
REMARK INTER:                  -9.074
REMARK INTRA:                  -0.769
REMARK UNBOUND:                -0.769
REMARK  Name = 
REMARK  8 active torsions:
REMARK  status: ('A' for Active; 'I' for Inactive)
REMARK    1  A    between atoms: C_1  and  C_2
REMARK    2  A    between atoms: C_2  and  C_3
REMARK    3  A    between atoms: C_2  and  C_4
REMARK    4  A    between atoms: C_4  and  N_5
REMARK    5  A    between atoms: C_4  and  C_6
REMARK    6  A    between atoms: C_6  and  C_7
REMARK    7  A    between atoms: N_9  and  C_10
REMARK    8  A    between atoms: C_10  and  C_11
REMARK                            x       y       z     vdW  Elec       q    Type
REMARK                         _______ _______ _______ _____ _____    ______ ____
ROOT
ATOM      1  C   UNL     1      46.071   6.031  11.127  0.00  0.00    +0.000 A 
ATOM      2  C   UNL     1      46.030   5.733   9.776  0.00  0.00    +0.000 A 
ATOM      3  N   UNL     1      45.208   4.647   9.585  0.00  0.00    +0.000 N 
ATOM      4  C   UNL     1      44.653   4.262  10.790  0.00  0.00    +0.000 A 
ATOM      5  C   UNL     1      43.740   3.240  11.107  0.00  0.00    +0.000 A 
ATOM      6  C   UNL     1      43.346   3.085  12.440  0.00  0.00    +0.000 A 
ATOM      7  C   UNL     1      43.832   3.936  13.428  0.00  0.00    +0.000 A 
ATOM      8  C   UNL     1      44.717   4.961  13.096  0.00  0.00    +0.000 A 
ATOM      9  C   UNL     1      45.161   5.125  11.765  0.00  0.00    +0.000 A 
ENDROOT
BRANCH   1  10
ATOM     10  C   UNL     1      46.857   7.146  11.770  0.00  0.00    +0.000 C 
BRANCH  10  11
ATOM     11  C   UNL     1      48.286   6.770  12.261  0.00  0.00    +0.000 C 
BRANCH  11  13
ATOM     12  C   UNL     1      50.501   7.748  11.400  0.00  0.00    +0.000 C 
ATOM     13  C   UNL     1      49.256   7.991  12.270  0.00  0.00    +0.000 C 
ATOM     14  C   UNL     1      48.585   9.286  11.801  0.00  0.00    +0.000 C 
ENDBRANCH  11  13
BRANCH  11  15
ATOM     15  N   UNL     1      48.246   6.205  13.617  0.00  0.00    +0.000 NA
ATOM     16  H   UNL     1      48.409   5.200  13.583  0.00  0.00    +0.000 HD
ATOM     17  H   UNL     1      47.336   6.346  14.043  0.00  0.00    +0.000 HD
ENDBRANCH  11  15
ENDBRANCH  10  11
ENDBRANCH   1  10
BRANCH   3  18
ATOM     18  C   UNL     1      44.872   4.092   8.279  0.00  0.00    +0.000 C 
BRANCH  18  19
ATOM     19  C   UNL     1      45.802   2.999   7.828  0.00  0.00    +0.000 A 
ATOM     20  C   UNL     1      45.678   1.694   8.300  0.00  0.00    +0.000 A 
ATOM     21  N   UNL     1      46.573   0.714   8.023  0.00  0.00    +0.000 NA
ATOM     22  C   UNL     1      47.606   1.082   7.234  0.00  0.00    +0.000 A 
ATOM     23  C   UNL     1      47.738   2.369   6.747  0.00  0.00    +0.000 A 
ATOM     24  N   UNL     1      46.854   3.352   7.037  0.00  0.00    +0.000 NA
ENDBRANCH  18  19
ENDBRANCH   3  18
TORSDOF 6
ENDMDL
MODEL 2
REMARK VINA RESULT:    -6.742      2.545      3.768
REMARK INTER + INTRA:          -9.678
REMARK INTER:                  -9.378
REMARK INTRA:                  -0.300
REMARK UNBOUND:                -0.769
REMARK  Name = 
REMARK  8 active torsions:
REMARK  status: ('A' for Active; 'I' for Inactive)
REMARK    1  A    between atoms: C_1  and  C_2
REMARK    2  A    between atoms: C_2  and  C_3
REMARK    3  A    between atoms: C_2  and  C_4
REMARK    4  A    between atoms: C_4  and  N_5
REMARK    5  A    between atoms: C_4  and  C_6
REMARK    6  A    between atoms: C_6  and  C_7
REMARK    7  A    between atoms: N_9  and  C_10
REMARK    8  A    between atoms: C_10  and  C_11
REMARK                            x       y       z     vdW  Elec       q    Type
REMARK                         _______ _______ _______ _____ _____    ______ ____
ROOT
ATOM      1  C   UNL     1      46.263   4.111  13.151  0.00  0.00    +0.000 A 
ATOM      2  C   UNL     1      45.639   3.275  12.241  0.00  0.00    +0.000 A 
ATOM      3  N   UNL     1      44.901   4.041  11.368  0.00  0.00    +0.000 N 
ATOM      4  C   UNL     1      45.083   5.380  11.651  0.00  0.00    +0.000 A 
ATOM      5  C   UNL     1      44.575   6.536  11.032  0.00  0.00    +0.000 A 
ATOM      6  C   UNL     1      44.942   7.785  11.545  0.00  0.00    +0.000 A 
ATOM      7  C   UNL     1      45.805   7.881  12.632  0.00  0.00    +0.000 A 
ATOM      8  C   UNL     1      46.322   6.727  13.220  0.00  0.00    +0.000 A 
ATOM      9  C   UNL     1      45.947   5.450  12.748  0.00  0.00    +0.000 A 
ENDROOT
BRANCH   1  10
ATOM     10  C   UNL     1      47.163   3.681  14.283  0.00  0.00    +0.000 C 
BRANCH  10  11
ATOM     11  C   UNL     1      47.196   4.630  15.517  0.00  0.00    +0.000 C 
BRANCH  11  13
ATOM     12  C   UNL     1      48.292   2.797  16.947  0.00  0.00    +0.000 C 
ATOM     13  C   UNL     1      47.176   3.852  16.869  0.00  0.00    +0.000 C 
ATOM     14  C   UNL     1      47.297   4.775  18.086  0.00  0.00    +0.000 C 
ENDBRANCH  11  13
BRANCH  11  15
ATOM     15  N   UNL     1      48.392   5.483  15.495  0.00  0.00    +0.000 NA
ATOM     16  H   UNL     1      49.026   5.218  16.246  0.00  0.00    +0.000 HD
ATOM     17  H   UNL     1      48.146   6.458  15.641  0.00  0.00    +0.000 HD
ENDBRANCH  11  15
ENDBRANCH  10  11
ENDBRANCH   1  10
BRANCH   3  18
ATOM     18  C   UNL     1      44.162   3.504  10.231  0.00  0.00    +0.000 C 
BRANCH  18  19
ATOM     19  C   UNL     1      45.034   3.143   9.059  0.00  0.00    +0.000 A 
ATOM     20  C   UNL     1      45.463   1.835   8.843  0.00  0.00    +0.000 A 
ATOM     21  N   UNL     1      46.353   1.493   7.879  0.00  0.00    +0.000 NA
ATOM     22  C   UNL     1      46.799   2.514   7.117  0.00  0.00    +0.000 A 
ATOM     23  C   UNL     1      46.376   3.816   7.309  0.00  0.00    +0.000 A 
ATOM     24  N   UNL     1      45.500   4.161   8.282  0.00  0.00    +0.000 NA
ENDBRANCH  18  19
ENDBRANCH   3  18
TORSDOF 6
ENDMDL
MODEL 3
REMARK VINA RESULT:    -6.646      1.714      2.162
REMARK INTER + INTRA:          -9.552
REMARK INTER:                  -8.746
REMARK INTRA:                  -0.806
REMARK UNBOUND:                -0.769
REMARK  Name = 
REMARK  8 active torsions:
REMARK  status: ('A' for Active; 'I' for Inactive)
REMARK    1  A    between atoms: C_1  and  C_2
REMARK    2  A    between atoms: C_2  and  C_3
REMARK    3  A    between atoms: C_2  and  C_4
REMARK    4  A    between atoms: C_4  and  N_5
REMARK    5  A    between atoms: C_4  and  C_6
REMARK    6  A    between atoms: C_6  and  C_7
REMARK    7  A    between atoms: N_9  and  C_10
REMARK    8  A    between atoms: C_10  and  C_11
REMARK                            x       y       z     vdW  Elec       q    Type
REMARK                         _______ _______ _______ _____ _____    ______ ____
ROOT
ATOM      1  C   UNL     1      45.702   7.029  11.979  0.00  0.00    +0.000 A 
ATOM      2  C   UNL     1      44.920   6.568  10.935  0.00  0.00    +0.000 A 
ATOM      3  N   UNL     1      44.897   5.193  10.969  0.00  0.00    +0.000 N 
ATOM      4  C   UNL     1      45.604   4.740  12.065  0.00  0.00    +0.000 A 
ATOM      5  C   UNL     1      45.842   3.440  12.544  0.00  0.00    +0.000 A 
ATOM      6  C   UNL     1      46.607   3.283  13.705  0.00  0.00    +0.000 A 
ATOM      7  C   UNL     1      47.105   4.392  14.382  0.00  0.00    +0.000 A 
ATOM      8  C   UNL     1      46.840   5.678  13.911  0.00  0.00    +0.000 A 
ATOM      9  C   UNL     1      46.100   5.870  12.724  0.00  0.00    +0.000 A 
ENDROOT
BRANCH   1  10
ATOM     10  C   UNL     1      45.995   8.473  12.302  0.00  0.00    +0.000 C 
BRANCH  10  11
ATOM     11  C   UNL     1      47.432   8.770  12.824  0.00  0.00    +0.000 C 
BRANCH  11  13
ATOM     12  C   UNL     1      49.256   9.851  11.371  0.00  0.00    +0.000 C 
ATOM     13  C   UNL     1      48.523   8.547  11.731  0.00  0.00    +0.000 C 
ATOM     14  C   UNL     1      49.567   7.502  12.139  0.00  0.00    +0.000 C 
ENDBRANCH  11  13
BRANCH  11  15
ATOM     15  N   UNL     1      47.542  10.152  13.310  0.00  0.00    +0.000 NA
ATOM     16  H   UNL     1      48.250  10.655  12.779  0.00  0.00    +0.000 HD
ATOM     17  H   UNL     1      47.827  10.174  14.284  0.00  0.00    +0.000 HD
ENDBRANCH  11  15
ENDBRANCH  10  11
ENDBRANCH   1  10
BRANCH   3  18
ATOM     18  C   UNL     1      44.116   4.363  10.060  0.00  0.00    +0.000 C 
BRANCH  18  19
ATOM     19  C   UNL     1      44.950   3.611   9.059  0.00  0.00    +0.000 A 
ATOM     20  C   UNL     1      45.146   2.235   9.158  0.00  0.00    +0.000 A 
ATOM     21  N   UNL     1      45.995   1.544   8.358  0.00  0.00    +0.000 NA
ATOM     22  C   UNL     1      46.642   2.282   7.430  0.00  0.00    +0.000 A 
ATOM     23  C   UNL     1      46.451   3.646   7.309  0.00  0.00    +0.000 A 
ATOM     24  N   UNL     1      45.616   4.338   8.119  0.00  0.00    +0.000 NA
ENDBRANCH  18  19
ENDBRANCH   3  18
TORSDOF 6
ENDMDL
MODEL 4
REMARK VINA RESULT:    -6.338      2.896      4.380
REMARK INTER + INTRA:          -9.145
REMARK INTER:                  -8.456
REMARK INTRA:                  -0.688
REMARK UNBOUND:                -0.769
REMARK  Name = 
REMARK  8 active torsions:
REMARK  status: ('A' for Active; 'I' for Inactive)
REMARK    1  A    between atoms: C_1  and  C_2
REMARK    2  A    between atoms: C_2  and  C_3
REMARK    3  A    between atoms: C_2  and  C_4
REMARK    4  A    between atoms: C_4  and  N_5
REMARK    5  A    between atoms: C_4  and  C_6
REMARK    6  A    between atoms: C_6  and  C_7
REMARK    7  A    between atoms: N_9  and  C_10
REMARK    8  A    between atoms: C_10  and  C_11
REMARK                            x       y       z     vdW  Elec       q    Type
REMARK                         _______ _______ _______ _____ _____    ______ ____
ROOT
ATOM      1  C   UNL     1      46.632   4.615  13.723  0.00  0.00    +0.000 A 
ATOM      2  C   UNL     1      45.708   3.936  12.948  0.00  0.00    +0.000 A 
ATOM      3  N   UNL     1      45.064   4.838  12.133  0.00  0.00    +0.000 N 
ATOM      4  C   UNL     1      45.598   6.098  12.313  0.00  0.00    +0.000 A 
ATOM      5  C   UNL     1      45.304   7.328  11.699  0.00  0.00    +0.000 A 
ATOM      6  C   UNL     1      46.026   8.461  12.089  0.00  0.00    +0.000 A 
ATOM      7  C   UNL     1      47.026   8.369  13.051  0.00  0.00    +0.000 A 
ATOM      8  C   UNL     1      47.326   7.138  13.635  0.00  0.00    +0.000 A 
ATOM      9  C   UNL     1      46.595   5.981  13.287  0.00  0.00    +0.000 A 
ENDROOT
BRANCH   1  10
ATOM     10  C   UNL     1      47.548   4.006  14.754  0.00  0.00    +0.000 C 
BRANCH  10  11
ATOM     11  C   UNL     1      47.107   4.179  16.237  0.00  0.00    +0.000 C 
BRANCH  11  13
ATOM     12  C   UNL     1      48.718   2.188  16.449  0.00  0.00    +0.000 C 
ATOM     13  C   UNL     1      47.670   3.057  17.164  0.00  0.00    +0.000 C 
ATOM     14  C   UNL     1      48.293   3.608  18.451  0.00  0.00    +0.000 C 
ENDBRANCH  11  13
BRANCH  11  15
ATOM     15  N   UNL     1      47.542   5.477  16.770  0.00  0.00    +0.000 NA
ATOM     16  H   UNL     1      47.732   6.124  16.007  0.00  0.00    +0.000 HD
ATOM     17  H   UNL     1      48.402   5.382  17.302  0.00  0.00    +0.000 HD
ENDBRANCH  11  15
ENDBRANCH  10  11
ENDBRANCH   1  10
BRANCH   3  18
ATOM     18  C   UNL     1      44.070   4.472  11.130  0.00  0.00    +0.000 C 
BRANCH  18  19
ATOM     19  C   UNL     1      44.651   3.780   9.926  0.00  0.00    +0.000 A 
ATOM     20  C   UNL     1      44.628   2.393   9.800  0.00  0.00    +0.000 A 
ATOM     21  N   UNL     1      45.256   1.726   8.800  0.00  0.00    +0.000 NA
ATOM     22  C   UNL     1      45.907   2.504   7.908  0.00  0.00    +0.000 A 
ATOM     23  C   UNL     1      45.931   3.882   8.011  0.00  0.00    +0.000 A 
ATOM     24  N   UNL     1      45.318   4.547   9.019  0.00  0.00    +0.000 NA
ENDBRANCH  18  19
ENDBRANCH   3  18
TORSDOF 6
ENDMDL
MODEL 5
REMARK VINA RESULT:    -6.311      3.592      7.186
REMARK INTER + INTRA:          -9.110
REMARK INTER:                  -8.151
REMARK INTRA:                  -0.958
REMARK UNBOUND:                -0.769
REMARK  Name = 
REMARK  8 active torsions:
REMARK  status: ('A' for Active; 'I' for Inactive)
REMARK    1  A    between atoms: C_1  and  C_2
REMARK    2  A    between atoms: C_2  and  C_3
REMARK    3  A    between atoms: C_2  and  C_4
REMARK    4  A    between atoms: C_4  and  N_5
REMARK    5  A    between atoms: C_4  and  C_6
REMARK    6  A    between atoms: C_6  and  C_7
REMARK    7  A    between atoms: N_9  and  C_10
REMARK    8  A    between atoms: C_10  and  C_11
REMARK                            x       y       z     vdW  Elec       q    Type
REMARK                         _______ _______ _______ _____ _____    ______ ____
ROOT
ATOM      1  C   UNL     1      46.120   4.064  13.009  0.00  0.00    +0.000 A 
ATOM      2  C   UNL     1      46.357   3.677  14.317  0.00  0.00    +0.000 A 
ATOM      3  N   UNL     1      47.121   4.641  14.933  0.00  0.00    +0.000 N 
ATOM      4  C   UNL     1      47.337   5.694  14.066  0.00  0.00    +0.000 A 
ATOM      5  C   UNL     1      48.021   6.910  14.235  0.00  0.00    +0.000 A 
ATOM      6  C   UNL     1      48.073   7.804  13.160  0.00  0.00    +0.000 A 
ATOM      7  C   UNL     1      47.444   7.503  11.956  0.00  0.00    +0.000 A 
ATOM      8  C   UNL     1      46.747   6.305  11.810  0.00  0.00    +0.000 A 
ATOM      9  C   UNL     1      46.702   5.366  12.864  0.00  0.00    +0.000 A 
ENDROOT
BRANCH   1  10
ATOM     10  C   UNL     1      45.327   3.293  11.983  0.00  0.00    +0.000 C 
BRANCH  10  11
ATOM     11  C   UNL     1      43.781   3.459  12.059  0.00  0.00    +0.000 C 
BRANCH  11  13
ATOM     12  C   UNL     1      43.117   5.900  11.603  0.00  0.00    +0.000 C 
ATOM     13  C   UNL     1      43.238   4.483  11.015  0.00  0.00    +0.000 C 
ATOM     14  C   UNL     1      44.099   4.556   9.751  0.00  0.00    +0.000 C 
ENDBRANCH  11  13
BRANCH  11  15
ATOM     15  N   UNL     1      43.101   2.175  11.841  0.00  0.00    +0.000 NA
ATOM     16  H   UNL     1      42.154   2.212  12.212  0.00  0.00    +0.000 HD
ATOM     17  H   UNL     1      43.583   1.422  12.322  0.00  0.00    +0.000 HD
ENDBRANCH  11  15
ENDBRANCH  10  11
ENDBRANCH   1  10
BRANCH   3  18
ATOM     18  C   UNL     1      47.510   4.604  16.339  0.00  0.00    +0.000 C 
BRANCH  18  19
ATOM     19  C   UNL     1      48.767   3.819  16.599  0.00  0.00    +0.000 A 
ATOM     20  C   UNL     1      48.838   2.450  16.350  0.00  0.00    +0.000 A 
ATOM     21  N   UNL     1      49.904   1.685  16.694  0.00  0.00    +0.000 NA
ATOM     22  C   UNL     1      50.918   2.345  17.293  0.00  0.00    +0.000 A 
ATOM     23  C   UNL     1      50.870   3.705  17.537  0.00  0.00    +0.000 A 
ATOM     24  N   UNL     1      49.799   4.466  17.209  0.00  0.00    +0.000 NA
ENDBRANCH  18  19
ENDBRANCH   3  18
TORSDOF 6
ENDMDL
MODEL 6
REMARK VINA RESULT:    -6.239      2.263      3.430
REMARK INTER + INTRA:          -9.013
REMARK INTER:                  -8.507
REMARK INTRA:                  -0.506
REMARK UNBOUND:                -0.769
REMARK  Name = 
REMARK  8 active torsions:
REMARK  status: ('A' for Active; 'I' for Inactive)
REMARK    1  A    between atoms: C_1  and  C_2
REMARK    2  A    between atoms: C_2  and  C_3
REMARK    3  A    between atoms: C_2  and  C_4
REMARK    4  A    between atoms: C_4  and  N_5
REMARK    5  A    between atoms: C_4  and  C_6
REMARK    6  A    between atoms: C_6  and  C_7
REMARK    7  A    between atoms: N_9  and  C_10
REMARK    8  A    between atoms: C_10  and  C_11
REMARK                            x       y       z     vdW  Elec       q    Type
REMARK                         _______ _______ _______ _____ _____    ______ ____
ROOT
ATOM      1  C   UNL     1      46.217   5.812  13.024  0.00  0.00    +0.000 A 
ATOM      2  C   UNL     1      45.568   4.841  12.282  0.00  0.00    +0.000 A 
ATOM      3  N   UNL     1      44.643   5.450  11.466  0.00  0.00    +0.000 N 
ATOM      4  C   UNL     1      44.719   6.821  11.613  0.00  0.00    +0.000 A 
ATOM      5  C   UNL     1      44.013   7.862  10.985  0.00  0.00    +0.000 A 
ATOM      6  C   UNL     1      44.312   9.182  11.340  0.00  0.00    +0.000 A 
ATOM      7  C   UNL     1      45.298   9.458  12.281  0.00  0.00    +0.000 A 
ATOM      8  C   UNL     1      46.008   8.418  12.878  0.00  0.00    +0.000 A 
ATOM      9  C   UNL     1      45.710   7.073  12.567  0.00  0.00    +0.000 A 
ENDROOT
BRANCH   1  10
ATOM     10  C   UNL     1      47.302   5.575  14.045  0.00  0.00    +0.000 C 
BRANCH  10  11
ATOM     11  C   UNL     1      48.349   6.718  14.195  0.00  0.00    +0.000 C 
BRANCH  11  13
ATOM     12  C   UNL     1      48.862   8.056  16.329  0.00  0.00    +0.000 C 
ATOM     13  C   UNL     1      49.039   6.716  15.595  0.00  0.00    +0.000 C 
ATOM     14  C   UNL     1      48.531   5.594  16.506  0.00  0.00    +0.000 C 
ENDBRANCH  11  13
BRANCH  11  15
ATOM     15  N   UNL     1      49.394   6.615  13.167  0.00  0.00    +0.000 NA
ATOM     16  H   UNL     1      48.976   6.417  12.260  0.00  0.00    +0.000 HD
ATOM     17  H   UNL     1      50.034   5.854  13.374  0.00  0.00    +0.000 HD
ENDBRANCH  11  15
ENDBRANCH  10  11
ENDBRANCH   1  10
BRANCH   3  18
ATOM     18  C   UNL     1      43.819   4.744  10.491  0.00  0.00    +0.000 C 
BRANCH  18  19
ATOM     19  C   UNL     1      44.613   3.944   9.494  0.00  0.00    +0.000 A 
ATOM     20  C   UNL     1      44.658   2.552   9.544  0.00  0.00    +0.000 A 
ATOM     21  N   UNL     1      45.464   1.804   8.750  0.00  0.00    +0.000 NA
ATOM     22  C   UNL     1      46.225   2.502   7.881  0.00  0.00    +0.000 A 
ATOM     23  C   UNL     1      46.185   3.882   7.808  0.00  0.00    +0.000 A 
ATOM     24  N   UNL     1      45.393   4.630   8.612  0.00  0.00    +0.000 NA
ENDBRANCH  18  19
ENDBRANCH   3  18
TORSDOF 6
ENDMDL
MODEL 7
REMARK VINA RESULT:    -6.072      2.037      3.521
REMARK INTER + INTRA:          -8.793
REMARK INTER:                  -7.845
REMARK INTRA:                  -0.948
REMARK UNBOUND:                -0.769
REMARK  Name = 
REMARK  8 active torsions:
REMARK  status: ('A' for Active; 'I' for Inactive)
REMARK    1  A    between atoms: C_1  and  C_2
REMARK    2  A    between atoms: C_2  and  C_3
REMARK    3  A    between atoms: C_2  and  C_4
REMARK    4  A    between atoms: C_4  and  N_5
REMARK    5  A    between atoms: C_4  and  C_6
REMARK    6  A    between atoms: C_6  and  C_7
REMARK    7  A    between atoms: N_9  and  C_10
REMARK    8  A    between atoms: C_10  and  C_11
REMARK                            x       y       z     vdW  Elec       q    Type
REMARK                         _______ _______ _______ _____ _____    ______ ____
ROOT
ATOM      1  C   UNL     1      46.206   7.107  12.760  0.00  0.00    +0.000 A 
ATOM      2  C   UNL     1      45.662   5.912  12.320  0.00  0.00    +0.000 A 
ATOM      3  N   UNL     1      44.540   6.183  11.571  0.00  0.00    +0.000 N 
ATOM      4  C   UNL     1      44.372   7.548  11.456  0.00  0.00    +0.000 A 
ATOM      5  C   UNL     1      43.406   8.310  10.775  0.00  0.00    +0.000 A 
ATOM      6  C   UNL     1      43.492   9.705  10.834  0.00  0.00    +0.000 A 
ATOM      7  C   UNL     1      44.521  10.325  11.535  0.00  0.00    +0.000 A 
ATOM      8  C   UNL     1      45.488   9.558  12.184  0.00  0.00    +0.000 A 
ATOM      9  C   UNL     1      45.413   8.148  12.173  0.00  0.00    +0.000 A 
ENDROOT
BRANCH   1  10
ATOM     10  C   UNL     1      47.439   7.263  13.614  0.00  0.00    +0.000 C 
BRANCH  10  11
ATOM     11  C   UNL     1      48.791   6.938  12.915  0.00  0.00    +0.000 C 
BRANCH  11  13
ATOM     12  C   UNL     1      49.109   9.405  12.269  0.00  0.00    +0.000 C 
ATOM     13  C   UNL     1      49.134   7.948  11.777  0.00  0.00    +0.000 C 
ATOM     14  C   UNL     1      50.499   7.678  11.135  0.00  0.00    +0.000 C 
ENDBRANCH  11  13
BRANCH  11  15
ATOM     15  N   UNL     1      49.898   6.938  13.880  0.00  0.00    +0.000 NA
ATOM     16  H   UNL     1      49.631   7.445  14.721  0.00  0.00    +0.000 HD
ATOM     17  H   UNL     1      50.715   7.404  13.496  0.00  0.00    +0.000 HD
ENDBRANCH  11  15
ENDBRANCH  10  11
ENDBRANCH   1  10
BRANCH   3  18
ATOM     18  C   UNL     1      43.746   5.168  10.889  0.00  0.00    +0.000 C 
BRANCH  18  19
ATOM     19  C   UNL     1      44.542   4.315   9.938  0.00  0.00    +0.000 A 
ATOM     20  C   UNL     1      45.328   4.878   8.934  0.00  0.00    +0.000 A 
ATOM     21  N   UNL     1      45.951   4.146   7.978  0.00  0.00    +0.000 NA
ATOM     22  C   UNL     1      45.772   2.811   8.065  0.00  0.00    +0.000 A 
ATOM     23  C   UNL     1      45.006   2.234   9.061  0.00  0.00    +0.000 A 
ATOM     24  N   UNL     1      44.370   2.965  10.006  0.00  0.00    +0.000 NA
ENDBRANCH  18  19
ENDBRANCH   3  18
TORSDOF 6
ENDMDL
MODEL 8
REMARK VINA RESULT:    -5.876      3.925      6.170
REMARK INTER + INTRA:          -8.535
REMARK INTER:                  -7.759
REMARK INTRA:                  -0.776
REMARK UNBOUND:                -0.769
REMARK  Name = 
REMARK  8 active torsions:
REMARK  status: ('A' for Active; 'I' for Inactive)
REMARK    1  A    between atoms: C_1  and  C_2
REMARK    2  A    between atoms: C_2  and  C_3
REMARK    3  A    between atoms: C_2  and  C_4
REMARK    4  A    between atoms: C_4  and  N_5
REMARK    5  A    between atoms: C_4  and  C_6
REMARK    6  A    between atoms: C_6  and  C_7
REMARK    7  A    between atoms: N_9  and  C_10
REMARK    8  A    between atoms: C_10  and  C_11
REMARK                            x       y       z     vdW  Elec       q    Type
REMARK                         _______ _______ _______ _____ _____    ______ ____
ROOT
ATOM      1  C   UNL     1      47.833   4.997  15.934  0.00  0.00    +0.000 A 
ATOM      2  C   UNL     1      47.131   4.001  15.277  0.00  0.00    +0.000 A 
ATOM      3  N   UNL     1      46.920   4.390  13.975  0.00  0.00    +0.000 N 
ATOM      4  C   UNL     1      47.532   5.606  13.744  0.00  0.00    +0.000 A 
ATOM      5  C   UNL     1      47.626   6.392  12.582  0.00  0.00    +0.000 A 
ATOM      6  C   UNL     1      48.327   7.601  12.647  0.00  0.00    +0.000 A 
ATOM      7  C   UNL     1      48.933   8.008  13.831  0.00  0.00    +0.000 A 
ATOM      8  C   UNL     1      48.854   7.207  14.970  0.00  0.00    +0.000 A 
ATOM      9  C   UNL     1      48.127   5.996  14.948  0.00  0.00    +0.000 A 
ENDROOT
BRANCH   1  10
ATOM     10  C   UNL     1      48.267   4.978  17.378  0.00  0.00    +0.000 C 
BRANCH  10  11
ATOM     11  C   UNL     1      48.838   3.624  17.893  0.00  0.00    +0.000 C 
BRANCH  11  13
ATOM     12  C   UNL     1      51.023   2.408  17.299  0.00  0.00    +0.000 C 
ATOM     13  C   UNL     1      50.395   3.630  17.990  0.00  0.00    +0.000 C 
ATOM     14  C   UNL     1      51.022   4.896  17.398  0.00  0.00    +0.000 C 
ENDBRANCH  11  13
BRANCH  11  15
ATOM     15  N   UNL     1      48.295   3.291  19.217  0.00  0.00    +0.000 NA
ATOM     16  H   UNL     1      47.979   4.136  19.689  0.00  0.00    +0.000 HD
ATOM     17  H   UNL     1      49.006   2.867  19.805  0.00  0.00    +0.000 HD
ENDBRANCH  11  15
ENDBRANCH  10  11
ENDBRANCH   1  10
BRANCH   3  18
ATOM     18  C   UNL     1      46.271   3.560  12.966  0.00  0.00    +0.000 C 
BRANCH  18  19
ATOM     19  C   UNL     1      44.949   4.101  12.496  0.00  0.00    +0.000 A 
ATOM     20  C   UNL     1      44.733   4.446  11.163  0.00  0.00    +0.000 A 
ATOM     21  N   UNL     1      43.605   5.058  10.726  0.00  0.00    +0.000 NA
ATOM     22  C   UNL     1      42.679   5.309  11.675  0.00  0.00    +0.000 A 
ATOM     23  C   UNL     1      42.871   4.964  13.000  0.00  0.00    +0.000 A 
ATOM     24  N   UNL     1      44.003   4.368  13.441  0.00  0.00    +0.000 NA
ENDBRANCH  18  19
ENDBRANCH   3  18
TORSDOF 6
ENDMDL
MODEL 9
REMARK VINA RESULT:    -5.682      2.464      7.381
REMARK INTER + INTRA:          -8.277
REMARK INTER:                  -7.613
REMARK INTRA:                  -0.664
REMARK UNBOUND:                -0.769
REMARK  Name = 
REMARK  8 active torsions:
REMARK  status: ('A' for Active; 'I' for Inactive)
REMARK    1  A    between atoms: C_1  and  C_2
REMARK    2  A    between atoms: C_2  and  C_3
REMARK    3  A    between atoms: C_2  and  C_4
REMARK    4  A    between atoms: C_4  and  N_5
REMARK    5  A    between atoms: C_4  and  C_6
REMARK    6  A    between atoms: C_6  and  C_7
REMARK    7  A    between atoms: N_9  and  C_10
REMARK    8  A    between atoms: C_10  and  C_11
REMARK                            x       y       z     vdW  Elec       q    Type
REMARK                         _______ _______ _______ _____ _____    ______ ____
ROOT
ATOM      1  C   UNL     1      45.672   6.543  11.642  0.00  0.00    +0.000 A 
ATOM      2  C   UNL     1      46.873   6.184  12.229  0.00  0.00    +0.000 A 
ATOM      3  N   UNL     1      47.564   7.327  12.561  0.00  0.00    +0.000 N 
ATOM      4  C   UNL     1      46.803   8.439  12.259  0.00  0.00    +0.000 A 
ATOM      5  C   UNL     1      47.054   9.811  12.436  0.00  0.00    +0.000 A 
ATOM      6  C   UNL     1      46.078  10.727  12.031  0.00  0.00    +0.000 A 
ATOM      7  C   UNL     1      44.877  10.289  11.481  0.00  0.00    +0.000 A 
ATOM      8  C   UNL     1      44.630   8.925  11.334  0.00  0.00    +0.000 A 
ATOM      9  C   UNL     1      45.607   7.974  11.702  0.00  0.00    +0.000 A 
ENDROOT
BRANCH   1  10
ATOM     10  C   UNL     1      44.615   5.598  11.126  0.00  0.00    +0.000 C 
BRANCH  10  11
ATOM     11  C   UNL     1      45.113   4.503  10.137  0.00  0.00    +0.000 C 
BRANCH  11  13
ATOM     12  C   UNL     1      44.713   2.125   9.246  0.00  0.00    +0.000 C 
ATOM     13  C   UNL     1      44.102   3.324   9.992  0.00  0.00    +0.000 C 
ATOM     14  C   UNL     1      43.567   2.832  11.341  0.00  0.00    +0.000 C 
ENDBRANCH  11  13
BRANCH  11  15
ATOM     15  N   UNL     1      45.355   5.068   8.802  0.00  0.00    +0.000 NA
ATOM     16  H   UNL     1      44.506   5.505   8.447  0.00  0.00    +0.000 HD
ATOM     17  H   UNL     1      45.617   4.342   8.142  0.00  0.00    +0.000 HD
ENDBRANCH  11  15
ENDBRANCH  10  11
ENDBRANCH   1  10
BRANCH   3  18
ATOM     18  C   UNL     1      48.843   7.336  13.260  0.00  0.00    +0.000 C 
BRANCH  18  19
ATOM     19  C   UNL     1      48.718   7.192  14.753  0.00  0.00    +0.000 A 
ATOM     20  C   UNL     1      48.758   8.298  15.600  0.00  0.00    +0.000 A 
ATOM     21  N   UNL     1      48.783   8.199  16.952  0.00  0.00    +0.000 NA
ATOM     22  C   UNL     1      48.753   6.941  17.440  0.00  0.00    +0.000 A 
ATOM     23  C   UNL     1      48.701   5.833  16.615  0.00  0.00    +0.000 A 
ATOM     24  N   UNL     1      48.694   5.929  15.265  0.00  0.00    +0.000 NA
ENDBRANCH  18  19
ENDBRANCH   3  18
TORSDOF 6
ENDMDL
