MODEL 1
REMARK VINA RESULT:    -8.113      0.000      0.000
REMARK INTER + INTRA:         -10.487
REMARK INTER:                 -10.010
REMARK INTRA:                  -0.477
REMARK UNBOUND:                -0.477
REMARK  Name = 
REMARK  5 active torsions:
REMARK  status: ('A' for Active; 'I' for Inactive)
REMARK    1  A    between atoms: C_1  and  C_2
REMARK    2  A    between atoms: C_2  and  O_3
REMARK    3  A    between atoms: C_2  and  C_13
REMARK    4  A    between atoms: O_3  and  C_4
REMARK    5  A    between atoms: C_7  and  C_8
REMARK                            x       y       z     vdW  Elec       q    Type
REMARK                         _______ _______ _______ _____ _____    ______ ____
ROOT
ATOM      1  C   UNL     1      44.700   3.976   9.075  0.00  0.00    +0.000 A 
ATOM      2  C   UNL     1      44.506   2.626   9.351  0.00  0.00    +0.000 A 
ATOM      3  N   UNL     1      45.260   1.643   8.799  0.00  0.00    +0.000 NA
ATOM      4  C   UNL     1      46.214   2.086   7.928  0.00  0.00    +0.000 A 
ATOM      5  C   UNL     1      46.379   3.432   7.619  0.00  0.00    +0.000 A 
ATOM      6  N   UNL     1      45.624   4.410   8.188  0.00  0.00    +0.000 NA
ENDROOT
BRANCH   4   7
ATOM      7  C   UNL     1      47.124   1.066   7.341  0.00  0.00    +0.000 C 
ATOM      8  N   UNL     1      46.835  -0.234   7.660  0.00  0.00    +0.000 N 
ATOM      9  O   UNL     1      48.079   1.366   6.636  0.00  0.00    +0.000 OA
ATOM     10  H   UNL     1      46.047  -0.443   8.264  0.00  0.00    +0.000 HD
ATOM     11  H   UNL     1      47.431  -0.978   7.325  0.00  0.00    +0.000 HD
ENDBRANCH   4   7
BRANCH   1  12
ATOM     12  O   UNL     1      43.924   4.874   9.771  0.00  0.00    +0.000 OA
BRANCH  12  14
ATOM     13  C   UNL     1      42.480   5.304  11.719  0.00  0.00    +0.000 C 
ATOM     14  C   UNL     1      43.674   4.529  11.141  0.00  0.00    +0.000 C 
BRANCH  14  15
ATOM     15  C   UNL     1      44.900   4.931  11.959  0.00  0.00    +0.000 A 
ATOM     16  C   UNL     1      45.544   6.156  11.712  0.00  0.00    +0.000 A 
ATOM     17  C   UNL     1      46.749   6.473  12.350  0.00  0.00    +0.000 A 
ATOM     18  C   UNL     1      47.322   5.571  13.245  0.00  0.00    +0.000 A 
ATOM     19  C   UNL     1      46.679   4.368  13.506  0.00  0.00    +0.000 A 
ATOM     20  F   UNL     1      47.234   3.495  14.359  0.00  0.00    +0.000 F 
ATOM     21  C   UNL     1      45.483   4.043  12.877  0.00  0.00    +0.000 A 
ENDBRANCH  14  15
ENDBRANCH  12  14
ENDBRANCH   1  12
TORSDOF 4
ENDMDL
MODEL 2
REMARK VINA RESULT:    -7.747      1.493      2.087
REMARK INTER + INTRA:         -10.035
REMARK INTER:                  -9.582
REMARK INTRA:                  -0.454
REMARK UNBOUND:                -0.477
REMARK  Name = 
REMARK  5 active torsions:
REMARK  status: ('A' for Active; 'I' for Inactive)
REMARK    1  A    between atoms: C_1  and  C_2
REMARK    2  A    between atoms: C_2  and  O_3
REMARK    3  A    between atoms: C_2  and  C_13
REMARK    4  A    between atoms: O_3  and  C_4
REMARK    5  A    between atoms: C_7  and  C_8
REMARK                            x       y       z     vdW  Elec       q    Type
REMARK                         _______ _______ _______ _____ _____    ______ ____
ROOT
ATOM      1  C   UNL     1      44.564   3.789   9.185  0.00  0.00    +0.000 A 
ATOM      2  C   UNL     1      45.544   4.355   8.375  0.00  0.00    +0.000 A 
ATOM      3  N   UNL     1      46.452   3.617   7.690  0.00  0.00    +0.000 NA
ATOM      4  C   UNL     1      46.343   2.269   7.879  0.00  0.00    +0.000 A 
ATOM      5  C   UNL     1      45.391   1.707   8.722  0.00  0.00    +0.000 A 
ATOM      6  N   UNL     1      44.477   2.456   9.396  0.00  0.00    +0.000 NA
ENDROOT
BRANCH   4   7
ATOM      7  C   UNL     1      47.262   1.396   7.100  0.00  0.00    +0.000 C 
ATOM      8  N   UNL     1      48.346   2.027   6.549  0.00  0.00    +0.000 N 
ATOM      9  O   UNL     1      47.058   0.200   6.945  0.00  0.00    +0.000 OA
ATOM     10  H   UNL     1      48.471   3.025   6.682  0.00  0.00    +0.000 HD
ATOM     11  H   UNL     1      48.995   1.504   5.978  0.00  0.00    +0.000 HD
ENDBRANCH   4   7
BRANCH   1  12
ATOM     12  O   UNL     1      43.650   4.646   9.753  0.00  0.00    +0.000 OA
BRANCH  12  14
ATOM     13  C   UNL     1      42.405   5.450  11.720  0.00  0.00    +0.000 C 
ATOM     14  C   UNL     1      43.497   4.518  11.175  0.00  0.00    +0.000 C 
BRANCH  14  15
ATOM     15  C   UNL     1      44.810   4.946  11.829  0.00  0.00    +0.000 A 
ATOM     16  C   UNL     1      45.451   4.098  12.749  0.00  0.00    +0.000 A 
ATOM     17  C   UNL     1      46.573   4.534  13.462  0.00  0.00    +0.000 A 
ATOM     18  C   UNL     1      47.070   5.820  13.262  0.00  0.00    +0.000 A 
ATOM     19  C   UNL     1      46.451   6.655  12.341  0.00  0.00    +0.000 A 
ATOM     20  F   UNL     1      46.921   7.896  12.154  0.00  0.00    +0.000 F 
ATOM     21  C   UNL     1      45.335   6.233  11.627  0.00  0.00    +0.000 A 
ENDBRANCH  14  15
ENDBRANCH  12  14
ENDBRANCH   1  12
TORSDOF 4
ENDMDL
MODEL 3
REMARK VINA RESULT:    -6.680      3.705      6.503
REMARK INTER + INTRA:          -8.720
REMARK INTER:                  -8.225
REMARK INTRA:                  -0.495
REMARK UNBOUND:                -0.477
REMARK  Name = 
REMARK  5 active torsions:
REMARK  status: ('A' for Active; 'I' for Inactive)
REMARK    1  A    between atoms: C_1  and  C_2
REMARK    2  A    between atoms: C_2  and  O_3
REMARK    3  A    between atoms: C_2  and  C_13
REMARK    4  A    between atoms: O_3  and  C_4
REMARK    5  A    between atoms: C_7  and  C_8
REMARK                            x       y       z     vdW  Elec       q    Type
REMARK                         _______ _______ _______ _____ _____    ______ ____
ROOT
ATOM      1  C   UNL     1      45.352   5.849  11.861  0.00  0.00    +0.000 A 
ATOM      2  C   UNL     1      44.311   6.597  11.319  0.00  0.00    +0.000 A 
ATOM      3  N   UNL     1      44.250   7.949  11.405  0.00  0.00    +0.000 NA
ATOM      4  C   UNL     1      45.284   8.518  12.091  0.00  0.00    +0.000 A 
ATOM      5  C   UNL     1      46.302   7.767  12.669  0.00  0.00    +0.000 A 
ATOM      6  N   UNL     1      46.359   6.413  12.567  0.00  0.00    +0.000 NA
ENDROOT
BRANCH   4   7
ATOM      7  C   UNL     1      45.318  10.004  12.161  0.00  0.00    +0.000 C 
ATOM      8  N   UNL     1      46.559  10.557  12.332  0.00  0.00    +0.000 N 
ATOM      9  O   UNL     1      44.305  10.688  12.090  0.00  0.00    +0.000 OA
ATOM     10  H   UNL     1      47.374   9.957  12.407  0.00  0.00    +0.000 HD
ATOM     11  H   UNL     1      46.654  11.559  12.423  0.00  0.00    +0.000 HD
ENDBRANCH   4   7
BRANCH   1  12
ATOM     12  O   UNL     1      45.338   4.494  11.626  0.00  0.00    +0.000 OA
BRANCH  12  14
ATOM     13  C   UNL     1      43.497   2.945  11.098  0.00  0.00    +0.000 C 
ATOM     14  C   UNL     1      44.426   4.064  10.604  0.00  0.00    +0.000 C 
BRANCH  14  15
ATOM     15  C   UNL     1      45.248   3.481   9.456  0.00  0.00    +0.000 A 
ATOM     16  C   UNL     1      45.771   4.325   8.460  0.00  0.00    +0.000 A 
ATOM     17  C   UNL     1      46.401   3.794   7.329  0.00  0.00    +0.000 A 
ATOM     18  C   UNL     1      46.519   2.413   7.181  0.00  0.00    +0.000 A 
ATOM     19  C   UNL     1      46.021   1.576   8.171  0.00  0.00    +0.000 A 
ATOM     20  F   UNL     1      46.124   0.248   8.025  0.00  0.00    +0.000 F 
ATOM     21  C   UNL     1      45.392   2.093   9.298  0.00  0.00    +0.000 A 
ENDBRANCH  14  15
ENDBRANCH  12  14
ENDBRANCH   1  12
TORSDOF 4
ENDMDL
MODEL 4
REMARK VINA RESULT:    -6.672      3.989      6.443
REMARK INTER + INTRA:          -8.710
REMARK INTER:                  -8.215
REMARK INTRA:                  -0.495
REMARK UNBOUND:                -0.477
REMARK  Name = 
REMARK  5 active torsions:
REMARK  status: ('A' for Active; 'I' for Inactive)
REMARK    1  A    between atoms: C_1  and  C_2
REMARK    2  A    between atoms: C_2  and  O_3
REMARK    3  A    between atoms: C_2  and  C_13
REMARK    4  A    between atoms: O_3  and  C_4
REMARK    5  A    between atoms: C_7  and  C_8
REMARK                            x       y       z     vdW  Elec       q    Type
REMARK                         _______ _______ _______ _____ _____    ______ ____
ROOT
ATOM      1  C   UNL     1      46.093   4.909  12.822  0.00  0.00    +0.000 A 
ATOM      2  C   UNL     1      46.724   4.297  13.902  0.00  0.00    +0.000 A 
ATOM      3  N   UNL     1      47.643   4.928  14.673  0.00  0.00    +0.000 NA
ATOM      4  C   UNL     1      47.919   6.209  14.290  0.00  0.00    +0.000 A 
ATOM      5  C   UNL     1      47.319   6.805  13.185  0.00  0.00    +0.000 A 
ATOM      6  N   UNL     1      46.390   6.167  12.425  0.00  0.00    +0.000 NA
ENDROOT
BRANCH   4   7
ATOM      7  C   UNL     1      48.866   6.984  15.137  0.00  0.00    +0.000 C 
ATOM      8  N   UNL     1      48.383   8.169  15.625  0.00  0.00    +0.000 N 
ATOM      9  O   UNL     1      50.005   6.601  15.367  0.00  0.00    +0.000 OA
ATOM     10  H   UNL     1      47.440   8.464  15.395  0.00  0.00    +0.000 HD
ATOM     11  H   UNL     1      48.982   8.765  16.180  0.00  0.00    +0.000 HD
ENDBRANCH   4   7
BRANCH   1  12
ATOM     12  O   UNL     1      45.115   4.186  12.178  0.00  0.00    +0.000 OA
BRANCH  12  14
ATOM     13  C   UNL     1      43.050   4.834  11.003  0.00  0.00    +0.000 C 
ATOM     14  C   UNL     1      44.586   4.799  10.993  0.00  0.00    +0.000 C 
BRANCH  14  15
ATOM     15  C   UNL     1      45.002   3.946   9.796  0.00  0.00    +0.000 A 
ATOM     16  C   UNL     1      44.860   2.548   9.840  0.00  0.00    +0.000 A 
ATOM     17  C   UNL     1      45.368   1.745   8.814  0.00  0.00    +0.000 A 
ATOM     18  C   UNL     1      46.021   2.328   7.729  0.00  0.00    +0.000 A 
ATOM     19  C   UNL     1      46.148   3.710   7.673  0.00  0.00    +0.000 A 
ATOM     20  F   UNL     1      46.785   4.273   6.637  0.00  0.00    +0.000 F 
ATOM     21  C   UNL     1      45.647   4.518   8.688  0.00  0.00    +0.000 A 
ENDBRANCH  14  15
ENDBRANCH  12  14
ENDBRANCH   1  12
TORSDOF 4
ENDMDL
MODEL 5
REMARK VINA RESULT:    -6.571      3.461      5.735
REMARK INTER + INTRA:          -8.585
REMARK INTER:                  -9.571
REMARK INTRA:                   0.986
REMARK UNBOUND:                -0.477
REMARK  Name = 
REMARK  5 active torsions:
REMARK  status: ('A' for Active; 'I' for Inactive)
REMARK    1  A    between atoms: C_1  and  C_2
REMARK    2  A    between atoms: C_2  and  O_3
REMARK    3  A    between atoms: C_2  and  C_13
REMARK    4  A    between atoms: O_3  and  C_4
REMARK    5  A    between atoms: C_7  and  C_8
REMARK                            x       y       z     vdW  Elec       q    Type
REMARK                         _______ _______ _______ _____ _____    ______ ____
ROOT
ATOM      1  C   UNL     1      45.142   5.105  11.774  0.00  0.00    +0.000 A 
ATOM      2  C   UNL     1      44.668   4.354  12.846  0.00  0.00    +0.000 A 
ATOM      3  N   UNL     1      45.363   4.194  14.000  0.00  0.00    +0.000 NA
ATOM      4  C   UNL     1      46.580   4.813  14.016  0.00  0.00    +0.000 A 
ATOM      5  C   UNL     1      47.070   5.528  12.929  0.00  0.00    +0.000 A 
ATOM      6  N   UNL     1      46.360   5.691  11.781  0.00  0.00    +0.000 NA
ENDROOT
BRANCH   4   7
ATOM      7  C   UNL     1      47.363   4.739  15.279  0.00  0.00    +0.000 C 
ATOM      8  N   UNL     1      46.931   3.807  16.185  0.00  0.00    +0.000 N 
ATOM      9  O   UNL     1      48.317   5.472  15.504  0.00  0.00    +0.000 OA
ATOM     10  H   UNL     1      46.123   3.232  15.973  0.00  0.00    +0.000 HD
ATOM     11  H   UNL     1      47.394   3.724  17.080  0.00  0.00    +0.000 HD
ENDBRANCH   4   7
BRANCH   1  12
ATOM     12  O   UNL     1      44.298   5.259  10.698  0.00  0.00    +0.000 OA
BRANCH  12  14
ATOM     13  C   UNL     1      43.570   2.952  11.160  0.00  0.00    +0.000 C 
ATOM     14  C   UNL     1      43.839   4.035  10.105  0.00  0.00    +0.000 C 
BRANCH  14  15
ATOM     15  C   UNL     1      44.950   3.506   9.200  0.00  0.00    +0.000 A 
ATOM     16  C   UNL     1      45.638   4.378   8.339  0.00  0.00    +0.000 A 
ATOM     17  C   UNL     1      46.555   3.886   7.404  0.00  0.00    +0.000 A 
ATOM     18  C   UNL     1      46.798   2.516   7.320  0.00  0.00    +0.000 A 
ATOM     19  C   UNL     1      46.135   1.652   8.181  0.00  0.00    +0.000 A 
ATOM     20  F   UNL     1      46.359   0.333   8.095  0.00  0.00    +0.000 F 
ATOM     21  C   UNL     1      45.221   2.130   9.114  0.00  0.00    +0.000 A 
ENDBRANCH  14  15
ENDBRANCH  12  14
ENDBRANCH   1  12
TORSDOF 4
ENDMDL
MODEL 6
REMARK VINA RESULT:    -6.347      4.541      6.762
REMARK INTER + INTRA:          -8.308
REMARK INTER:                  -7.871
REMARK INTRA:                  -0.437
REMARK UNBOUND:                -0.477
REMARK  Name = 
REMARK  5 active torsions:
REMARK  status: ('A' for Active; 'I' for Inactive)
REMARK    1  A    between atoms: C_1  and  C_2
REMARK    2  A    between atoms: C_2  and  O_3
REMARK    3  A    between atoms: C_2  and  C_13
REMARK    4  A    between atoms: O_3  and  C_4
REMARK    5  A    between atoms: C_7  and  C_8
REMARK                            x       y       z     vdW  Elec       q    Type
REMARK                         _______ _______ _______ _____ _____    ______ ____
ROOT
ATOM      1  C   UNL     1      46.534   4.458  14.206  0.00  0.00    +0.000 A 
ATOM      2  C   UNL     1      47.201   5.549  13.657  0.00  0.00    +0.000 A 
ATOM      3  N   UNL     1      48.177   6.224  14.314  0.00  0.00    +0.000 NA
ATOM      4  C   UNL     1      48.436   5.759  15.572  0.00  0.00    +0.000 A 
ATOM      5  C   UNL     1      47.739   4.696  16.135  0.00  0.00    +0.000 A 
ATOM      6  N   UNL     1      46.770   4.019  15.463  0.00  0.00    +0.000 NA
ENDROOT
BRANCH   4   7
ATOM      7  C   UNL     1      49.545   6.409  16.322  0.00  0.00    +0.000 C 
ATOM      8  N   UNL     1      49.493   6.273  17.683  0.00  0.00    +0.000 N 
ATOM      9  O   UNL     1      50.435   7.038  15.764  0.00  0.00    +0.000 OA
ATOM     10  H   UNL     1      48.729   5.762  18.112  0.00  0.00    +0.000 HD
ATOM     11  H   UNL     1      50.195   6.717  18.260  0.00  0.00    +0.000 HD
ENDBRANCH   4   7
BRANCH   1  12
ATOM     12  O   UNL     1      45.628   3.809  13.398  0.00  0.00    +0.000 OA
BRANCH  12  14
ATOM     13  C   UNL     1      43.349   4.572  12.861  0.00  0.00    +0.000 C 
ATOM     14  C   UNL     1      44.850   4.664  12.547  0.00  0.00    +0.000 C 
BRANCH  14  15
ATOM     15  C   UNL     1      45.031   4.185  11.108  0.00  0.00    +0.000 A 
ATOM     16  C   UNL     1      45.424   5.089  10.106  0.00  0.00    +0.000 A 
ATOM     17  C   UNL     1      45.454   4.700   8.763  0.00  0.00    +0.000 A 
ATOM     18  C   UNL     1      45.095   3.402   8.404  0.00  0.00    +0.000 A 
ATOM     19  C   UNL     1      44.724   2.500   9.393  0.00  0.00    +0.000 A 
ATOM     20  F   UNL     1      44.368   1.254   9.050  0.00  0.00    +0.000 F 
ATOM     21  C   UNL     1      44.689   2.876  10.731  0.00  0.00    +0.000 A 
ENDBRANCH  14  15
ENDBRANCH  12  14
ENDBRANCH   1  12
TORSDOF 4
ENDMDL
MODEL 7
REMARK VINA RESULT:    -6.326      3.874      6.153
REMARK INTER + INTRA:          -8.282
REMARK INTER:                  -7.826
REMARK INTRA:                  -0.456
REMARK UNBOUND:                -0.477
REMARK  Name = 
REMARK  5 active torsions:
REMARK  status: ('A' for Active; 'I' for Inactive)
REMARK    1  A    between atoms: C_1  and  C_2
REMARK    2  A    between atoms: C_2  and  O_3
REMARK    3  A    between atoms: C_2  and  C_13
REMARK    4  A    between atoms: O_3  and  C_4
REMARK    5  A    between atoms: C_7  and  C_8
REMARK                            x       y       z     vdW  Elec       q    Type
REMARK                         _______ _______ _______ _____ _____    ______ ____
ROOT
ATOM      1  C   UNL     1      46.299   5.788  12.725  0.00  0.00    +0.000 A 
ATOM      2  C   UNL     1      47.143   5.318  13.728  0.00  0.00    +0.000 A 
ATOM      3  N   UNL     1      48.271   5.967  14.107  0.00  0.00    +0.000 NA
ATOM      4  C   UNL     1      48.527   7.111  13.406  0.00  0.00    +0.000 A 
ATOM      5  C   UNL     1      47.707   7.557  12.376  0.00  0.00    +0.000 A 
ATOM      6  N   UNL     1      46.571   6.903  12.012  0.00  0.00    +0.000 NA
ENDROOT
BRANCH   4   7
ATOM      7  C   UNL     1      49.712   7.911  13.820  0.00  0.00    +0.000 C 
ATOM      8  N   UNL     1      50.580   7.280  14.670  0.00  0.00    +0.000 N 
ATOM      9  O   UNL     1      49.891   9.062  13.444  0.00  0.00    +0.000 OA
ATOM     10  H   UNL     1      50.387   6.332  14.978  0.00  0.00    +0.000 HD
ATOM     11  H   UNL     1      51.389   7.774  15.021  0.00  0.00    +0.000 HD
ENDBRANCH   4   7
BRANCH   1  12
ATOM     12  O   UNL     1      45.141   5.079  12.500  0.00  0.00    +0.000 OA
BRANCH  12  14
ATOM     13  C   UNL     1      42.925   5.210  11.433  0.00  0.00    +0.000 C 
ATOM     14  C   UNL     1      44.440   5.427  11.297  0.00  0.00    +0.000 C 
BRANCH  14  15
ATOM     15  C   UNL     1      44.922   4.496  10.186  0.00  0.00    +0.000 A 
ATOM     16  C   UNL     1      45.668   5.007   9.109  0.00  0.00    +0.000 A 
ATOM     17  C   UNL     1      45.992   4.197   8.015  0.00  0.00    +0.000 A 
ATOM     18  C   UNL     1      45.577   2.867   7.985  0.00  0.00    +0.000 A 
ATOM     19  C   UNL     1      44.856   2.353   9.055  0.00  0.00    +0.000 A 
ATOM     20  F   UNL     1      44.447   1.077   9.023  0.00  0.00    +0.000 F 
ATOM     21  C   UNL     1      44.528   3.149  10.147  0.00  0.00    +0.000 A 
ENDBRANCH  14  15
ENDBRANCH  12  14
ENDBRANCH   1  12
TORSDOF 4
ENDMDL
MODEL 8
REMARK VINA RESULT:    -6.230      3.860      5.913
REMARK INTER + INTRA:          -8.165
REMARK INTER:                  -7.890
REMARK INTRA:                  -0.274
REMARK UNBOUND:                -0.477
REMARK  Name = 
REMARK  5 active torsions:
REMARK  status: ('A' for Active; 'I' for Inactive)
REMARK    1  A    between atoms: C_1  and  C_2
REMARK    2  A    between atoms: C_2  and  O_3
REMARK    3  A    between atoms: C_2  and  C_13
REMARK    4  A    between atoms: O_3  and  C_4
REMARK    5  A    between atoms: C_7  and  C_8
REMARK                            x       y       z     vdW  Elec       q    Type
REMARK                         _______ _______ _______ _____ _____    ______ ____
ROOT
ATOM      1  C   UNL     1      46.803   5.143  13.521  0.00  0.00    +0.000 A 
ATOM      2  C   UNL     1      46.464   3.811  13.302  0.00  0.00    +0.000 A 
ATOM      3  N   UNL     1      45.286   3.431  12.747  0.00  0.00    +0.000 NA
ATOM      4  C   UNL     1      44.447   4.464  12.443  0.00  0.00    +0.000 A 
ATOM      5  C   UNL     1      44.769   5.792  12.701  0.00  0.00    +0.000 A 
ATOM      6  N   UNL     1      45.958   6.162  13.248  0.00  0.00    +0.000 NA
ENDROOT
BRANCH   4   7
ATOM      7  C   UNL     1      43.167   4.123  11.764  0.00  0.00    +0.000 C 
ATOM      8  N   UNL     1      42.232   5.123  11.736  0.00  0.00    +0.000 N 
ATOM      9  O   UNL     1      42.953   3.019  11.281  0.00  0.00    +0.000 OA
ATOM     10  H   UNL     1      42.436   6.019  12.166  0.00  0.00    +0.000 HD
ATOM     11  H   UNL     1      41.325   4.952  11.322  0.00  0.00    +0.000 HD
ENDBRANCH   4   7
BRANCH   1  12
ATOM     12  O   UNL     1      48.065   5.394  14.009  0.00  0.00    +0.000 OA
BRANCH  12  14
ATOM     13  C   UNL     1      49.299   7.128  15.248  0.00  0.00    +0.000 C 
ATOM     14  C   UNL     1      48.108   6.159  15.223  0.00  0.00    +0.000 C 
BRANCH  14  15
ATOM     15  C   UNL     1      48.303   5.187  16.385  0.00  0.00    +0.000 A 
ATOM     16  C   UNL     1      49.504   5.190  17.116  0.00  0.00    +0.000 A 
ATOM     17  C   UNL     1      49.755   4.213  18.085  0.00  0.00    +0.000 A 
ATOM     18  C   UNL     1      48.807   3.223  18.339  0.00  0.00    +0.000 A 
ATOM     19  C   UNL     1      47.611   3.227  17.633  0.00  0.00    +0.000 A 
ATOM     20  F   UNL     1      46.703   2.269  17.867  0.00  0.00    +0.000 F 
ATOM     21  C   UNL     1      47.352   4.192  16.666  0.00  0.00    +0.000 A 
ENDBRANCH  14  15
ENDBRANCH  12  14
ENDBRANCH   1  12
TORSDOF 4
ENDMDL
MODEL 9
REMARK VINA RESULT:    -6.218      4.372      6.331
REMARK INTER + INTRA:          -8.150
REMARK INTER:                  -7.712
REMARK INTRA:                  -0.438
REMARK UNBOUND:                -0.477
REMARK  Name = 
REMARK  5 active torsions:
REMARK  status: ('A' for Active; 'I' for Inactive)
REMARK    1  A    between atoms: C_1  and  C_2
REMARK    2  A    between atoms: C_2  and  O_3
REMARK    3  A    between atoms: C_2  and  C_13
REMARK    4  A    between atoms: O_3  and  C_4
REMARK    5  A    between atoms: C_7  and  C_8
REMARK                            x       y       z     vdW  Elec       q    Type
REMARK                         _______ _______ _______ _____ _____    ______ ____
ROOT
ATOM      1  C   UNL     1      46.968   4.375  14.116  0.00  0.00    +0.000 A 
ATOM      2  C   UNL     1      46.336   5.547  13.711  0.00  0.00    +0.000 A 
ATOM      3  N   UNL     1      45.337   5.567  12.794  0.00  0.00    +0.000 NA
ATOM      4  C   UNL     1      45.016   4.343  12.281  0.00  0.00    +0.000 A 
ATOM      5  C   UNL     1      45.678   3.178  12.655  0.00  0.00    +0.000 A 
ATOM      6  N   UNL     1      46.671   3.168  13.583  0.00  0.00    +0.000 NA
ENDROOT
BRANCH   4   7
ATOM      7  C   UNL     1      43.879   4.284  11.323  0.00  0.00    +0.000 C 
ATOM      8  N   UNL     1      43.616   5.447  10.650  0.00  0.00    +0.000 N 
ATOM      9  O   UNL     1      43.210   3.272  11.160  0.00  0.00    +0.000 OA
ATOM     10  H   UNL     1      44.179   6.272  10.827  0.00  0.00    +0.000 HD
ATOM     11  H   UNL     1      42.836   5.491  10.008  0.00  0.00    +0.000 HD
ENDBRANCH   4   7
BRANCH   1  12
ATOM     12  O   UNL     1      47.905   4.484  15.118  0.00  0.00    +0.000 OA
BRANCH  12  14
ATOM     13  C   UNL     1      46.817   4.081  17.290  0.00  0.00    +0.000 C 
ATOM     14  C   UNL     1      47.755   3.549  16.197  0.00  0.00    +0.000 C 
BRANCH  14  15
ATOM     15  C   UNL     1      49.124   3.354  16.844  0.00  0.00    +0.000 A 
ATOM     16  C   UNL     1      49.842   4.462  17.328  0.00  0.00    +0.000 A 
ATOM     17  C   UNL     1      51.155   4.317  17.790  0.00  0.00    +0.000 A 
ATOM     18  C   UNL     1      51.765   3.064  17.778  0.00  0.00    +0.000 A 
ATOM     19  C   UNL     1      51.053   1.964  17.319  0.00  0.00    +0.000 A 
ATOM     20  F   UNL     1      51.641   0.760  17.296  0.00  0.00    +0.000 F 
ATOM     21  C   UNL     1      49.748   2.096  16.856  0.00  0.00    +0.000 A 
ENDBRANCH  14  15
ENDBRANCH  12  14
ENDBRANCH   1  12
TORSDOF 4
ENDMDL
