MODEL 1
REMARK VINA RESULT:    -8.039      0.000      0.000
REMARK INTER + INTRA:         -10.393
REMARK INTER:                 -10.154
REMARK INTRA:                  -0.239
REMARK UNBOUND:                -0.239
REMARK  Name = 
REMARK  5 active torsions:
REMARK  status: ('A' for Active; 'I' for Inactive)
REMARK    1  A    between atoms: N_1  and  C_2
REMARK    2  A    between atoms: C_2  and  C_3
REMARK    3  A    between atoms: C_6  and  C_7
REMARK    4  A    between atoms: C_7  and  N_8
REMARK    5  A    between atoms: C_13  and  C_14
REMARK                            x       y       z     vdW  Elec       q    Type
REMARK                         _______ _______ _______ _____ _____    ______ ____
ROOT
ATOM      1  N   UNL     1      43.843   4.377  10.509  0.00  0.00    +0.000 N 
ATOM      2  C   UNL     1      43.392   3.306  11.240  0.00  0.00    +0.000 A 
ATOM      3  C   UNL     1      43.947   2.165  10.714  0.00  0.00    +0.000 A 
ATOM      4  C   UNL     1      44.817   2.558   9.663  0.00  0.00    +0.000 A 
ATOM      5  C   UNL     1      45.639   1.832   8.772  0.00  0.00    +0.000 A 
ATOM      6  C   UNL     1      46.426   2.518   7.837  0.00  0.00    +0.000 A 
ATOM      7  C   UNL     1      46.415   3.918   7.822  0.00  0.00    +0.000 A 
ATOM      8  C   UNL     1      45.596   4.660   8.687  0.00  0.00    +0.000 A 
ATOM      9  C   UNL     1      44.784   3.953   9.588  0.00  0.00    +0.000 A 
ENDROOT
BRANCH   6  10
ATOM     10  C   UNL     1      47.277   1.815   6.831  0.00  0.00    +0.000 C 
ATOM     11  N   UNL     1      48.307   2.496   6.243  0.00  0.00    +0.000 N 
ATOM     12  O   UNL     1      47.079   0.642   6.535  0.00  0.00    +0.000 OA
ATOM     13  H   UNL     1      48.556   3.453   6.429  0.00  0.00    +0.000 HD
ATOM     14  H   UNL     1      48.879   1.975   5.591  0.00  0.00    +0.000 HD
ENDBRANCH   6  10
BRANCH   1  15
ATOM     15  C   UNL     1      43.391   5.743  10.730  0.00  0.00    +0.000 C 
BRANCH  15  19
ATOM     16  C   UNL     1      46.057   5.194  12.501  0.00  0.00    +0.000 C 
ATOM     17  C   UNL     1      46.546   6.542  11.974  0.00  0.00    +0.000 C 
ATOM     18  C   UNL     1      45.304   7.249  11.423  0.00  0.00    +0.000 C 
ATOM     19  C   UNL     1      44.076   6.458  11.915  0.00  0.00    +0.000 C 
ATOM     20  C   UNL     1      44.648   5.525  12.993  0.00  0.00    +0.000 C 
BRANCH  16  21
ATOM     21  C   UNL     1      46.986   4.623  13.574  0.00  0.00    +0.000 C 
BRANCH  21  22
ATOM     22  N   UNL     1      46.826   3.180  13.710  0.00  0.00    +0.000 NA
ATOM     23  H   UNL     1      46.521   2.962  14.658  0.00  0.00    +0.000 HD
ATOM     24  H   UNL     1      47.725   2.717  13.586  0.00  0.00    +0.000 HD
ENDBRANCH  21  22
ENDBRANCH  16  21
ENDBRANCH  15  19
ENDBRANCH   1  15
TORSDOF 5
ENDMDL
MODEL 2
REMARK VINA RESULT:    -7.018      3.064      6.384
REMARK INTER + INTRA:          -9.103
REMARK INTER:                  -8.564
REMARK INTRA:                  -0.539
REMARK UNBOUND:                -0.239
REMARK  Name = 
REMARK  5 active torsions:
REMARK  status: ('A' for Active; 'I' for Inactive)
REMARK    1  A    between atoms: N_1  and  C_2
REMARK    2  A    between atoms: C_2  and  C_3
REMARK    3  A    between atoms: C_6  and  C_7
REMARK    4  A    between atoms: C_7  and  N_8
REMARK    5  A    between atoms: C_13  and  C_14
REMARK                            x       y       z     vdW  Elec       q    Type
REMARK                         _______ _______ _______ _____ _____    ______ ____
ROOT
ATOM      1  N   UNL     1      44.611   4.514  10.785  0.00  0.00    +0.000 N 
ATOM      2  C   UNL     1      43.280   4.845  10.719  0.00  0.00    +0.000 A 
ATOM      3  C   UNL     1      43.124   6.100  11.254  0.00  0.00    +0.000 A 
ATOM      4  C   UNL     1      44.414   6.579  11.604  0.00  0.00    +0.000 A 
ATOM      5  C   UNL     1      44.866   7.782  12.189  0.00  0.00    +0.000 A 
ATOM      6  C   UNL     1      46.238   7.984  12.390  0.00  0.00    +0.000 A 
ATOM      7  C   UNL     1      47.147   7.004  11.973  0.00  0.00    +0.000 A 
ATOM      8  C   UNL     1      46.720   5.796  11.402  0.00  0.00    +0.000 A 
ATOM      9  C   UNL     1      45.340   5.595  11.248  0.00  0.00    +0.000 A 
ENDROOT
BRANCH   6  10
ATOM     10  C   UNL     1      46.784   9.207  13.051  0.00  0.00    +0.000 C 
ATOM     11  N   UNL     1      47.066   9.168  14.389  0.00  0.00    +0.000 N 
ATOM     12  O   UNL     1      46.996  10.235  12.418  0.00  0.00    +0.000 OA
ATOM     13  H   UNL     1      46.939   8.370  14.990  0.00  0.00    +0.000 HD
ATOM     14  H   UNL     1      47.463  10.006  14.792  0.00  0.00    +0.000 HD
ENDBRANCH   6  10
BRANCH   1  15
ATOM     15  C   UNL     1      45.133   3.215  10.387  0.00  0.00    +0.000 C 
BRANCH  15  19
ATOM     16  C   UNL     1      46.851   2.652   7.689  0.00  0.00    +0.000 C 
ATOM     17  C   UNL     1      46.286   1.234   7.763  0.00  0.00    +0.000 C 
ATOM     18  C   UNL     1      45.094   1.310   8.720  0.00  0.00    +0.000 C 
ATOM     19  C   UNL     1      44.782   2.803   8.940  0.00  0.00    +0.000 C 
ATOM     20  C   UNL     1      45.598   3.513   7.849  0.00  0.00    +0.000 C 
BRANCH  16  21
ATOM     21  C   UNL     1      47.629   2.897   6.394  0.00  0.00    +0.000 C 
BRANCH  21  22
ATOM     22  N   UNL     1      48.414   1.729   6.011  0.00  0.00    +0.000 NA
ATOM     23  H   UNL     1      48.965   1.416   6.809  0.00  0.00    +0.000 HD
ATOM     24  H   UNL     1      49.083   1.984   5.285  0.00  0.00    +0.000 HD
ENDBRANCH  21  22
ENDBRANCH  16  21
ENDBRANCH  15  19
ENDBRANCH   1  15
TORSDOF 5
ENDMDL
MODEL 3
REMARK VINA RESULT:    -6.619      1.312      2.340
REMARK INTER + INTRA:          -8.600
REMARK INTER:                  -8.807
REMARK INTRA:                   0.207
REMARK UNBOUND:                -0.239
REMARK  Name = 
REMARK  5 active torsions:
REMARK  status: ('A' for Active; 'I' for Inactive)
REMARK    1  A    between atoms: N_1  and  C_2
REMARK    2  A    between atoms: C_2  and  C_3
REMARK    3  A    between atoms: C_6  and  C_7
REMARK    4  A    between atoms: C_7  and  N_8
REMARK    5  A    between atoms: C_13  and  C_14
REMARK                            x       y       z     vdW  Elec       q    Type
REMARK                         _______ _______ _______ _____ _____    ______ ____
ROOT
ATOM      1  N   UNL     1      43.998   3.448  10.234  0.00  0.00    +0.000 N 
ATOM      2  C   UNL     1      43.781   4.782   9.994  0.00  0.00    +0.000 A 
ATOM      3  C   UNL     1      44.590   5.166   8.953  0.00  0.00    +0.000 A 
ATOM      4  C   UNL     1      45.283   4.012   8.501  0.00  0.00    +0.000 A 
ATOM      5  C   UNL     1      46.237   3.801   7.481  0.00  0.00    +0.000 A 
ATOM      6  C   UNL     1      46.730   2.510   7.247  0.00  0.00    +0.000 A 
ATOM      7  C   UNL     1      46.242   1.438   8.004  0.00  0.00    +0.000 A 
ATOM      8  C   UNL     1      45.304   1.626   9.031  0.00  0.00    +0.000 A 
ATOM      9  C   UNL     1      44.855   2.932   9.278  0.00  0.00    +0.000 A 
ENDROOT
BRANCH   6  10
ATOM     10  C   UNL     1      47.778   2.222   6.222  0.00  0.00    +0.000 C 
ATOM     11  N   UNL     1      47.798   2.957   5.069  0.00  0.00    +0.000 N 
ATOM     12  O   UNL     1      48.623   1.352   6.401  0.00  0.00    +0.000 OA
ATOM     13  H   UNL     1      47.158   3.698   4.837  0.00  0.00    +0.000 HD
ATOM     14  H   UNL     1      48.543   2.752   4.415  0.00  0.00    +0.000 HD
ENDBRANCH   6  10
BRANCH   1  15
ATOM     15  C   UNL     1      43.373   2.721  11.330  0.00  0.00    +0.000 C 
BRANCH  15  19
ATOM     16  C   UNL     1      45.617   4.784  12.452  0.00  0.00    +0.000 C 
ATOM     17  C   UNL     1      44.483   5.387  13.279  0.00  0.00    +0.000 C 
ATOM     18  C   UNL     1      43.362   4.344  13.272  0.00  0.00    +0.000 C 
ATOM     19  C   UNL     1      43.962   3.036  12.722  0.00  0.00    +0.000 C 
ATOM     20  C   UNL     1      45.477   3.290  12.743  0.00  0.00    +0.000 C 
BRANCH  16  21
ATOM     21  C   UNL     1      46.978   5.378  12.819  0.00  0.00    +0.000 C 
BRANCH  21  22
ATOM     22  N   UNL     1      46.975   5.934  14.167  0.00  0.00    +0.000 NA
ATOM     23  H   UNL     1      47.178   6.932  14.121  0.00  0.00    +0.000 HD
ATOM     24  H   UNL     1      47.724   5.516  14.717  0.00  0.00    +0.000 HD
ENDBRANCH  21  22
ENDBRANCH  16  21
ENDBRANCH  15  19
ENDBRANCH   1  15
TORSDOF 5
ENDMDL
MODEL 4
REMARK VINA RESULT:    -6.447      1.866      2.384
REMARK INTER + INTRA:          -8.382
REMARK INTER:                  -7.652
REMARK INTRA:                  -0.731
REMARK UNBOUND:                -0.239
REMARK  Name = 
REMARK  5 active torsions:
REMARK  status: ('A' for Active; 'I' for Inactive)
REMARK    1  A    between atoms: N_1  and  C_2
REMARK    2  A    between atoms: C_2  and  C_3
REMARK    3  A    between atoms: C_6  and  C_7
REMARK    4  A    between atoms: C_7  and  N_8
REMARK    5  A    between atoms: C_13  and  C_14
REMARK                            x       y       z     vdW  Elec       q    Type
REMARK                         _______ _______ _______ _____ _____    ______ ____
ROOT
ATOM      1  N   UNL     1      44.290   5.991  11.593  0.00  0.00    +0.000 N 
ATOM      2  C   UNL     1      43.634   5.236  12.534  0.00  0.00    +0.000 A 
ATOM      3  C   UNL     1      43.680   3.922  12.135  0.00  0.00    +0.000 A 
ATOM      4  C   UNL     1      44.444   3.864  10.940  0.00  0.00    +0.000 A 
ATOM      5  C   UNL     1      44.816   2.802  10.087  0.00  0.00    +0.000 A 
ATOM      6  C   UNL     1      45.620   3.057   8.968  0.00  0.00    +0.000 A 
ATOM      7  C   UNL     1      46.076   4.360   8.730  0.00  0.00    +0.000 A 
ATOM      8  C   UNL     1      45.708   5.433   9.556  0.00  0.00    +0.000 A 
ATOM      9  C   UNL     1      44.868   5.163  10.647  0.00  0.00    +0.000 A 
ENDROOT
BRANCH   6  10
ATOM     10  C   UNL     1      46.007   1.993   7.994  0.00  0.00    +0.000 C 
ATOM     11  N   UNL     1      46.451   2.360   6.753  0.00  0.00    +0.000 N 
ATOM     12  O   UNL     1      45.949   0.805   8.290  0.00  0.00    +0.000 OA
ATOM     13  H   UNL     1      46.546   3.306   6.422  0.00  0.00    +0.000 HD
ATOM     14  H   UNL     1      46.733   1.610   6.134  0.00  0.00    +0.000 HD
ENDBRANCH   6  10
BRANCH   1  15
ATOM     15  C   UNL     1      44.364   7.444  11.644  0.00  0.00    +0.000 C 
BRANCH  15  19
ATOM     16  C   UNL     1      47.570   7.907  11.880  0.00  0.00    +0.000 C 
ATOM     17  C   UNL     1      47.228   9.387  12.043  0.00  0.00    +0.000 C 
ATOM     18  C   UNL     1      45.738   9.435  12.390  0.00  0.00    +0.000 C 
ATOM     19  C   UNL     1      45.305   7.997  12.736  0.00  0.00    +0.000 C 
ATOM     20  C   UNL     1      46.634   7.241  12.890  0.00  0.00    +0.000 C 
BRANCH  16  21
ATOM     21  C   UNL     1      49.056   7.629  12.113  0.00  0.00    +0.000 C 
BRANCH  21  22
ATOM     22  N   UNL     1      49.256   6.554  13.078  0.00  0.00    +0.000 NA
ATOM     23  H   UNL     1      48.928   6.857  13.994  0.00  0.00    +0.000 HD
ATOM     24  H   UNL     1      50.251   6.361  13.182  0.00  0.00    +0.000 HD
ENDBRANCH  21  22
ENDBRANCH  16  21
ENDBRANCH  15  19
ENDBRANCH   1  15
TORSDOF 5
ENDMDL
MODEL 5
REMARK VINA RESULT:    -6.248      4.520      8.071
REMARK INTER + INTRA:          -8.131
REMARK INTER:                  -7.729
REMARK INTRA:                  -0.402
REMARK UNBOUND:                -0.239
REMARK  Name = 
REMARK  5 active torsions:
REMARK  status: ('A' for Active; 'I' for Inactive)
REMARK    1  A    between atoms: N_1  and  C_2
REMARK    2  A    between atoms: C_2  and  C_3
REMARK    3  A    between atoms: C_6  and  C_7
REMARK    4  A    between atoms: C_7  and  N_8
REMARK    5  A    between atoms: C_13  and  C_14
REMARK                            x       y       z     vdW  Elec       q    Type
REMARK                         _______ _______ _______ _____ _____    ______ ____
ROOT
ATOM      1  N   UNL     1      47.140   4.995  14.292  0.00  0.00    +0.000 N 
ATOM      2  C   UNL     1      47.723   6.171  13.892  0.00  0.00    +0.000 A 
ATOM      3  C   UNL     1      48.469   6.657  14.938  0.00  0.00    +0.000 A 
ATOM      4  C   UNL     1      48.388   5.713  15.995  0.00  0.00    +0.000 A 
ATOM      5  C   UNL     1      48.935   5.678  17.297  0.00  0.00    +0.000 A 
ATOM      6  C   UNL     1      48.696   4.571  18.122  0.00  0.00    +0.000 A 
ATOM      7  C   UNL     1      47.947   3.494  17.630  0.00  0.00    +0.000 A 
ATOM      8  C   UNL     1      47.383   3.513  16.346  0.00  0.00    +0.000 A 
ATOM      9  C   UNL     1      47.598   4.649  15.551  0.00  0.00    +0.000 A 
ENDROOT
BRANCH   6  10
ATOM     10  C   UNL     1      49.197   4.490  19.527  0.00  0.00    +0.000 C 
ATOM     11  N   UNL     1      48.476   3.781  20.448  0.00  0.00    +0.000 N 
ATOM     12  O   UNL     1      50.243   5.032  19.864  0.00  0.00    +0.000 OA
ATOM     13  H   UNL     1      47.615   3.292  20.266  0.00  0.00    +0.000 HD
ATOM     14  H   UNL     1      48.865   3.724  21.380  0.00  0.00    +0.000 HD
ENDBRANCH   6  10
BRANCH   1  15
ATOM     15  C   UNL     1      46.206   4.244  13.466  0.00  0.00    +0.000 C 
BRANCH  15  19
ATOM     16  C   UNL     1      44.682   4.060  10.604  0.00  0.00    +0.000 C 
ATOM     17  C   UNL     1      43.395   3.982  11.424  0.00  0.00    +0.000 C 
ATOM     18  C   UNL     1      43.766   4.466  12.829  0.00  0.00    +0.000 C 
ATOM     19  C   UNL     1      45.162   5.113  12.733  0.00  0.00    +0.000 C 
ATOM     20  C   UNL     1      45.392   5.265  11.221  0.00  0.00    +0.000 C 
BRANCH  16  21
ATOM     21  C   UNL     1      44.404   4.186   9.105  0.00  0.00    +0.000 C 
BRANCH  21  22
ATOM     22  N   UNL     1      45.481   4.888   8.417  0.00  0.00    +0.000 NA
ATOM     23  H   UNL     1      46.333   4.331   8.465  0.00  0.00    +0.000 HD
ATOM     24  H   UNL     1      45.686   5.764   8.897  0.00  0.00    +0.000 HD
ENDBRANCH  21  22
ENDBRANCH  16  21
ENDBRANCH  15  19
ENDBRANCH   1  15
TORSDOF 5
ENDMDL
MODEL 6
REMARK VINA RESULT:    -6.219      3.253      5.757
REMARK INTER + INTRA:          -8.093
REMARK INTER:                  -7.469
REMARK INTRA:                  -0.624
REMARK UNBOUND:                -0.239
REMARK  Name = 
REMARK  5 active torsions:
REMARK  status: ('A' for Active; 'I' for Inactive)
REMARK    1  A    between atoms: N_1  and  C_2
REMARK    2  A    between atoms: C_2  and  C_3
REMARK    3  A    between atoms: C_6  and  C_7
REMARK    4  A    between atoms: C_7  and  N_8
REMARK    5  A    between atoms: C_13  and  C_14
REMARK                            x       y       z     vdW  Elec       q    Type
REMARK                         _______ _______ _______ _____ _____    ______ ____
ROOT
ATOM      1  N   UNL     1      47.719   6.892  13.899  0.00  0.00    +0.000 N 
ATOM      2  C   UNL     1      47.373   8.206  13.705  0.00  0.00    +0.000 A 
ATOM      3  C   UNL     1      46.295   8.243  12.855  0.00  0.00    +0.000 A 
ATOM      4  C   UNL     1      45.930   6.902  12.568  0.00  0.00    +0.000 A 
ATOM      5  C   UNL     1      44.920   6.331  11.762  0.00  0.00    +0.000 A 
ATOM      6  C   UNL     1      44.785   4.938  11.699  0.00  0.00    +0.000 A 
ATOM      7  C   UNL     1      45.633   4.129  12.465  0.00  0.00    +0.000 A 
ATOM      8  C   UNL     1      46.652   4.672  13.262  0.00  0.00    +0.000 A 
ATOM      9  C   UNL     1      46.797   6.068  13.278  0.00  0.00    +0.000 A 
ENDROOT
BRANCH   6  10
ATOM     10  C   UNL     1      43.776   4.265  10.828  0.00  0.00    +0.000 C 
ATOM     11  N   UNL     1      43.752   4.558   9.492  0.00  0.00    +0.000 N 
ATOM     12  O   UNL     1      42.982   3.450  11.283  0.00  0.00    +0.000 OA
ATOM     13  H   UNL     1      44.369   5.201   9.023  0.00  0.00    +0.000 HD
ATOM     14  H   UNL     1      43.074   4.058   8.931  0.00  0.00    +0.000 HD
ENDBRANCH   6  10
BRANCH   1  15
ATOM     15  C   UNL     1      48.877   6.477  14.678  0.00  0.00    +0.000 C 
BRANCH  15  19
ATOM     16  C   UNL     1      48.685   4.106  16.889  0.00  0.00    +0.000 C 
ATOM     17  C   UNL     1      49.893   4.775  17.543  0.00  0.00    +0.000 C 
ATOM     18  C   UNL     1      49.964   6.182  16.944  0.00  0.00    +0.000 C 
ATOM     19  C   UNL     1      48.636   6.429  16.202  0.00  0.00    +0.000 C 
ATOM     20  C   UNL     1      47.731   5.283  16.680  0.00  0.00    +0.000 C 
BRANCH  16  21
ATOM     21  C   UNL     1      48.117   2.974  17.748  0.00  0.00    +0.000 C 
BRANCH  21  22
ATOM     22  N   UNL     1      46.661   2.932  17.685  0.00  0.00    +0.000 NA
ATOM     23  H   UNL     1      46.345   1.969  17.791  0.00  0.00    +0.000 HD
ATOM     24  H   UNL     1      46.344   3.236  16.765  0.00  0.00    +0.000 HD
ENDBRANCH  21  22
ENDBRANCH  16  21
ENDBRANCH  15  19
ENDBRANCH   1  15
TORSDOF 5
ENDMDL
MODEL 7
REMARK VINA RESULT:    -5.750      3.928      5.588
REMARK INTER + INTRA:          -7.501
REMARK INTER:                  -7.036
REMARK INTRA:                  -0.465
REMARK UNBOUND:                -0.239
REMARK  Name = 
REMARK  5 active torsions:
REMARK  status: ('A' for Active; 'I' for Inactive)
REMARK    1  A    between atoms: N_1  and  C_2
REMARK    2  A    between atoms: C_2  and  C_3
REMARK    3  A    between atoms: C_6  and  C_7
REMARK    4  A    between atoms: C_7  and  N_8
REMARK    5  A    between atoms: C_13  and  C_14
REMARK                            x       y       z     vdW  Elec       q    Type
REMARK                         _______ _______ _______ _____ _____    ______ ____
ROOT
ATOM      1  N   UNL     1      47.324   6.858  13.255  0.00  0.00    +0.000 N 
ATOM      2  C   UNL     1      47.769   6.201  14.375  0.00  0.00    +0.000 A 
ATOM      3  C   UNL     1      47.193   4.954  14.397  0.00  0.00    +0.000 A 
ATOM      4  C   UNL     1      46.416   4.822  13.216  0.00  0.00    +0.000 A 
ATOM      5  C   UNL     1      45.607   3.780  12.709  0.00  0.00    +0.000 A 
ATOM      6  C   UNL     1      44.972   3.935  11.470  0.00  0.00    +0.000 A 
ATOM      7  C   UNL     1      45.176   5.107  10.732  0.00  0.00    +0.000 A 
ATOM      8  C   UNL     1      45.964   6.160  11.221  0.00  0.00    +0.000 A 
ATOM      9  C   UNL     1      46.557   6.003  12.484  0.00  0.00    +0.000 A 
ENDROOT
BRANCH   6  10
ATOM     10  C   UNL     1      44.061   2.898  10.897  0.00  0.00    +0.000 C 
ATOM     11  N   UNL     1      44.502   2.134   9.851  0.00  0.00    +0.000 N 
ATOM     12  O   UNL     1      42.939   2.713  11.352  0.00  0.00    +0.000 OA
ATOM     13  H   UNL     1      45.408   2.202   9.418  0.00  0.00    +0.000 HD
ATOM     14  H   UNL     1      43.867   1.423   9.513  0.00  0.00    +0.000 HD
ENDBRANCH   6  10
BRANCH   1  15
ATOM     15  C   UNL     1      47.661   8.241  12.953  0.00  0.00    +0.000 C 
BRANCH  15  19
ATOM     16  C   UNL     1      50.307   9.953  12.165  0.00  0.00    +0.000 C 
ATOM     17  C   UNL     1      50.950   8.601  11.860  0.00  0.00    +0.000 C 
ATOM     18  C   UNL     1      49.792   7.606  11.743  0.00  0.00    +0.000 C 
ATOM     19  C   UNL     1      48.492   8.428  11.665  0.00  0.00    +0.000 C 
ATOM     20  C   UNL     1      48.980   9.863  11.411  0.00  0.00    +0.000 C 
BRANCH  16  21
ATOM     21  C   UNL     1      51.197  11.124  11.746  0.00  0.00    +0.000 C 
BRANCH  21  22
ATOM     22  N   UNL     1      51.718  10.945  10.396  0.00  0.00    +0.000 NA
ATOM     23  H   UNL     1      51.874  11.857   9.970  0.00  0.00    +0.000 HD
ATOM     24  H   UNL     1      51.024  10.475   9.815  0.00  0.00    +0.000 HD
ENDBRANCH  21  22
ENDBRANCH  16  21
ENDBRANCH  15  19
ENDBRANCH   1  15
TORSDOF 5
ENDMDL
MODEL 8
REMARK VINA RESULT:    -5.653      2.877      6.229
REMARK INTER + INTRA:          -7.379
REMARK INTER:                  -7.565
REMARK INTRA:                   0.186
REMARK UNBOUND:                -0.239
REMARK  Name = 
REMARK  5 active torsions:
REMARK  status: ('A' for Active; 'I' for Inactive)
REMARK    1  A    between atoms: N_1  and  C_2
REMARK    2  A    between atoms: C_2  and  C_3
REMARK    3  A    between atoms: C_6  and  C_7
REMARK    4  A    between atoms: C_7  and  N_8
REMARK    5  A    between atoms: C_13  and  C_14
REMARK                            x       y       z     vdW  Elec       q    Type
REMARK                         _______ _______ _______ _____ _____    ______ ____
ROOT
ATOM      1  N   UNL     1      44.778   4.454  11.274  0.00  0.00    +0.000 N 
ATOM      2  C   UNL     1      44.369   5.618  10.672  0.00  0.00    +0.000 A 
ATOM      3  C   UNL     1      44.974   6.668  11.319  0.00  0.00    +0.000 A 
ATOM      4  C   UNL     1      45.830   6.124  12.312  0.00  0.00    +0.000 A 
ATOM      5  C   UNL     1      46.685   6.711  13.271  0.00  0.00    +0.000 A 
ATOM      6  C   UNL     1      47.446   5.892  14.116  0.00  0.00    +0.000 A 
ATOM      7  C   UNL     1      47.377   4.501  13.974  0.00  0.00    +0.000 A 
ATOM      8  C   UNL     1      46.525   3.896  13.037  0.00  0.00    +0.000 A 
ATOM      9  C   UNL     1      45.739   4.732  12.229  0.00  0.00    +0.000 A 
ENDROOT
BRANCH   6  10
ATOM     10  C   UNL     1      48.330   6.442  15.188  0.00  0.00    +0.000 C 
ATOM     11  N   UNL     1      48.278   7.780  15.468  0.00  0.00    +0.000 N 
ATOM     12  O   UNL     1      49.086   5.718  15.825  0.00  0.00    +0.000 OA
ATOM     13  H   UNL     1      47.684   8.451  15.010  0.00  0.00    +0.000 HD
ATOM     14  H   UNL     1      48.870   8.107  16.221  0.00  0.00    +0.000 HD
ENDBRANCH   6  10
BRANCH   1  15
ATOM     15  C   UNL     1      44.268   3.141  10.905  0.00  0.00    +0.000 C 
BRANCH  15  19
ATOM     16  C   UNL     1      46.273   3.354   8.358  0.00  0.00    +0.000 C 
ATOM     17  C   UNL     1      45.993   1.865   8.159  0.00  0.00    +0.000 C 
ATOM     18  C   UNL     1      44.736   1.565   8.980  0.00  0.00    +0.000 C 
ATOM     19  C   UNL     1      44.121   2.919   9.384  0.00  0.00    +0.000 C 
ATOM     20  C   UNL     1      44.866   3.936   8.505  0.00  0.00    +0.000 C 
BRANCH  16  21
ATOM     21  C   UNL     1      47.087   3.947   7.206  0.00  0.00    +0.000 C 
BRANCH  21  22
ATOM     22  N   UNL     1      47.872   2.926   6.523  0.00  0.00    +0.000 NA
ATOM     23  H   UNL     1      48.573   2.555   7.161  0.00  0.00    +0.000 HD
ATOM     24  H   UNL     1      48.385   3.344   5.748  0.00  0.00    +0.000 HD
ENDBRANCH  21  22
ENDBRANCH  16  21
ENDBRANCH  15  19
ENDBRANCH   1  15
TORSDOF 5
ENDMDL
MODEL 9
REMARK VINA RESULT:    -5.376      3.673      5.834
REMARK INTER + INTRA:          -7.029
REMARK INTER:                  -6.451
REMARK INTRA:                  -0.578
REMARK UNBOUND:                -0.239
REMARK  Name = 
REMARK  5 active torsions:
REMARK  status: ('A' for Active; 'I' for Inactive)
REMARK    1  A    between atoms: N_1  and  C_2
REMARK    2  A    between atoms: C_2  and  C_3
REMARK    3  A    between atoms: C_6  and  C_7
REMARK    4  A    between atoms: C_7  and  N_8
REMARK    5  A    between atoms: C_13  and  C_14
REMARK                            x       y       z     vdW  Elec       q    Type
REMARK                         _______ _______ _______ _____ _____    ______ ____
ROOT
ATOM      1  N   UNL     1      47.221   7.764  13.092  0.00  0.00    +0.000 N 
ATOM      2  C   UNL     1      46.468   8.836  12.684  0.00  0.00    +0.000 A 
ATOM      3  C   UNL     1      45.302   8.357  12.137  0.00  0.00    +0.000 A 
ATOM      4  C   UNL     1      45.316   6.944  12.271  0.00  0.00    +0.000 A 
ATOM      5  C   UNL     1      44.405   5.933  11.893  0.00  0.00    +0.000 A 
ATOM      6  C   UNL     1      44.689   4.594  12.193  0.00  0.00    +0.000 A 
ATOM      7  C   UNL     1      45.857   4.278  12.899  0.00  0.00    +0.000 A 
ATOM      8  C   UNL     1      46.783   5.264  13.273  0.00  0.00    +0.000 A 
ATOM      9  C   UNL     1      46.501   6.594  12.925  0.00  0.00    +0.000 A 
ENDROOT
BRANCH   6  10
ATOM     10  C   UNL     1      43.799   3.469  11.778  0.00  0.00    +0.000 C 
ATOM     11  N   UNL     1      43.793   2.319  12.519  0.00  0.00    +0.000 N 
ATOM     12  O   UNL     1      43.068   3.561  10.798  0.00  0.00    +0.000 OA
ATOM     13  H   UNL     1      44.346   2.152  13.343  0.00  0.00    +0.000 HD
ATOM     14  H   UNL     1      43.154   1.593  12.222  0.00  0.00    +0.000 HD
ENDBRANCH   6  10
BRANCH   1  15
ATOM     15  C   UNL     1      48.563   7.892  13.641  0.00  0.00    +0.000 C 
BRANCH  15  19
ATOM     16  C   UNL     1      50.481   6.745  15.998  0.00  0.00    +0.000 C 
ATOM     17  C   UNL     1      50.820   8.209  16.276  0.00  0.00    +0.000 C 
ATOM     18  C   UNL     1      49.733   9.028  15.577  0.00  0.00    +0.000 C 
ATOM     19  C   UNL     1      48.612   8.050  15.176  0.00  0.00    +0.000 C 
ATOM     20  C   UNL     1      48.953   6.766  15.949  0.00  0.00    +0.000 C 
BRANCH  16  21
ATOM     21  C   UNL     1      51.069   5.805  17.052  0.00  0.00    +0.000 C 
BRANCH  21  22
ATOM     22  N   UNL     1      50.081   4.842  17.522  0.00  0.00    +0.000 NA
ATOM     23  H   UNL     1      49.183   5.038  17.085  0.00  0.00    +0.000 HD
ATOM     24  H   UNL     1      49.939   4.951  18.526  0.00  0.00    +0.000 HD
ENDBRANCH  21  22
ENDBRANCH  16  21
ENDBRANCH  15  19
ENDBRANCH   1  15
TORSDOF 5
ENDMDL
