MODEL 1
REMARK VINA RESULT:    -8.647      0.000      0.000
REMARK INTER + INTRA:         -12.605
REMARK INTER:                 -11.680
REMARK INTRA:                  -0.926
REMARK UNBOUND:                -0.926
REMARK  Name = 
REMARK  6 active torsions:
REMARK  status: ('A' for Active; 'I' for Inactive)
REMARK    1  A    between atoms: C_2  and  C_3
REMARK    2  A    between atoms: C_6  and  C_7
REMARK    3  A    between atoms: C_11  and  C_12
REMARK    4  A    between atoms: C_12  and  N_13
REMARK    5  A    between atoms: N_13  and  C_14
REMARK    6  A    between atoms: C_17  and  C_18
REMARK                            x       y       z     vdW  Elec       q    Type
REMARK                         _______ _______ _______ _____ _____    ______ ____
ROOT
ATOM      1  C   UNL     1      43.854   4.956  11.410  0.00  0.00    +0.000 C 
ATOM      2  C   UNL     1      43.136   6.268  11.139  0.00  0.00    +0.000 C 
ATOM      3  C   UNL     1      42.584   5.340  12.167  0.00  0.00    +0.000 C 
ENDROOT
BRANCH   1   8
ATOM      4  C   UNL     1      47.152   6.146  12.581  0.00  0.00    +0.000 A 
ATOM      5  N   UNL     1      47.632   5.187  13.390  0.00  0.00    +0.000 NA
ATOM      6  C   UNL     1      46.826   4.136  13.605  0.00  0.00    +0.000 A 
ATOM      7  C   UNL     1      45.585   4.004  13.029  0.00  0.00    +0.000 A 
ATOM      8  C   UNL     1      45.174   5.020  12.183  0.00  0.00    +0.000 A 
ATOM      9  N   UNL     1      45.949   6.107  11.987  0.00  0.00    +0.000 NA
BRANCH   4  13
ATOM     10  C   UNL     1      49.632   9.507  11.557  0.00  0.00    +0.000 A 
ATOM     11  C   UNL     1      50.195   8.235  11.689  0.00  0.00    +0.000 A 
ATOM     12  C   UNL     1      49.391   7.145  12.039  0.00  0.00    +0.000 A 
ATOM     13  C   UNL     1      48.012   7.297  12.261  0.00  0.00    +0.000 A 
ATOM     14  C   UNL     1      47.472   8.595  12.137  0.00  0.00    +0.000 A 
ATOM     15  C   UNL     1      48.270   9.688  11.789  0.00  0.00    +0.000 A 
BRANCH  10  17
ATOM     16  N   UNL     1      51.114  11.513  10.858  0.00  0.00    +0.000 NA
ATOM     17  C   UNL     1      50.450  10.618  11.176  0.00  0.00    +0.000 C 
ENDBRANCH  10  17
ENDBRANCH   4  13
ENDBRANCH   1   8
BRANCH   1  18
ATOM     18  N   UNL     1      43.710   3.762  10.542  0.00  0.00    +0.000 N 
ATOM     19  H   UNL     1      43.347   2.941  11.029  0.00  0.00    +0.000 HD
BRANCH  18  20
ATOM     20  C   UNL     1      44.656   3.420   9.558  0.00  0.00    +0.000 A 
ATOM     21  C   UNL     1      45.058   2.087   9.416  0.00  0.00    +0.000 A 
ATOM     22  C   UNL     1      45.944   1.724   8.399  0.00  0.00    +0.000 A 
ATOM     23  C   UNL     1      46.390   2.716   7.538  0.00  0.00    +0.000 A 
ATOM     24  N   UNL     1      45.998   4.015   7.611  0.00  0.00    +0.000 NA
ATOM     25  C   UNL     1      45.131   4.315   8.602  0.00  0.00    +0.000 A 
BRANCH  23  26
ATOM     26  C   UNL     1      47.365   2.405   6.451  0.00  0.00    +0.000 C 
ATOM     27  N   UNL     1      47.269   3.206   5.346  0.00  0.00    +0.000 N 
ATOM     28  O   UNL     1      48.196   1.508   6.541  0.00  0.00    +0.000 OA
ATOM     29  H   UNL     1      46.558   3.933   5.328  0.00  0.00    +0.000 HD
ATOM     30  H   UNL     1      47.894   3.079   4.566  0.00  0.00    +0.000 HD
ENDBRANCH  23  26
ENDBRANCH  18  20
ENDBRANCH   1  18
TORSDOF 6
ENDMDL
MODEL 2
REMARK VINA RESULT:    -7.934      2.503      4.289
REMARK INTER + INTRA:         -11.642
REMARK INTER:                 -11.813
REMARK INTRA:                   0.171
REMARK UNBOUND:                -0.926
REMARK  Name = 
REMARK  6 active torsions:
REMARK  status: ('A' for Active; 'I' for Inactive)
REMARK    1  A    between atoms: C_2  and  C_3
REMARK    2  A    between atoms: C_6  and  C_7
REMARK    3  A    between atoms: C_11  and  C_12
REMARK    4  A    between atoms: C_12  and  N_13
REMARK    5  A    between atoms: N_13  and  C_14
REMARK    6  A    between atoms: C_17  and  C_18
REMARK                            x       y       z     vdW  Elec       q    Type
REMARK                         _______ _______ _______ _____ _____    ______ ____
ROOT
ATOM      1  C   UNL     1      43.991   4.862  11.524  0.00  0.00    +0.000 C 
ATOM      2  C   UNL     1      42.855   5.073  12.512  0.00  0.00    +0.000 C 
ATOM      3  C   UNL     1      43.481   3.725  12.406  0.00  0.00    +0.000 C 
ENDROOT
BRANCH   1   8
ATOM      4  C   UNL     1      47.030   5.712  13.448  0.00  0.00    +0.000 A 
ATOM      5  N   UNL     1      47.719   6.587  12.696  0.00  0.00    +0.000 NA
ATOM      6  C   UNL     1      47.199   6.870  11.492  0.00  0.00    +0.000 A 
ATOM      7  C   UNL     1      46.020   6.332  11.032  0.00  0.00    +0.000 A 
ATOM      8  C   UNL     1      45.355   5.462  11.878  0.00  0.00    +0.000 A 
ATOM      9  N   UNL     1      45.881   5.129  13.074  0.00  0.00    +0.000 NA
BRANCH   4  13
ATOM     10  C   UNL     1      48.542   4.782  17.365  0.00  0.00    +0.000 A 
ATOM     11  C   UNL     1      47.615   3.936  16.753  0.00  0.00    +0.000 A 
ATOM     12  C   UNL     1      47.110   4.248  15.486  0.00  0.00    +0.000 A 
ATOM     13  C   UNL     1      47.520   5.405  14.802  0.00  0.00    +0.000 A 
ATOM     14  C   UNL     1      48.446   6.250  15.450  0.00  0.00    +0.000 A 
ATOM     15  C   UNL     1      48.952   5.944  16.716  0.00  0.00    +0.000 A 
BRANCH  10  17
ATOM     16  N   UNL     1      49.519   4.188  19.689  0.00  0.00    +0.000 NA
ATOM     17  C   UNL     1      49.077   4.451  18.651  0.00  0.00    +0.000 C 
ENDBRANCH  10  17
ENDBRANCH   4  13
ENDBRANCH   1   8
BRANCH   1  18
ATOM     18  N   UNL     1      43.770   4.656  10.072  0.00  0.00    +0.000 N 
ATOM     19  H   UNL     1      42.788   4.538   9.818  0.00  0.00    +0.000 HD
BRANCH  18  20
ATOM     20  C   UNL     1      44.622   3.864   9.280  0.00  0.00    +0.000 A 
ATOM     21  C   UNL     1      45.457   4.474   8.335  0.00  0.00    +0.000 A 
ATOM     22  C   UNL     1      46.355   3.707   7.591  0.00  0.00    +0.000 A 
ATOM     23  C   UNL     1      46.400   2.341   7.831  0.00  0.00    +0.000 A 
ATOM     24  N   UNL     1      45.640   1.709   8.762  0.00  0.00    +0.000 NA
ATOM     25  C   UNL     1      44.797   2.495   9.466  0.00  0.00    +0.000 A 
BRANCH  23  26
ATOM     26  C   UNL     1      47.312   1.456   7.046  0.00  0.00    +0.000 C 
ATOM     27  N   UNL     1      48.406   2.083   6.516  0.00  0.00    +0.000 N 
ATOM     28  O   UNL     1      47.105   0.257   6.894  0.00  0.00    +0.000 OA
ATOM     29  H   UNL     1      48.525   3.081   6.674  0.00  0.00    +0.000 HD
ATOM     30  H   UNL     1      49.085   1.564   5.981  0.00  0.00    +0.000 HD
ENDBRANCH  23  26
ENDBRANCH  18  20
ENDBRANCH   1  18
TORSDOF 6
ENDMDL
MODEL 3
REMARK VINA RESULT:    -7.313      1.567      2.342
REMARK INTER + INTRA:         -10.804
REMARK INTER:                 -10.712
REMARK INTRA:                  -0.092
REMARK UNBOUND:                -0.926
REMARK  Name = 
REMARK  6 active torsions:
REMARK  status: ('A' for Active; 'I' for Inactive)
REMARK    1  A    between atoms: C_2  and  C_3
REMARK    2  A    between atoms: C_6  and  C_7
REMARK    3  A    between atoms: C_11  and  C_12
REMARK    4  A    between atoms: C_12  and  N_13
REMARK    5  A    between atoms: N_13  and  C_14
REMARK    6  A    between atoms: C_17  and  C_18
REMARK                            x       y       z     vdW  Elec       q    Type
REMARK                         _______ _______ _______ _____ _____    ______ ____
ROOT
ATOM      1  C   UNL     1      44.310   4.289  11.631  0.00  0.00    +0.000 C 
ATOM      2  C   UNL     1      43.736   3.744  12.929  0.00  0.00    +0.000 C 
ATOM      3  C   UNL     1      45.096   3.310  12.501  0.00  0.00    +0.000 C 
ENDROOT
BRANCH   1   8
ATOM      4  C   UNL     1      46.469   7.257  12.066  0.00  0.00    +0.000 A 
ATOM      5  N   UNL     1      45.699   8.325  11.796  0.00  0.00    +0.000 NA
ATOM      6  C   UNL     1      44.442   8.064  11.406  0.00  0.00    +0.000 A 
ATOM      7  C   UNL     1      43.932   6.792  11.299  0.00  0.00    +0.000 A 
ATOM      8  C   UNL     1      44.778   5.747  11.623  0.00  0.00    +0.000 A 
ATOM      9  N   UNL     1      46.059   5.982  11.976  0.00  0.00    +0.000 NA
BRANCH   4  13
ATOM     10  C   UNL     1      50.445   7.986  13.532  0.00  0.00    +0.000 A 
ATOM     11  C   UNL     1      50.131   8.252  12.198  0.00  0.00    +0.000 A 
ATOM     12  C   UNL     1      48.842   7.998  11.716  0.00  0.00    +0.000 A 
ATOM     13  C   UNL     1      47.840   7.479  12.554  0.00  0.00    +0.000 A 
ATOM     14  C   UNL     1      48.189   7.206  13.893  0.00  0.00    +0.000 A 
ATOM     15  C   UNL     1      49.475   7.456  14.379  0.00  0.00    +0.000 A 
BRANCH  10  17
ATOM     16  N   UNL     1      52.816   8.506  14.437  0.00  0.00    +0.000 NA
ATOM     17  C   UNL     1      51.757   8.268  14.031  0.00  0.00    +0.000 C 
ENDBRANCH  10  17
ENDBRANCH   4  13
ENDBRANCH   1   8
BRANCH   1  18
ATOM     18  N   UNL     1      43.937   3.758  10.298  0.00  0.00    +0.000 N 
ATOM     19  H   UNL     1      43.144   3.115  10.318  0.00  0.00    +0.000 HD
BRANCH  18  20
ATOM     20  C   UNL     1      44.892   3.392   9.332  0.00  0.00    +0.000 A 
ATOM     21  C   UNL     1      45.228   2.043   9.164  0.00  0.00    +0.000 A 
ATOM     22  C   UNL     1      46.124   1.661   8.163  0.00  0.00    +0.000 A 
ATOM     23  C   UNL     1      46.646   2.650   7.343  0.00  0.00    +0.000 A 
ATOM     24  N   UNL     1      46.322   3.966   7.441  0.00  0.00    +0.000 NA
ATOM     25  C   UNL     1      45.442   4.285   8.414  0.00  0.00    +0.000 A 
BRANCH  23  26
ATOM     26  C   UNL     1      47.636   2.317   6.275  0.00  0.00    +0.000 C 
ATOM     27  N   UNL     1      47.645   3.176   5.211  0.00  0.00    +0.000 N 
ATOM     28  O   UNL     1      48.390   1.352   6.347  0.00  0.00    +0.000 OA
ATOM     29  H   UNL     1      46.995   3.958   5.206  0.00  0.00    +0.000 HD
ATOM     30  H   UNL     1      48.288   3.039   4.447  0.00  0.00    +0.000 HD
ENDBRANCH  23  26
ENDBRANCH  18  20
ENDBRANCH   1  18
TORSDOF 6
ENDMDL
MODEL 4
REMARK VINA RESULT:    -7.023      3.203      7.384
REMARK INTER + INTRA:         -10.412
REMARK INTER:                  -9.878
REMARK INTRA:                  -0.534
REMARK UNBOUND:                -0.926
REMARK  Name = 
REMARK  6 active torsions:
REMARK  status: ('A' for Active; 'I' for Inactive)
REMARK    1  A    between atoms: C_2  and  C_3
REMARK    2  A    between atoms: C_6  and  C_7
REMARK    3  A    between atoms: C_11  and  C_12
REMARK    4  A    between atoms: C_12  and  N_13
REMARK    5  A    between atoms: N_13  and  C_14
REMARK    6  A    between atoms: C_17  and  C_18
REMARK                            x       y       z     vdW  Elec       q    Type
REMARK                         _______ _______ _______ _____ _____    ______ ____
ROOT
ATOM      1  C   UNL     1      46.037   7.573  12.590  0.00  0.00    +0.000 C 
ATOM      2  C   UNL     1      45.360   8.766  13.245  0.00  0.00    +0.000 C 
ATOM      3  C   UNL     1      46.113   8.968  11.974  0.00  0.00    +0.000 C 
ENDROOT
BRANCH   1   8
ATOM      4  C   UNL     1      44.924   4.947  10.239  0.00  0.00    +0.000 A 
ATOM      5  N   UNL     1      43.608   4.782  10.454  0.00  0.00    +0.000 NA
ATOM      6  C   UNL     1      43.074   5.519  11.441  0.00  0.00    +0.000 A 
ATOM      7  C   UNL     1      43.796   6.415  12.192  0.00  0.00    +0.000 A 
ATOM      8  C   UNL     1      45.140   6.548  11.890  0.00  0.00    +0.000 A 
ATOM      9  N   UNL     1      45.708   5.788  10.932  0.00  0.00    +0.000 NA
BRANCH   4  13
ATOM     10  C   UNL     1      46.844   2.768   7.067  0.00  0.00    +0.000 A 
ATOM     11  C   UNL     1      46.928   4.162   7.111  0.00  0.00    +0.000 A 
ATOM     12  C   UNL     1      46.289   4.872   8.133  0.00  0.00    +0.000 A 
ATOM     13  C   UNL     1      45.557   4.210   9.133  0.00  0.00    +0.000 A 
ATOM     14  C   UNL     1      45.476   2.803   9.056  0.00  0.00    +0.000 A 
ATOM     15  C   UNL     1      46.111   2.089   8.037  0.00  0.00    +0.000 A 
BRANCH  10  17
ATOM     16  N   UNL     1      48.055   1.451   5.194  0.00  0.00    +0.000 NA
ATOM     17  C   UNL     1      47.518   2.041   6.035  0.00  0.00    +0.000 C 
ENDBRANCH  10  17
ENDBRANCH   4  13
ENDBRANCH   1   8
BRANCH   1  18
ATOM     18  N   UNL     1      47.342   7.035  13.045  0.00  0.00    +0.000 N 
ATOM     19  H   UNL     1      47.990   6.827  12.284  0.00  0.00    +0.000 HD
BRANCH  18  20
ATOM     20  C   UNL     1      47.457   6.116  14.105  0.00  0.00    +0.000 A 
ATOM     21  C   UNL     1      48.258   6.427  15.210  0.00  0.00    +0.000 A 
ATOM     22  C   UNL     1      48.326   5.554  16.297  0.00  0.00    +0.000 A 
ATOM     23  C   UNL     1      47.569   4.393  16.250  0.00  0.00    +0.000 A 
ATOM     24  N   UNL     1      46.747   4.066  15.219  0.00  0.00    +0.000 NA
ATOM     25  C   UNL     1      46.704   4.947  14.197  0.00  0.00    +0.000 A 
BRANCH  23  26
ATOM     26  C   UNL     1      47.621   3.398  17.363  0.00  0.00    +0.000 C 
ATOM     27  N   UNL     1      48.775   3.418  18.098  0.00  0.00    +0.000 N 
ATOM     28  O   UNL     1      46.700   2.627  17.608  0.00  0.00    +0.000 OA
ATOM     29  H   UNL     1      49.506   4.079  17.846  0.00  0.00    +0.000 HD
ATOM     30  H   UNL     1      48.896   2.791  18.877  0.00  0.00    +0.000 HD
ENDBRANCH  23  26
ENDBRANCH  18  20
ENDBRANCH   1  18
TORSDOF 6
ENDMDL
MODEL 5
REMARK VINA RESULT:    -6.743      4.491      6.922
REMARK INTER + INTRA:         -10.034
REMARK INTER:                  -9.347
REMARK INTRA:                  -0.687
REMARK UNBOUND:                -0.926
REMARK  Name = 
REMARK  6 active torsions:
REMARK  status: ('A' for Active; 'I' for Inactive)
REMARK    1  A    between atoms: C_2  and  C_3
REMARK    2  A    between atoms: C_6  and  C_7
REMARK    3  A    between atoms: C_11  and  C_12
REMARK    4  A    between atoms: C_12  and  N_13
REMARK    5  A    between atoms: N_13  and  C_14
REMARK    6  A    between atoms: C_17  and  C_18
REMARK                            x       y       z     vdW  Elec       q    Type
REMARK                         _______ _______ _______ _____ _____    ______ ____
ROOT
ATOM      1  C   UNL     1      48.171   7.443  13.769  0.00  0.00    +0.000 C 
ATOM      2  C   UNL     1      49.124   6.997  12.671  0.00  0.00    +0.000 C 
ATOM      3  C   UNL     1      48.872   8.453  12.863  0.00  0.00    +0.000 C 
ENDROOT
BRANCH   1   8
ATOM      4  C   UNL     1      49.746   6.091  16.827  0.00  0.00    +0.000 A 
ATOM      5  N   UNL     1      49.476   6.968  17.809  0.00  0.00    +0.000 NA
ATOM      6  C   UNL     1      48.799   8.069  17.448  0.00  0.00    +0.000 A 
ATOM      7  C   UNL     1      48.372   8.308  16.163  0.00  0.00    +0.000 A 
ATOM      8  C   UNL     1      48.664   7.342  15.215  0.00  0.00    +0.000 A 
ATOM      9  N   UNL     1      49.381   6.248  15.545  0.00  0.00    +0.000 NA
BRANCH   4  13
ATOM     10  C   UNL     1      51.800   2.426  17.743  0.00  0.00    +0.000 A 
ATOM     11  C   UNL     1      50.439   2.407  17.431  0.00  0.00    +0.000 A 
ATOM     12  C   UNL     1      49.767   3.601  17.151  0.00  0.00    +0.000 A 
ATOM     13  C   UNL     1      50.436   4.837  17.171  0.00  0.00    +0.000 A 
ATOM     14  C   UNL     1      51.807   4.828  17.504  0.00  0.00    +0.000 A 
ATOM     15  C   UNL     1      52.483   3.639  17.787  0.00  0.00    +0.000 A 
BRANCH  10  17
ATOM     16  N   UNL     1      53.064   0.215  18.222  0.00  0.00    +0.000 NA
ATOM     17  C   UNL     1      52.493   1.201  18.007  0.00  0.00    +0.000 C 
ENDBRANCH  10  17
ENDBRANCH   4  13
ENDBRANCH   1   8
BRANCH   1  18
ATOM     18  N   UNL     1      46.696   7.409  13.621  0.00  0.00    +0.000 N 
ATOM     19  H   UNL     1      46.193   7.756  14.438  0.00  0.00    +0.000 HD
BRANCH  18  20
ATOM     20  C   UNL     1      46.019   6.348  12.992  0.00  0.00    +0.000 A 
ATOM     21  C   UNL     1      45.689   6.442  11.635  0.00  0.00    +0.000 A 
ATOM     22  C   UNL     1      45.078   5.369  10.983  0.00  0.00    +0.000 A 
ATOM     23  C   UNL     1      44.831   4.217  11.716  0.00  0.00    +0.000 A 
ATOM     24  N   UNL     1      45.168   4.063  13.023  0.00  0.00    +0.000 NA
ATOM     25  C   UNL     1      45.768   5.122  13.606  0.00  0.00    +0.000 A 
BRANCH  23  26
ATOM     26  C   UNL     1      44.150   3.044  11.091  0.00  0.00    +0.000 C 
ATOM     27  N   UNL     1      44.869   2.416  10.111  0.00  0.00    +0.000 N 
ATOM     28  O   UNL     1      43.035   2.664  11.433  0.00  0.00    +0.000 OA
ATOM     29  H   UNL     1      45.788   2.778   9.869  0.00  0.00    +0.000 HD
ATOM     30  H   UNL     1      44.495   1.606   9.641  0.00  0.00    +0.000 HD
ENDBRANCH  23  26
ENDBRANCH  18  20
ENDBRANCH   1  18
TORSDOF 6
ENDMDL
MODEL 6
REMARK VINA RESULT:    -6.339      4.252      8.270
REMARK INTER + INTRA:          -9.489
REMARK INTER:                  -8.555
REMARK INTRA:                  -0.934
REMARK UNBOUND:                -0.926
REMARK  Name = 
REMARK  6 active torsions:
REMARK  status: ('A' for Active; 'I' for Inactive)
REMARK    1  A    between atoms: C_2  and  C_3
REMARK    2  A    between atoms: C_6  and  C_7
REMARK    3  A    between atoms: C_11  and  C_12
REMARK    4  A    between atoms: C_12  and  N_13
REMARK    5  A    between atoms: N_13  and  C_14
REMARK    6  A    between atoms: C_17  and  C_18
REMARK                            x       y       z     vdW  Elec       q    Type
REMARK                         _______ _______ _______ _____ _____    ______ ____
ROOT
ATOM      1  C   UNL     1      49.119   8.615  16.911  0.00  0.00    +0.000 C 
ATOM      2  C   UNL     1      47.879   9.403  17.300  0.00  0.00    +0.000 C 
ATOM      3  C   UNL     1      49.194  10.103  17.248  0.00  0.00    +0.000 C 
ENDROOT
BRANCH   1   8
ATOM      4  C   UNL     1      48.397   7.118  13.610  0.00  0.00    +0.000 A 
ATOM      5  N   UNL     1      49.488   7.330  12.854  0.00  0.00    +0.000 NA
ATOM      6  C   UNL     1      50.476   8.035  13.426  0.00  0.00    +0.000 A 
ATOM      7  C   UNL     1      50.418   8.509  14.716  0.00  0.00    +0.000 A 
ATOM      8  C   UNL     1      49.274   8.223  15.439  0.00  0.00    +0.000 A 
ATOM      9  N   UNL     1      48.250   7.553  14.871  0.00  0.00    +0.000 NA
BRANCH   4  13
ATOM     10  C   UNL     1      45.264   4.667  11.976  0.00  0.00    +0.000 A 
ATOM     11  C   UNL     1      45.760   5.749  11.245  0.00  0.00    +0.000 A 
ATOM     12  C   UNL     1      46.767   6.557  11.784  0.00  0.00    +0.000 A 
ATOM     13  C   UNL     1      47.303   6.302  13.058  0.00  0.00    +0.000 A 
ATOM     14  C   UNL     1      46.773   5.212  13.781  0.00  0.00    +0.000 A 
ATOM     15  C   UNL     1      45.766   4.403  13.248  0.00  0.00    +0.000 A 
BRANCH  10  17
ATOM     16  N   UNL     1      43.423   3.147  10.970  0.00  0.00    +0.000 NA
ATOM     17  C   UNL     1      44.250   3.827  11.415  0.00  0.00    +0.000 C 
ENDBRANCH  10  17
ENDBRANCH   4  13
ENDBRANCH   1   8
BRANCH   1  18
ATOM     18  N   UNL     1      49.847   7.737  17.859  0.00  0.00    +0.000 N 
ATOM     19  H   UNL     1      50.727   8.132  18.193  0.00  0.00    +0.000 HD
BRANCH  18  20
ATOM     20  C   UNL     1      49.920   6.341  17.698  0.00  0.00    +0.000 A 
ATOM     21  C   UNL     1      48.749   5.575  17.741  0.00  0.00    +0.000 A 
ATOM     22  C   UNL     1      48.801   4.198  17.515  0.00  0.00    +0.000 A 
ATOM     23  C   UNL     1      50.034   3.629  17.234  0.00  0.00    +0.000 A 
ATOM     24  N   UNL     1      51.191   4.335  17.143  0.00  0.00    +0.000 NA
ATOM     25  C   UNL     1      51.089   5.664  17.355  0.00  0.00    +0.000 A 
BRANCH  23  26
ATOM     26  C   UNL     1      50.167   2.157  17.017  0.00  0.00    +0.000 C 
ATOM     27  N   UNL     1      51.036   1.527  17.865  0.00  0.00    +0.000 N 
ATOM     28  O   UNL     1      49.542   1.555  16.152  0.00  0.00    +0.000 OA
ATOM     29  H   UNL     1      51.529   2.080  18.563  0.00  0.00    +0.000 HD
ATOM     30  H   UNL     1      51.182   0.532  17.803  0.00  0.00    +0.000 HD
ENDBRANCH  23  26
ENDBRANCH  18  20
ENDBRANCH   1  18
TORSDOF 6
ENDMDL
MODEL 7
REMARK VINA RESULT:    -6.216      2.486      6.962
REMARK INTER + INTRA:          -9.323
REMARK INTER:                  -8.586
REMARK INTRA:                  -0.737
REMARK UNBOUND:                -0.926
REMARK  Name = 
REMARK  6 active torsions:
REMARK  status: ('A' for Active; 'I' for Inactive)
REMARK    1  A    between atoms: C_2  and  C_3
REMARK    2  A    between atoms: C_6  and  C_7
REMARK    3  A    between atoms: C_11  and  C_12
REMARK    4  A    between atoms: C_12  and  N_13
REMARK    5  A    between atoms: N_13  and  C_14
REMARK    6  A    between atoms: C_17  and  C_18
REMARK                            x       y       z     vdW  Elec       q    Type
REMARK                         _______ _______ _______ _____ _____    ______ ____
ROOT
ATOM      1  C   UNL     1      46.235   4.871  13.887  0.00  0.00    +0.000 C 
ATOM      2  C   UNL     1      47.164   3.774  14.380  0.00  0.00    +0.000 C 
ATOM      3  C   UNL     1      46.037   4.213  15.251  0.00  0.00    +0.000 C 
ENDROOT
BRANCH   1   8
ATOM      4  C   UNL     1      44.897   3.823  10.605  0.00  0.00    +0.000 A 
ATOM      5  N   UNL     1      43.563   3.967  10.679  0.00  0.00    +0.000 NA
ATOM      6  C   UNL     1      43.077   4.371  11.862  0.00  0.00    +0.000 A 
ATOM      7  C   UNL     1      43.870   4.652  12.950  0.00  0.00    +0.000 A 
ATOM      8  C   UNL     1      45.236   4.507  12.785  0.00  0.00    +0.000 A 
ATOM      9  N   UNL     1      45.744   4.061  11.618  0.00  0.00    +0.000 NA
BRANCH   4  13
ATOM     10  C   UNL     1      46.727   2.676   6.886  0.00  0.00    +0.000 A 
ATOM     11  C   UNL     1      46.570   4.028   7.202  0.00  0.00    +0.000 A 
ATOM     12  C   UNL     1      45.958   4.400   8.404  0.00  0.00    +0.000 A 
ATOM     13  C   UNL     1      45.495   3.437   9.316  0.00  0.00    +0.000 A 
ATOM     14  C   UNL     1      45.653   2.080   8.965  0.00  0.00    +0.000 A 
ATOM     15  C   UNL     1      46.261   1.701   7.765  0.00  0.00    +0.000 A 
BRANCH  10  17
ATOM     16  N   UNL     1      47.892   1.993   4.675  0.00  0.00    +0.000 NA
ATOM     17  C   UNL     1      47.374   2.295   5.668  0.00  0.00    +0.000 C 
ENDBRANCH  10  17
ENDBRANCH   4  13
ENDBRANCH   1   8
BRANCH   1  18
ATOM     18  N   UNL     1      46.583   6.311  13.948  0.00  0.00    +0.000 N 
ATOM     19  H   UNL     1      45.778   6.933  13.852  0.00  0.00    +0.000 HD
BRANCH  18  20
ATOM     20  C   UNL     1      47.737   6.841  13.342  0.00  0.00    +0.000 A 
ATOM     21  C   UNL     1      47.725   7.151  11.977  0.00  0.00    +0.000 A 
ATOM     22  C   UNL     1      48.841   7.740  11.380  0.00  0.00    +0.000 A 
ATOM     23  C   UNL     1      49.940   8.017  12.181  0.00  0.00    +0.000 A 
ATOM     24  N   UNL     1      49.985   7.770  13.516  0.00  0.00    +0.000 NA
ATOM     25  C   UNL     1      48.877   7.214  14.051  0.00  0.00    +0.000 A 
BRANCH  23  26
ATOM     26  C   UNL     1      51.179   8.613  11.601  0.00  0.00    +0.000 C 
ATOM     27  N   UNL     1      52.287   7.814  11.666  0.00  0.00    +0.000 N 
ATOM     28  O   UNL     1      51.205   9.730  11.095  0.00  0.00    +0.000 OA
ATOM     29  H   UNL     1      52.206   6.897  12.099  0.00  0.00    +0.000 HD
ATOM     30  H   UNL     1      53.168   8.126  11.289  0.00  0.00    +0.000 HD
ENDBRANCH  23  26
ENDBRANCH  18  20
ENDBRANCH   1  18
TORSDOF 6
ENDMDL
MODEL 8
REMARK VINA RESULT:    -6.150      5.280      8.066
REMARK INTER + INTRA:          -9.233
REMARK INTER:                  -8.957
REMARK INTRA:                  -0.276
REMARK UNBOUND:                -0.926
REMARK  Name = 
REMARK  6 active torsions:
REMARK  status: ('A' for Active; 'I' for Inactive)
REMARK    1  A    between atoms: C_2  and  C_3
REMARK    2  A    between atoms: C_6  and  C_7
REMARK    3  A    between atoms: C_11  and  C_12
REMARK    4  A    between atoms: C_12  and  N_13
REMARK    5  A    between atoms: N_13  and  C_14
REMARK    6  A    between atoms: C_17  and  C_18
REMARK                            x       y       z     vdW  Elec       q    Type
REMARK                         _______ _______ _______ _____ _____    ______ ____
ROOT
ATOM      1  C   UNL     1      49.225   7.230  15.345  0.00  0.00    +0.000 C 
ATOM      2  C   UNL     1      50.217   8.377  15.448  0.00  0.00    +0.000 C 
ATOM      3  C   UNL     1      48.760   8.667  15.567  0.00  0.00    +0.000 C 
ENDROOT
BRANCH   1   8
ATOM      4  C   UNL     1      49.988   4.434  17.640  0.00  0.00    +0.000 A 
ATOM      5  N   UNL     1      48.988   4.400  18.536  0.00  0.00    +0.000 NA
ATOM      6  C   UNL     1      48.056   5.358  18.420  0.00  0.00    +0.000 A 
ATOM      7  C   UNL     1      48.080   6.321  17.439  0.00  0.00    +0.000 A 
ATOM      8  C   UNL     1      49.127   6.272  16.536  0.00  0.00    +0.000 A 
ATOM      9  N   UNL     1      50.099   5.344  16.659  0.00  0.00    +0.000 NA
BRANCH   4  13
ATOM     10  C   UNL     1      52.937   1.311  17.840  0.00  0.00    +0.000 A 
ATOM     11  C   UNL     1      53.279   2.620  18.187  0.00  0.00    +0.000 A 
ATOM     12  C   UNL     1      52.324   3.639  18.104  0.00  0.00    +0.000 A 
ATOM     13  C   UNL     1      51.010   3.376  17.680  0.00  0.00    +0.000 A 
ATOM     14  C   UNL     1      50.697   2.048  17.322  0.00  0.00    +0.000 A 
ATOM     15  C   UNL     1      51.646   1.026  17.400  0.00  0.00    +0.000 A 
BRANCH  10  17
ATOM     16  N   UNL     1      54.700  -0.577  18.036  0.00  0.00    +0.000 NA
ATOM     17  C   UNL     1      53.907   0.264  17.947  0.00  0.00    +0.000 C 
ENDBRANCH  10  17
ENDBRANCH   4  13
ENDBRANCH   1   8
BRANCH   1  18
ATOM     18  N   UNL     1      48.800   6.643  14.051  0.00  0.00    +0.000 N 
ATOM     19  H   UNL     1      49.165   7.138  13.235  0.00  0.00    +0.000 HD
BRANCH  18  20
ATOM     20  C   UNL     1      47.502   6.146  13.832  0.00  0.00    +0.000 A 
ATOM     21  C   UNL     1      46.566   6.926  13.142  0.00  0.00    +0.000 A 
ATOM     22  C   UNL     1      45.297   6.418  12.859  0.00  0.00    +0.000 A 
ATOM     23  C   UNL     1      45.008   5.123  13.267  0.00  0.00    +0.000 A 
ATOM     24  N   UNL     1      45.894   4.314  13.904  0.00  0.00    +0.000 NA
ATOM     25  C   UNL     1      47.112   4.845  14.143  0.00  0.00    +0.000 A 
BRANCH  23  26
ATOM     26  C   UNL     1      43.659   4.529  13.029  0.00  0.00    +0.000 C 
ATOM     27  N   UNL     1      42.643   5.437  12.916  0.00  0.00    +0.000 N 
ATOM     28  O   UNL     1      43.474   3.321  12.933  0.00  0.00    +0.000 OA
ATOM     29  H   UNL     1      42.857   6.427  13.006  0.00  0.00    +0.000 HD
ATOM     30  H   UNL     1      41.699   5.130  12.741  0.00  0.00    +0.000 HD
ENDBRANCH  23  26
ENDBRANCH  18  20
ENDBRANCH   1  18
TORSDOF 6
ENDMDL
MODEL 9
REMARK VINA RESULT:    -6.061      5.488      8.883
REMARK INTER + INTRA:          -9.113
REMARK INTER:                  -8.619
REMARK INTRA:                  -0.494
REMARK UNBOUND:                -0.926
REMARK  Name = 
REMARK  6 active torsions:
REMARK  status: ('A' for Active; 'I' for Inactive)
REMARK    1  A    between atoms: C_2  and  C_3
REMARK    2  A    between atoms: C_6  and  C_7
REMARK    3  A    between atoms: C_11  and  C_12
REMARK    4  A    between atoms: C_12  and  N_13
REMARK    5  A    between atoms: N_13  and  C_14
REMARK    6  A    between atoms: C_17  and  C_18
REMARK                            x       y       z     vdW  Elec       q    Type
REMARK                         _______ _______ _______ _____ _____    ______ ____
ROOT
ATOM      1  C   UNL     1      49.255   5.206  17.888  0.00  0.00    +0.000 C 
ATOM      2  C   UNL     1      48.040   4.328  18.139  0.00  0.00    +0.000 C 
ATOM      3  C   UNL     1      48.156   5.625  18.862  0.00  0.00    +0.000 C 
ENDROOT
BRANCH   1   8
ATOM      4  C   UNL     1      48.429   6.272  14.447  0.00  0.00    +0.000 A 
ATOM      5  N   UNL     1      49.413   7.102  14.063  0.00  0.00    +0.000 NA
ATOM      6  C   UNL     1      50.356   7.366  14.981  0.00  0.00    +0.000 A 
ATOM      7  C   UNL     1      50.356   6.819  16.243  0.00  0.00    +0.000 A 
ATOM      8  C   UNL     1      49.324   5.950  16.551  0.00  0.00    +0.000 A 
ATOM      9  N   UNL     1      48.343   5.704  15.660  0.00  0.00    +0.000 NA
BRANCH   4  13
ATOM     10  C   UNL     1      45.471   5.112  11.548  0.00  0.00    +0.000 A 
ATOM     11  C   UNL     1      46.265   6.239  11.326  0.00  0.00    +0.000 A 
ATOM     12  C   UNL     1      47.215   6.626  12.277  0.00  0.00    +0.000 A 
ATOM     13  C   UNL     1      47.397   5.899  13.465  0.00  0.00    +0.000 A 
ATOM     14  C   UNL     1      46.571   4.773  13.671  0.00  0.00    +0.000 A 
ATOM     15  C   UNL     1      45.619   4.383  12.726  0.00  0.00    +0.000 A 
BRANCH  10  17
ATOM     16  N   UNL     1      43.749   4.368   9.762  0.00  0.00    +0.000 NA
ATOM     17  C   UNL     1      44.515   4.702  10.565  0.00  0.00    +0.000 C 
ENDBRANCH  10  17
ENDBRANCH   4  13
ENDBRANCH   1   8
BRANCH   1  18
ATOM     18  N   UNL     1      50.573   4.962  18.522  0.00  0.00    +0.000 N 
ATOM     19  H   UNL     1      51.189   5.777  18.519  0.00  0.00    +0.000 HD
BRANCH  18  20
ATOM     20  C   UNL     1      51.284   3.759  18.357  0.00  0.00    +0.000 A 
ATOM     21  C   UNL     1      50.755   2.745  17.551  0.00  0.00    +0.000 A 
ATOM     22  C   UNL     1      51.482   1.574  17.324  0.00  0.00    +0.000 A 
ATOM     23  C   UNL     1      52.737   1.463  17.906  0.00  0.00    +0.000 A 
ATOM     24  N   UNL     1      53.309   2.435  18.663  0.00  0.00    +0.000 NA
ATOM     25  C   UNL     1      52.574   3.553  18.843  0.00  0.00    +0.000 A 
BRANCH  23  26
ATOM     26  C   UNL     1      53.553   0.225  17.734  0.00  0.00    +0.000 C 
ATOM     27  N   UNL     1      53.160  -0.834  18.505  0.00  0.00    +0.000 N 
ATOM     28  O   UNL     1      54.499   0.156  16.957  0.00  0.00    +0.000 OA
ATOM     29  H   UNL     1      52.369  -0.717  19.133  0.00  0.00    +0.000 HD
ATOM     30  H   UNL     1      53.644  -1.717  18.448  0.00  0.00    +0.000 HD
ENDBRANCH  23  26
ENDBRANCH  18  20
ENDBRANCH   1  18
TORSDOF 6
ENDMDL
