MODEL 1
REMARK VINA RESULT:    -8.283      0.000      0.000
REMARK INTER + INTRA:         -10.827
REMARK INTER:                 -10.219
REMARK INTRA:                  -0.608
REMARK UNBOUND:                -0.608
REMARK  Name = 
REMARK  4 active torsions:
REMARK  status: ('A' for Active; 'I' for Inactive)
REMARK    1  A    between atoms: C_2  and  C_4
REMARK    2  A    between atoms: C_7  and  O_8
REMARK    3  A    between atoms: O_8  and  C_9
REMARK    4  A    between atoms: C_9  and  C_10
REMARK                            x       y       z     vdW  Elec       q    Type
REMARK                         _______ _______ _______ _____ _____    ______ ____
ROOT
ATOM      1  C   UNL     1      46.589   2.684   7.556  0.00  0.00    +0.000 A 
ATOM      2  C   UNL     1      46.261   4.041   7.691  0.00  0.00    +0.000 A 
ATOM      3  C   UNL     1      45.275   4.436   8.599  0.00  0.00    +0.000 A 
ATOM      4  C   UNL     1      44.596   3.478   9.344  0.00  0.00    +0.000 A 
ATOM      5  C   UNL     1      44.951   2.129   9.247  0.00  0.00    +0.000 A 
ATOM      6  C   UNL     1      45.938   1.730   8.342  0.00  0.00    +0.000 A 
ENDROOT
BRANCH   1   8
ATOM      7  N   UNL     1      47.673   2.942   5.389  0.00  0.00    +0.000 N 
ATOM      8  C   UNL     1      47.580   2.224   6.547  0.00  0.00    +0.000 C 
ATOM      9  O   UNL     1      48.293   1.250   6.748  0.00  0.00    +0.000 OA
ATOM     10  H   UNL     1      48.392   2.655   4.737  0.00  0.00    +0.000 HD
ATOM     11  H   UNL     1      47.290   3.870   5.289  0.00  0.00    +0.000 HD
ENDBRANCH   1   8
BRANCH   4  12
ATOM     12  O   UNL     1      43.579   3.763  10.213  0.00  0.00    +0.000 OA
BRANCH  12  13
ATOM     13  C   UNL     1      43.772   4.818  11.195  0.00  0.00    +0.000 C 
ATOM     14  C   UNL     1      42.443   5.177  11.853  0.00  0.00    +0.000 C 
ATOM     15  C   UNL     1      43.143   6.191  11.019  0.00  0.00    +0.000 C 
BRANCH  13  16
ATOM     16  C   UNL     1      44.987   4.652  12.087  0.00  0.00    +0.000 A 
ATOM     17  C   UNL     1      45.822   5.734  12.398  0.00  0.00    +0.000 A 
ATOM     18  C   UNL     1      46.923   5.573  13.236  0.00  0.00    +0.000 A 
ATOM     19  C   UNL     1      47.173   4.315  13.756  0.00  0.00    +0.000 A 
ATOM     20  N   UNL     1      46.406   3.238  13.493  0.00  0.00    +0.000 NA
ATOM     21  C   UNL     1      45.341   3.436  12.676  0.00  0.00    +0.000 A 
ENDBRANCH  13  16
ENDBRANCH  12  13
ENDBRANCH   4  12
TORSDOF 4
ENDMDL
MODEL 2
REMARK VINA RESULT:    -7.232      1.296      1.943
REMARK INTER + INTRA:          -9.531
REMARK INTER:                 -10.015
REMARK INTRA:                   0.484
REMARK UNBOUND:                -0.608
REMARK  Name = 
REMARK  4 active torsions:
REMARK  status: ('A' for Active; 'I' for Inactive)
REMARK    1  A    between atoms: C_2  and  C_4
REMARK    2  A    between atoms: C_7  and  O_8
REMARK    3  A    between atoms: O_8  and  C_9
REMARK    4  A    between atoms: C_9  and  C_10
REMARK                            x       y       z     vdW  Elec       q    Type
REMARK                         _______ _______ _______ _____ _____    ______ ____
ROOT
ATOM      1  C   UNL     1      46.397   2.446   7.803  0.00  0.00    +0.000 A 
ATOM      2  C   UNL     1      45.540   1.806   8.710  0.00  0.00    +0.000 A 
ATOM      3  C   UNL     1      44.622   2.551   9.453  0.00  0.00    +0.000 A 
ATOM      4  C   UNL     1      44.582   3.935   9.315  0.00  0.00    +0.000 A 
ATOM      5  C   UNL     1      45.401   4.574   8.379  0.00  0.00    +0.000 A 
ATOM      6  C   UNL     1      46.319   3.831   7.633  0.00  0.00    +0.000 A 
ENDROOT
BRANCH   1   8
ATOM      7  N   UNL     1      48.469   2.408   6.522  0.00  0.00    +0.000 N 
ATOM      8  C   UNL     1      47.435   1.691   7.053  0.00  0.00    +0.000 C 
ATOM      9  O   UNL     1      47.376   0.475   6.926  0.00  0.00    +0.000 OA
ATOM     10  H   UNL     1      49.199   1.876   6.065  0.00  0.00    +0.000 HD
ATOM     11  H   UNL     1      48.682   3.353   6.805  0.00  0.00    +0.000 HD
ENDBRANCH   1   8
BRANCH   4  12
ATOM     12  O   UNL     1      43.758   4.753  10.039  0.00  0.00    +0.000 OA
BRANCH  12  13
ATOM     13  C   UNL     1      43.929   4.820  11.482  0.00  0.00    +0.000 C 
ATOM     14  C   UNL     1      43.360   3.565  12.139  0.00  0.00    +0.000 C 
ATOM     15  C   UNL     1      42.734   4.885  12.420  0.00  0.00    +0.000 C 
BRANCH  13  16
ATOM     16  C   UNL     1      45.283   5.317  11.947  0.00  0.00    +0.000 A 
ATOM     17  C   UNL     1      45.999   4.659  12.957  0.00  0.00    +0.000 A 
ATOM     18  C   UNL     1      47.253   5.113  13.360  0.00  0.00    +0.000 A 
ATOM     19  C   UNL     1      47.775   6.234  12.739  0.00  0.00    +0.000 A 
ATOM     20  N   UNL     1      47.134   6.908  11.763  0.00  0.00    +0.000 NA
ATOM     21  C   UNL     1      45.918   6.432  11.395  0.00  0.00    +0.000 A 
ENDBRANCH  13  16
ENDBRANCH  12  13
ENDBRANCH   4  12
TORSDOF 4
ENDMDL
MODEL 3
REMARK VINA RESULT:    -5.887      3.087      6.292
REMARK INTER + INTRA:          -7.872
REMARK INTER:                  -7.525
REMARK INTRA:                  -0.347
REMARK UNBOUND:                -0.608
REMARK  Name = 
REMARK  4 active torsions:
REMARK  status: ('A' for Active; 'I' for Inactive)
REMARK    1  A    between atoms: C_2  and  C_4
REMARK    2  A    between atoms: C_7  and  O_8
REMARK    3  A    between atoms: O_8  and  C_9
REMARK    4  A    between atoms: C_9  and  C_10
REMARK                            x       y       z     vdW  Elec       q    Type
REMARK                         _______ _______ _______ _____ _____    ______ ____
ROOT
ATOM      1  C   UNL     1      47.952   7.502  13.805  0.00  0.00    +0.000 A 
ATOM      2  C   UNL     1      47.853   6.245  13.192  0.00  0.00    +0.000 A 
ATOM      3  C   UNL     1      46.756   5.946  12.381  0.00  0.00    +0.000 A 
ATOM      4  C   UNL     1      45.744   6.885  12.210  0.00  0.00    +0.000 A 
ATOM      5  C   UNL     1      45.860   8.156  12.781  0.00  0.00    +0.000 A 
ATOM      6  C   UNL     1      46.958   8.461  13.590  0.00  0.00    +0.000 A 
ENDROOT
BRANCH   1   8
ATOM      7  N   UNL     1      50.312   7.368  14.398  0.00  0.00    +0.000 N 
ATOM      8  C   UNL     1      49.069   7.826  14.732  0.00  0.00    +0.000 C 
ATOM      9  O   UNL     1      48.888   8.485  15.747  0.00  0.00    +0.000 OA
ATOM     10  H   UNL     1      51.072   7.645  15.005  0.00  0.00    +0.000 HD
ATOM     11  H   UNL     1      50.543   7.041  13.472  0.00  0.00    +0.000 HD
ENDBRANCH   1   8
BRANCH   4  12
ATOM     12  O   UNL     1      44.607   6.663  11.483  0.00  0.00    +0.000 OA
BRANCH  12  13
ATOM     13  C   UNL     1      44.049   5.320  11.448  0.00  0.00    +0.000 C 
ATOM     14  C   UNL     1      42.546   5.367  11.707  0.00  0.00    +0.000 C 
ATOM     15  C   UNL     1      43.435   4.685  12.685  0.00  0.00    +0.000 C 
BRANCH  13  16
ATOM     16  C   UNL     1      44.552   4.444  10.318  0.00  0.00    +0.000 A 
ATOM     17  C   UNL     1      44.356   3.056  10.324  0.00  0.00    +0.000 A 
ATOM     18  C   UNL     1      44.803   2.264   9.268  0.00  0.00    +0.000 A 
ATOM     19  C   UNL     1      45.448   2.883   8.212  0.00  0.00    +0.000 A 
ATOM     20  N   UNL     1      45.665   4.212   8.151  0.00  0.00    +0.000 NA
ATOM     21  C   UNL     1      45.211   4.950   9.195  0.00  0.00    +0.000 A 
ENDBRANCH  13  16
ENDBRANCH  12  13
ENDBRANCH   4  12
TORSDOF 4
ENDMDL
MODEL 4
REMARK VINA RESULT:    -5.702      2.854      6.142
REMARK INTER + INTRA:          -7.644
REMARK INTER:                  -7.678
REMARK INTRA:                   0.034
REMARK UNBOUND:                -0.608
REMARK  Name = 
REMARK  4 active torsions:
REMARK  status: ('A' for Active; 'I' for Inactive)
REMARK    1  A    between atoms: C_2  and  C_4
REMARK    2  A    between atoms: C_7  and  O_8
REMARK    3  A    between atoms: O_8  and  C_9
REMARK    4  A    between atoms: C_9  and  C_10
REMARK                            x       y       z     vdW  Elec       q    Type
REMARK                         _______ _______ _______ _____ _____    ______ ____
ROOT
ATOM      1  C   UNL     1      46.400   8.055  12.793  0.00  0.00    +0.000 A 
ATOM      2  C   UNL     1      46.676   6.692  12.978  0.00  0.00    +0.000 A 
ATOM      3  C   UNL     1      45.877   5.726  12.362  0.00  0.00    +0.000 A 
ATOM      4  C   UNL     1      44.787   6.117  11.592  0.00  0.00    +0.000 A 
ATOM      5  C   UNL     1      44.535   7.474  11.366  0.00  0.00    +0.000 A 
ATOM      6  C   UNL     1      45.334   8.444  11.978  0.00  0.00    +0.000 A 
ENDROOT
BRANCH   1   8
ATOM      7  N   UNL     1      47.374   8.953  14.838  0.00  0.00    +0.000 N 
ATOM      8  C   UNL     1      47.185   9.105  13.493  0.00  0.00    +0.000 C 
ATOM      9  O   UNL     1      47.655  10.062  12.892  0.00  0.00    +0.000 OA
ATOM     10  H   UNL     1      47.960   9.643  15.291  0.00  0.00    +0.000 HD
ATOM     11  H   UNL     1      47.220   8.078  15.316  0.00  0.00    +0.000 HD
ENDBRANCH   1   8
BRANCH   4  12
ATOM     12  O   UNL     1      43.916   5.246  10.997  0.00  0.00    +0.000 OA
BRANCH  12  13
ATOM     13  C   UNL     1      44.276   3.839  10.922  0.00  0.00    +0.000 C 
ATOM     14  C   UNL     1      43.113   2.970  11.395  0.00  0.00    +0.000 C 
ATOM     15  C   UNL     1      44.382   2.979  12.171  0.00  0.00    +0.000 C 
BRANCH  13  16
ATOM     16  C   UNL     1      45.004   3.428   9.657  0.00  0.00    +0.000 A 
ATOM     17  C   UNL     1      45.438   4.376   8.720  0.00  0.00    +0.000 A 
ATOM     18  C   UNL     1      46.125   3.987   7.572  0.00  0.00    +0.000 A 
ATOM     19  C   UNL     1      46.369   2.639   7.379  0.00  0.00    +0.000 A 
ATOM     20  N   UNL     1      45.976   1.682   8.244  0.00  0.00    +0.000 NA
ATOM     21  C   UNL     1      45.314   2.100   9.351  0.00  0.00    +0.000 A 
ENDBRANCH  13  16
ENDBRANCH  12  13
ENDBRANCH   4  12
TORSDOF 4
ENDMDL
MODEL 5
REMARK VINA RESULT:    -5.613      3.065      6.620
REMARK INTER + INTRA:          -7.534
REMARK INTER:                  -7.276
REMARK INTRA:                  -0.257
REMARK UNBOUND:                -0.608
REMARK  Name = 
REMARK  4 active torsions:
REMARK  status: ('A' for Active; 'I' for Inactive)
REMARK    1  A    between atoms: C_2  and  C_4
REMARK    2  A    between atoms: C_7  and  O_8
REMARK    3  A    between atoms: O_8  and  C_9
REMARK    4  A    between atoms: C_9  and  C_10
REMARK                            x       y       z     vdW  Elec       q    Type
REMARK                         _______ _______ _______ _____ _____    ______ ____
ROOT
ATOM      1  C   UNL     1      47.878   4.573  15.763  0.00  0.00    +0.000 A 
ATOM      2  C   UNL     1      48.225   5.893  15.438  0.00  0.00    +0.000 A 
ATOM      3  C   UNL     1      47.840   6.436  14.211  0.00  0.00    +0.000 A 
ATOM      4  C   UNL     1      47.140   5.656  13.297  0.00  0.00    +0.000 A 
ATOM      5  C   UNL     1      46.752   4.356  13.633  0.00  0.00    +0.000 A 
ATOM      6  C   UNL     1      47.133   3.809  14.861  0.00  0.00    +0.000 A 
ENDROOT
BRANCH   1   8
ATOM      7  N   UNL     1      47.552   4.114  18.133  0.00  0.00    +0.000 N 
ATOM      8  C   UNL     1      48.336   3.941  17.028  0.00  0.00    +0.000 C 
ATOM      9  O   UNL     1      49.366   3.282  17.079  0.00  0.00    +0.000 OA
ATOM     10  H   UNL     1      47.843   3.630  18.973  0.00  0.00    +0.000 HD
ATOM     11  H   UNL     1      46.596   4.433  18.081  0.00  0.00    +0.000 HD
ENDBRANCH   1   8
BRANCH   4  12
ATOM     12  O   UNL     1      46.771   6.082  12.050  0.00  0.00    +0.000 OA
BRANCH  12  13
ATOM     13  C   UNL     1      45.407   5.841  11.604  0.00  0.00    +0.000 C 
ATOM     14  C   UNL     1      44.622   7.150  11.580  0.00  0.00    +0.000 C 
ATOM     15  C   UNL     1      44.220   6.072  12.523  0.00  0.00    +0.000 C 
BRANCH  13  16
ATOM     16  C   UNL     1      45.274   4.908  10.416  0.00  0.00    +0.000 A 
ATOM     17  C   UNL     1      44.601   3.683  10.518  0.00  0.00    +0.000 A 
ATOM     18  C   UNL     1      44.466   2.844   9.414  0.00  0.00    +0.000 A 
ATOM     19  C   UNL     1      45.016   3.251   8.212  0.00  0.00    +0.000 A 
ATOM     20  N   UNL     1      45.675   4.417   8.053  0.00  0.00    +0.000 NA
ATOM     21  C   UNL     1      45.781   5.208   9.149  0.00  0.00    +0.000 A 
ENDBRANCH  13  16
ENDBRANCH  12  13
ENDBRANCH   4  12
TORSDOF 4
ENDMDL
MODEL 6
REMARK VINA RESULT:    -5.519      4.275      7.875
REMARK INTER + INTRA:          -7.417
REMARK INTER:                  -6.850
REMARK INTRA:                  -0.567
REMARK UNBOUND:                -0.608
REMARK  Name = 
REMARK  4 active torsions:
REMARK  status: ('A' for Active; 'I' for Inactive)
REMARK    1  A    between atoms: C_2  and  C_4
REMARK    2  A    between atoms: C_7  and  O_8
REMARK    3  A    between atoms: O_8  and  C_9
REMARK    4  A    between atoms: C_9  and  C_10
REMARK                            x       y       z     vdW  Elec       q    Type
REMARK                         _______ _______ _______ _____ _____    ______ ____
ROOT
ATOM      1  C   UNL     1      48.081   4.916  17.805  0.00  0.00    +0.000 A 
ATOM      2  C   UNL     1      48.710   5.981  17.143  0.00  0.00    +0.000 A 
ATOM      3  C   UNL     1      48.587   6.115  15.758  0.00  0.00    +0.000 A 
ATOM      4  C   UNL     1      47.868   5.172  15.032  0.00  0.00    +0.000 A 
ATOM      5  C   UNL     1      47.201   4.135  15.691  0.00  0.00    +0.000 A 
ATOM      6  C   UNL     1      47.319   3.999  17.076  0.00  0.00    +0.000 A 
ENDROOT
BRANCH   1   8
ATOM      7  N   UNL     1      48.363   3.413  19.701  0.00  0.00    +0.000 N 
ATOM      8  C   UNL     1      48.253   4.703  19.266  0.00  0.00    +0.000 C 
ATOM      9  O   UNL     1      48.306   5.643  20.048  0.00  0.00    +0.000 OA
ATOM     10  H   UNL     1      48.539   3.284  20.689  0.00  0.00    +0.000 HD
ATOM     11  H   UNL     1      48.566   2.642  19.082  0.00  0.00    +0.000 HD
ENDBRANCH   1   8
BRANCH   4  12
ATOM     12  O   UNL     1      47.740   5.188  13.670  0.00  0.00    +0.000 OA
BRANCH  12  13
ATOM     13  C   UNL     1      46.686   5.994  13.075  0.00  0.00    +0.000 C 
ATOM     14  C   UNL     1      47.265   6.912  12.002  0.00  0.00    +0.000 C 
ATOM     15  C   UNL     1      46.662   7.506  13.226  0.00  0.00    +0.000 C 
BRANCH  13  16
ATOM     16  C   UNL     1      45.406   5.246  12.758  0.00  0.00    +0.000 A 
ATOM     17  C   UNL     1      45.417   3.890  12.400  0.00  0.00    +0.000 A 
ATOM     18  C   UNL     1      44.232   3.209  12.133  0.00  0.00    +0.000 A 
ATOM     19  C   UNL     1      43.040   3.905  12.228  0.00  0.00    +0.000 A 
ATOM     20  N   UNL     1      42.966   5.208  12.567  0.00  0.00    +0.000 NA
ATOM     21  C   UNL     1      44.141   5.835  12.824  0.00  0.00    +0.000 A 
ENDBRANCH  13  16
ENDBRANCH  12  13
ENDBRANCH   4  12
TORSDOF 4
ENDMDL
MODEL 7
REMARK VINA RESULT:    -5.347      3.317      5.436
REMARK INTER + INTRA:          -7.205
REMARK INTER:                  -6.658
REMARK INTRA:                  -0.547
REMARK UNBOUND:                -0.608
REMARK  Name = 
REMARK  4 active torsions:
REMARK  status: ('A' for Active; 'I' for Inactive)
REMARK    1  A    between atoms: C_2  and  C_4
REMARK    2  A    between atoms: C_7  and  O_8
REMARK    3  A    between atoms: O_8  and  C_9
REMARK    4  A    between atoms: C_9  and  C_10
REMARK                            x       y       z     vdW  Elec       q    Type
REMARK                         _______ _______ _______ _____ _____    ______ ____
ROOT
ATOM      1  C   UNL     1      44.624   4.302  11.635  0.00  0.00    +0.000 A 
ATOM      2  C   UNL     1      45.428   4.282  12.784  0.00  0.00    +0.000 A 
ATOM      3  C   UNL     1      45.973   5.469  13.278  0.00  0.00    +0.000 A 
ATOM      4  C   UNL     1      45.744   6.667  12.610  0.00  0.00    +0.000 A 
ATOM      5  C   UNL     1      44.906   6.700  11.492  0.00  0.00    +0.000 A 
ATOM      6  C   UNL     1      44.357   5.515  10.995  0.00  0.00    +0.000 A 
ENDROOT
BRANCH   1   8
ATOM      7  N   UNL     1      44.867   2.415  10.112  0.00  0.00    +0.000 N 
ATOM      8  C   UNL     1      44.091   3.047  11.041  0.00  0.00    +0.000 C 
ATOM      9  O   UNL     1      43.006   2.590  11.377  0.00  0.00    +0.000 OA
ATOM     10  H   UNL     1      44.520   1.533   9.760  0.00  0.00    +0.000 HD
ATOM     11  H   UNL     1      45.848   2.619   9.990  0.00  0.00    +0.000 HD
ENDBRANCH   1   8
BRANCH   4  12
ATOM     12  O   UNL     1      46.280   7.868  12.985  0.00  0.00    +0.000 OA
BRANCH  12  13
ATOM     13  C   UNL     1      47.726   8.025  12.970  0.00  0.00    +0.000 C 
ATOM     14  C   UNL     1      48.119   9.213  12.096  0.00  0.00    +0.000 C 
ATOM     15  C   UNL     1      48.530   7.842  11.693  0.00  0.00    +0.000 C 
BRANCH  13  16
ATOM     16  C   UNL     1      48.404   7.877  14.318  0.00  0.00    +0.000 A 
ATOM     17  C   UNL     1      48.194   8.801  15.350  0.00  0.00    +0.000 A 
ATOM     18  C   UNL     1      48.806   8.642  16.592  0.00  0.00    +0.000 A 
ATOM     19  C   UNL     1      49.628   7.545  16.781  0.00  0.00    +0.000 A 
ATOM     20  N   UNL     1      49.868   6.623  15.826  0.00  0.00    +0.000 NA
ATOM     21  C   UNL     1      49.251   6.811  14.633  0.00  0.00    +0.000 A 
ENDBRANCH  13  16
ENDBRANCH  12  13
ENDBRANCH   4  12
TORSDOF 4
ENDMDL
MODEL 8
REMARK VINA RESULT:    -5.306      4.169      6.534
REMARK INTER + INTRA:          -7.155
REMARK INTER:                  -6.592
REMARK INTRA:                  -0.562
REMARK UNBOUND:                -0.608
REMARK  Name = 
REMARK  4 active torsions:
REMARK  status: ('A' for Active; 'I' for Inactive)
REMARK    1  A    between atoms: C_2  and  C_4
REMARK    2  A    between atoms: C_7  and  O_8
REMARK    3  A    between atoms: O_8  and  C_9
REMARK    4  A    between atoms: C_9  and  C_10
REMARK                            x       y       z     vdW  Elec       q    Type
REMARK                         _______ _______ _______ _____ _____    ______ ____
ROOT
ATOM      1  C   UNL     1      44.572   5.413  12.037  0.00  0.00    +0.000 A 
ATOM      2  C   UNL     1      45.102   4.838  13.202  0.00  0.00    +0.000 A 
ATOM      3  C   UNL     1      46.430   5.078  13.560  0.00  0.00    +0.000 A 
ATOM      4  C   UNL     1      47.237   5.862  12.743  0.00  0.00    +0.000 A 
ATOM      5  C   UNL     1      46.702   6.476  11.606  0.00  0.00    +0.000 A 
ATOM      6  C   UNL     1      45.373   6.240  11.245  0.00  0.00    +0.000 A 
ENDROOT
BRANCH   1   8
ATOM      7  N   UNL     1      42.260   6.112  11.724  0.00  0.00    +0.000 N 
ATOM      8  C   UNL     1      43.186   5.117  11.589  0.00  0.00    +0.000 C 
ATOM      9  O   UNL     1      42.886   4.033  11.107  0.00  0.00    +0.000 OA
ATOM     10  H   UNL     1      41.335   5.918  11.361  0.00  0.00    +0.000 HD
ATOM     11  H   UNL     1      42.511   7.076  11.883  0.00  0.00    +0.000 HD
ENDBRANCH   1   8
BRANCH   4  12
ATOM     12  O   UNL     1      48.562   6.107  12.981  0.00  0.00    +0.000 OA
BRANCH  12  13
ATOM     13  C   UNL     1      48.949   7.397  13.529  0.00  0.00    +0.000 C 
ATOM     14  C   UNL     1      49.646   7.211  14.874  0.00  0.00    +0.000 C 
ATOM     15  C   UNL     1      48.341   7.924  14.819  0.00  0.00    +0.000 C 
BRANCH  13  16
ATOM     16  C   UNL     1      49.565   8.360  12.534  0.00  0.00    +0.000 A 
ATOM     17  C   UNL     1      48.976   9.601  12.253  0.00  0.00    +0.000 A 
ATOM     18  C   UNL     1      49.563  10.487  11.353  0.00  0.00    +0.000 A 
ATOM     19  C   UNL     1      50.746  10.110  10.741  0.00  0.00    +0.000 A 
ATOM     20  N   UNL     1      51.358   8.931  10.970  0.00  0.00    +0.000 NA
ATOM     21  C   UNL     1      50.758   8.098  11.856  0.00  0.00    +0.000 A 
ENDBRANCH  13  16
ENDBRANCH  12  13
ENDBRANCH   4  12
TORSDOF 4
ENDMDL
