MODEL 1
REMARK VINA RESULT:    -8.241      0.000      0.000
REMARK INTER + INTRA:         -13.424
REMARK INTER:                 -12.336
REMARK INTRA:                  -1.088
REMARK UNBOUND:                -1.088
REMARK  Name = 
REMARK  10 active torsions:
REMARK  status: ('A' for Active; 'I' for Inactive)
REMARK    1  A    between atoms: C_1  and  O_2
REMARK    2  A    between atoms: O_2  and  C_3
REMARK    3  A    between atoms: C_10  and  C_11
REMARK    4  A    between atoms: N_13  and  C_14
REMARK    5  A    between atoms: C_14  and  C_15
REMARK    6  A    between atoms: C_18  and  O_19
REMARK    7  A    between atoms: O_19  and  C_20
REMARK    8  A    between atoms: C_20  and  C_21
REMARK    9  A    between atoms: C_21  and  O_22
REMARK   10  A    between atoms: C_21  and  C_23
REMARK                            x       y       z     vdW  Elec       q    Type
REMARK                         _______ _______ _______ _____ _____    ______ ____
ROOT
ATOM      1  C   UNL     1      47.947   6.761  14.467  0.00  0.00    +0.000 A 
ATOM      2  C   UNL     1      47.816   7.588  13.344  0.00  0.00    +0.000 A 
ATOM      3  C   UNL     1      47.147   7.143  12.198  0.00  0.00    +0.000 A 
ATOM      4  C   UNL     1      46.582   5.867  12.158  0.00  0.00    +0.000 A 
ATOM      5  C   UNL     1      46.692   5.045  13.284  0.00  0.00    +0.000 A 
ATOM      6  C   UNL     1      47.365   5.487  14.431  0.00  0.00    +0.000 A 
ENDROOT
BRANCH   1   7
ATOM      7  C   UNL     1      48.651   7.265  15.702  0.00  0.00    +0.000 C 
BRANCH   7  10
ATOM      8  C   UNL     1      49.912   6.153  17.504  0.00  0.00    +0.000 C 
ATOM      9  O   UNL     1      49.365   6.843  18.361  0.00  0.00    +0.000 OA
ATOM     10  N   UNL     1      49.609   6.296  16.179  0.00  0.00    +0.000 N 
ATOM     11  H   UNL     1      50.036   5.691  15.493  0.00  0.00    +0.000 HD
BRANCH   8  19
ATOM     12  C   UNL     1      50.140   2.743  17.055  0.00  0.00    +0.000 A 
ATOM     13  N   UNL     1      50.514   1.453  16.953  0.00  0.00    +0.000 NA
ATOM     14  C   UNL     1      51.715   1.104  17.432  0.00  0.00    +0.000 A 
ATOM     15  N   UNL     1      52.602   1.901  18.019  0.00  0.00    +0.000 NA
ATOM     16  C   UNL     1      52.193   3.178  18.095  0.00  0.00    +0.000 A 
ATOM     17  S   UNL     1      53.199   4.335  18.828  0.00  0.00    +0.000 S 
ATOM     18  C   UNL     1      52.076   5.574  18.523  0.00  0.00    +0.000 A 
ATOM     19  C   UNL     1      50.931   5.148  17.861  0.00  0.00    +0.000 A 
ATOM     20  C   UNL     1      50.992   3.705  17.631  0.00  0.00    +0.000 A 
BRANCH  12  22
ATOM     21  C   UNL     1      47.865   3.016  17.594  0.00  0.00    +0.000 C 
ATOM     22  O   UNL     1      48.887   3.100  16.603  0.00  0.00    +0.000 OA
ENDBRANCH  12  22
ENDBRANCH   8  19
ENDBRANCH   7  10
ENDBRANCH   1   7
BRANCH   4  23
ATOM     23  O   UNL     1      45.914   5.322  11.091  0.00  0.00    +0.000 OA
BRANCH  23  24
ATOM     24  C   UNL     1      45.031   4.226  11.381  0.00  0.00    +0.000 C 
BRANCH  24  25
ATOM     25  C   UNL     1      44.275   3.762  10.117  0.00  0.00    +0.000 C 
BRANCH  25  26
ATOM     26  C   UNL     1      45.181   3.281   9.002  0.00  0.00    +0.000 A 
ATOM     27  C   UNL     1      45.799   4.179   8.115  0.00  0.00    +0.000 A 
ATOM     28  C   UNL     1      46.680   3.724   7.132  0.00  0.00    +0.000 A 
ATOM     29  C   UNL     1      46.949   2.364   7.013  0.00  0.00    +0.000 A 
ATOM     30  C   UNL     1      46.323   1.460   7.867  0.00  0.00    +0.000 A 
ATOM     31 CL   UNL     1      46.651  -0.222   7.720  0.00  0.00    +0.000 Cl
ATOM     32  C   UNL     1      45.441   1.909   8.852  0.00  0.00    +0.000 A 
ENDBRANCH  25  26
BRANCH  25  33
ATOM     33  O   UNL     1      43.401   4.778   9.628  0.00  0.00    +0.000 OA
ATOM     34  H   UNL     1      43.816   5.630   9.848  0.00  0.00    +0.000 HD
ENDBRANCH  25  33
ENDBRANCH  24  25
ENDBRANCH  23  24
ENDBRANCH   4  23
TORSDOF 9
ENDMDL
MODEL 2
REMARK VINA RESULT:    -8.143      2.245      2.779
REMARK INTER + INTRA:         -13.277
REMARK INTER:                 -11.950
REMARK INTRA:                  -1.327
REMARK UNBOUND:                -1.088
REMARK  Name = 
REMARK  10 active torsions:
REMARK  status: ('A' for Active; 'I' for Inactive)
REMARK    1  A    between atoms: C_1  and  O_2
REMARK    2  A    between atoms: O_2  and  C_3
REMARK    3  A    between atoms: C_10  and  C_11
REMARK    4  A    between atoms: N_13  and  C_14
REMARK    5  A    between atoms: C_14  and  C_15
REMARK    6  A    between atoms: C_18  and  O_19
REMARK    7  A    between atoms: O_19  and  C_20
REMARK    8  A    between atoms: C_20  and  C_21
REMARK    9  A    between atoms: C_21  and  O_22
REMARK   10  A    between atoms: C_21  and  C_23
REMARK                            x       y       z     vdW  Elec       q    Type
REMARK                         _______ _______ _______ _____ _____    ______ ____
ROOT
ATOM      1  C   UNL     1      47.425   6.548  12.777  0.00  0.00    +0.000 A 
ATOM      2  C   UNL     1      46.690   7.176  11.763  0.00  0.00    +0.000 A 
ATOM      3  C   UNL     1      45.371   6.794  11.489  0.00  0.00    +0.000 A 
ATOM      4  C   UNL     1      44.757   5.786  12.234  0.00  0.00    +0.000 A 
ATOM      5  C   UNL     1      45.479   5.169  13.260  0.00  0.00    +0.000 A 
ATOM      6  C   UNL     1      46.800   5.548  13.533  0.00  0.00    +0.000 A 
ENDROOT
BRANCH   1   7
ATOM      7  C   UNL     1      48.836   6.987  13.074  0.00  0.00    +0.000 C 
BRANCH   7  10
ATOM      8  C   UNL     1      48.666   7.913  15.352  0.00  0.00    +0.000 C 
ATOM      9  O   UNL     1      48.010   8.871  14.952  0.00  0.00    +0.000 OA
ATOM     10  N   UNL     1      49.101   6.943  14.492  0.00  0.00    +0.000 N 
ATOM     11  H   UNL     1      49.601   6.140  14.845  0.00  0.00    +0.000 HD
BRANCH   8  19
ATOM     12  C   UNL     1      49.063   5.195  17.434  0.00  0.00    +0.000 A 
ATOM     13  N   UNL     1      49.347   4.331  18.428  0.00  0.00    +0.000 NA
ATOM     14  C   UNL     1      49.753   4.830  19.601  0.00  0.00    +0.000 A 
ATOM     15  N   UNL     1      49.903   6.113  19.914  0.00  0.00    +0.000 NA
ATOM     16  C   UNL     1      49.615   6.940  18.895  0.00  0.00    +0.000 A 
ATOM     17  S   UNL     1      49.741   8.619  19.120  0.00  0.00    +0.000 S 
ATOM     18  C   UNL     1      49.279   8.918  17.513  0.00  0.00    +0.000 A 
ATOM     19  C   UNL     1      49.028   7.768  16.774  0.00  0.00    +0.000 A 
ATOM     20  C   UNL     1      49.204   6.584  17.615  0.00  0.00    +0.000 A 
BRANCH  12  22
ATOM     21  C   UNL     1      47.609   3.677  16.375  0.00  0.00    +0.000 C 
ATOM     22  O   UNL     1      48.603   4.688  16.236  0.00  0.00    +0.000 OA
ENDBRANCH  12  22
ENDBRANCH   8  19
ENDBRANCH   7  10
ENDBRANCH   1   7
BRANCH   4  23
ATOM     23  O   UNL     1      43.479   5.323  12.050  0.00  0.00    +0.000 OA
BRANCH  23  24
ATOM     24  C   UNL     1      43.242   4.554  10.860  0.00  0.00    +0.000 C 
BRANCH  24  25
ATOM     25  C   UNL     1      44.124   3.287  10.823  0.00  0.00    +0.000 C 
BRANCH  25  26
ATOM     26  C   UNL     1      44.951   3.151   9.561  0.00  0.00    +0.000 A 
ATOM     27  C   UNL     1      45.313   4.271   8.793  0.00  0.00    +0.000 A 
ATOM     28  C   UNL     1      46.129   4.136   7.668  0.00  0.00    +0.000 A 
ATOM     29  C   UNL     1      46.585   2.877   7.285  0.00  0.00    +0.000 A 
ATOM     30  C   UNL     1      46.210   1.756   8.021  0.00  0.00    +0.000 A 
ATOM     31 CL   UNL     1      46.771   0.199   7.548  0.00  0.00    +0.000 Cl
ATOM     32  C   UNL     1      45.397   1.885   9.147  0.00  0.00    +0.000 A 
ENDBRANCH  25  26
BRANCH  25  33
ATOM     33  O   UNL     1      43.350   2.105  11.025  0.00  0.00    +0.000 OA
ATOM     34  H   UNL     1      42.419   2.385  11.054  0.00  0.00    +0.000 HD
ENDBRANCH  25  33
ENDBRANCH  24  25
ENDBRANCH  23  24
ENDBRANCH   4  23
TORSDOF 9
ENDMDL
MODEL 3
REMARK VINA RESULT:    -7.768      2.770      4.386
REMARK INTER + INTRA:         -12.716
REMARK INTER:                 -11.361
REMARK INTRA:                  -1.355
REMARK UNBOUND:                -1.088
REMARK  Name = 
REMARK  10 active torsions:
REMARK  status: ('A' for Active; 'I' for Inactive)
REMARK    1  A    between atoms: C_1  and  O_2
REMARK    2  A    between atoms: O_2  and  C_3
REMARK    3  A    between atoms: C_10  and  C_11
REMARK    4  A    between atoms: N_13  and  C_14
REMARK    5  A    between atoms: C_14  and  C_15
REMARK    6  A    between atoms: C_18  and  O_19
REMARK    7  A    between atoms: O_19  and  C_20
REMARK    8  A    between atoms: C_20  and  C_21
REMARK    9  A    between atoms: C_21  and  O_22
REMARK   10  A    between atoms: C_21  and  C_23
REMARK                            x       y       z     vdW  Elec       q    Type
REMARK                         _______ _______ _______ _____ _____    ______ ____
ROOT
ATOM      1  C   UNL     1      46.606   4.394  13.992  0.00  0.00    +0.000 A 
ATOM      2  C   UNL     1      46.186   5.694  13.684  0.00  0.00    +0.000 A 
ATOM      3  C   UNL     1      45.322   5.935  12.609  0.00  0.00    +0.000 A 
ATOM      4  C   UNL     1      44.849   4.877  11.830  0.00  0.00    +0.000 A 
ATOM      5  C   UNL     1      45.249   3.576  12.146  0.00  0.00    +0.000 A 
ATOM      6  C   UNL     1      46.117   3.333  13.219  0.00  0.00    +0.000 A 
ENDROOT
BRANCH   1   7
ATOM      7  C   UNL     1      47.519   4.150  15.167  0.00  0.00    +0.000 C 
BRANCH   7  10
ATOM      8  C   UNL     1      48.813   5.485  16.786  0.00  0.00    +0.000 C 
ATOM      9  O   UNL     1      49.501   4.515  17.091  0.00  0.00    +0.000 OA
ATOM     10  N   UNL     1      47.825   5.387  15.845  0.00  0.00    +0.000 N 
ATOM     11  H   UNL     1      47.299   6.205  15.576  0.00  0.00    +0.000 HD
BRANCH   8  19
ATOM     12  C   UNL     1      48.764   8.728  15.619  0.00  0.00    +0.000 A 
ATOM     13  N   UNL     1      48.733  10.064  15.452  0.00  0.00    +0.000 NA
ATOM     14  C   UNL     1      48.909  10.839  16.529  0.00  0.00    +0.000 A 
ATOM     15  N   UNL     1      49.125  10.435  17.776  0.00  0.00    +0.000 NA
ATOM     16  C   UNL     1      49.143   9.097  17.900  0.00  0.00    +0.000 A 
ATOM     17  S   UNL     1      49.418   8.403  19.427  0.00  0.00    +0.000 S 
ATOM     18  C   UNL     1      49.272   6.834  18.792  0.00  0.00    +0.000 A 
ATOM     19  C   UNL     1      49.006   6.798  17.429  0.00  0.00    +0.000 A 
ATOM     20  C   UNL     1      48.957   8.158  16.892  0.00  0.00    +0.000 A 
BRANCH  12  22
ATOM     21  C   UNL     1      49.846   7.687  13.806  0.00  0.00    +0.000 C 
ATOM     22  O   UNL     1      48.627   7.925  14.506  0.00  0.00    +0.000 OA
ENDBRANCH  12  22
ENDBRANCH   8  19
ENDBRANCH   7  10
ENDBRANCH   1   7
BRANCH   4  23
ATOM     23  O   UNL     1      44.010   4.993  10.752  0.00  0.00    +0.000 OA
BRANCH  23  24
ATOM     24  C   UNL     1      44.010   3.898   9.820  0.00  0.00    +0.000 C 
BRANCH  24  25
ATOM     25  C   UNL     1      44.794   4.251   8.537  0.00  0.00    +0.000 C 
BRANCH  25  26
ATOM     26  C   UNL     1      45.640   3.113   8.003  0.00  0.00    +0.000 A 
ATOM     27  C   UNL     1      45.654   1.851   8.622  0.00  0.00    +0.000 A 
ATOM     28  C   UNL     1      46.390   0.795   8.080  0.00  0.00    +0.000 A 
ATOM     29  C   UNL     1      47.134   0.987   6.919  0.00  0.00    +0.000 A 
ATOM     30  C   UNL     1      47.151   2.240   6.311  0.00  0.00    +0.000 A 
ATOM     31 CL   UNL     1      48.071   2.481   4.877  0.00  0.00    +0.000 Cl
ATOM     32  C   UNL     1      46.416   3.299   6.847  0.00  0.00    +0.000 A 
ENDBRANCH  25  26
BRANCH  25  33
ATOM     33  O   UNL     1      45.603   5.412   8.720  0.00  0.00    +0.000 OA
ATOM     34  H   UNL     1      45.811   5.457   9.670  0.00  0.00    +0.000 HD
ENDBRANCH  25  33
ENDBRANCH  24  25
ENDBRANCH  23  24
ENDBRANCH   4  23
TORSDOF 9
ENDMDL
MODEL 4
REMARK VINA RESULT:    -7.765      3.025      4.199
REMARK INTER + INTRA:         -12.711
REMARK INTER:                 -11.514
REMARK INTRA:                  -1.198
REMARK UNBOUND:                -1.088
REMARK  Name = 
REMARK  10 active torsions:
REMARK  status: ('A' for Active; 'I' for Inactive)
REMARK    1  A    between atoms: C_1  and  O_2
REMARK    2  A    between atoms: O_2  and  C_3
REMARK    3  A    between atoms: C_10  and  C_11
REMARK    4  A    between atoms: N_13  and  C_14
REMARK    5  A    between atoms: C_14  and  C_15
REMARK    6  A    between atoms: C_18  and  O_19
REMARK    7  A    between atoms: O_19  and  C_20
REMARK    8  A    between atoms: C_20  and  C_21
REMARK    9  A    between atoms: C_21  and  O_22
REMARK   10  A    between atoms: C_21  and  C_23
REMARK                            x       y       z     vdW  Elec       q    Type
REMARK                         _______ _______ _______ _____ _____    ______ ____
ROOT
ATOM      1  C   UNL     1      46.751   4.708  13.968  0.00  0.00    +0.000 A 
ATOM      2  C   UNL     1      46.354   5.984  13.549  0.00  0.00    +0.000 A 
ATOM      3  C   UNL     1      45.453   6.145  12.489  0.00  0.00    +0.000 A 
ATOM      4  C   UNL     1      44.920   5.031  11.838  0.00  0.00    +0.000 A 
ATOM      5  C   UNL     1      45.298   3.755  12.266  0.00  0.00    +0.000 A 
ATOM      6  C   UNL     1      46.203   3.592  13.323  0.00  0.00    +0.000 A 
ENDROOT
BRANCH   1   7
ATOM      7  C   UNL     1      47.706   4.553  15.125  0.00  0.00    +0.000 C 
BRANCH   7  10
ATOM      8  C   UNL     1      48.775   6.639  15.888  0.00  0.00    +0.000 C 
ATOM      9  O   UNL     1      49.736   6.461  15.144  0.00  0.00    +0.000 OA
ATOM     10  N   UNL     1      47.736   5.750  15.930  0.00  0.00    +0.000 N 
ATOM     11  H   UNL     1      46.935   5.935  16.516  0.00  0.00    +0.000 HD
BRANCH   8  19
ATOM     12  C   UNL     1      47.805   7.058  19.169  0.00  0.00    +0.000 A 
ATOM     13  N   UNL     1      47.557   7.487  20.421  0.00  0.00    +0.000 NA
ATOM     14  C   UNL     1      47.776   8.777  20.701  0.00  0.00    +0.000 A 
ATOM     15  N   UNL     1      48.213   9.713  19.864  0.00  0.00    +0.000 NA
ATOM     16  C   UNL     1      48.452   9.243  18.629  0.00  0.00    +0.000 A 
ATOM     17  S   UNL     1      49.006  10.305  17.424  0.00  0.00    +0.000 S 
ATOM     18  C   UNL     1      49.081   9.048  16.283  0.00  0.00    +0.000 A 
ATOM     19  C   UNL     1      48.701   7.809  16.783  0.00  0.00    +0.000 A 
ATOM     20  C   UNL     1      48.298   7.935  18.183  0.00  0.00    +0.000 A 
BRANCH  12  22
ATOM     21  C   UNL     1      48.490   4.817  19.390  0.00  0.00    +0.000 C 
ATOM     22  O   UNL     1      47.540   5.740  18.862  0.00  0.00    +0.000 OA
ENDBRANCH  12  22
ENDBRANCH   8  19
ENDBRANCH   7  10
ENDBRANCH   1   7
BRANCH   4  23
ATOM     23  O   UNL     1      44.040   5.066  10.787  0.00  0.00    +0.000 OA
BRANCH  23  24
ATOM     24  C   UNL     1      44.055   3.934   9.902  0.00  0.00    +0.000 C 
BRANCH  24  25
ATOM     25  C   UNL     1      44.782   4.262   8.579  0.00  0.00    +0.000 C 
BRANCH  25  26
ATOM     26  C   UNL     1      45.616   3.120   8.038  0.00  0.00    +0.000 A 
ATOM     27  C   UNL     1      45.630   1.859   8.657  0.00  0.00    +0.000 A 
ATOM     28  C   UNL     1      46.355   0.798   8.109  0.00  0.00    +0.000 A 
ATOM     29  C   UNL     1      47.088   0.986   6.941  0.00  0.00    +0.000 A 
ATOM     30  C   UNL     1      47.107   2.238   6.333  0.00  0.00    +0.000 A 
ATOM     31 CL   UNL     1      48.015   2.474   4.890  0.00  0.00    +0.000 Cl
ATOM     32  C   UNL     1      46.382   3.301   6.875  0.00  0.00    +0.000 A 
ENDBRANCH  25  26
BRANCH  25  33
ATOM     33  O   UNL     1      45.585   5.435   8.701  0.00  0.00    +0.000 OA
ATOM     34  H   UNL     1      45.631   5.832   7.814  0.00  0.00    +0.000 HD
ENDBRANCH  25  33
ENDBRANCH  24  25
ENDBRANCH  23  24
ENDBRANCH   4  23
TORSDOF 9
ENDMDL
MODEL 5
REMARK VINA RESULT:    -7.597      2.845      4.350
REMARK INTER + INTRA:         -12.460
REMARK INTER:                 -11.536
REMARK INTRA:                  -0.924
REMARK UNBOUND:                -1.088
REMARK  Name = 
REMARK  10 active torsions:
REMARK  status: ('A' for Active; 'I' for Inactive)
REMARK    1  A    between atoms: C_1  and  O_2
REMARK    2  A    between atoms: O_2  and  C_3
REMARK    3  A    between atoms: C_10  and  C_11
REMARK    4  A    between atoms: N_13  and  C_14
REMARK    5  A    between atoms: C_14  and  C_15
REMARK    6  A    between atoms: C_18  and  O_19
REMARK    7  A    between atoms: O_19  and  C_20
REMARK    8  A    between atoms: C_20  and  C_21
REMARK    9  A    between atoms: C_21  and  O_22
REMARK   10  A    between atoms: C_21  and  C_23
REMARK                            x       y       z     vdW  Elec       q    Type
REMARK                         _______ _______ _______ _____ _____    ______ ____
ROOT
ATOM      1  C   UNL     1      47.068   5.992  13.419  0.00  0.00    +0.000 A 
ATOM      2  C   UNL     1      45.995   5.193  13.833  0.00  0.00    +0.000 A 
ATOM      3  C   UNL     1      44.817   5.125  13.080  0.00  0.00    +0.000 A 
ATOM      4  C   UNL     1      44.695   5.843  11.889  0.00  0.00    +0.000 A 
ATOM      5  C   UNL     1      45.772   6.626  11.461  0.00  0.00    +0.000 A 
ATOM      6  C   UNL     1      46.950   6.699  12.216  0.00  0.00    +0.000 A 
ENDROOT
BRANCH   1   7
ATOM      7  C   UNL     1      48.338   6.037  14.231  0.00  0.00    +0.000 C 
BRANCH   7  10
ATOM      8  C   UNL     1      48.796   5.981  16.652  0.00  0.00    +0.000 C 
ATOM      9  O   UNL     1      49.737   5.209  16.493  0.00  0.00    +0.000 OA
ATOM     10  N   UNL     1      48.065   6.438  15.591  0.00  0.00    +0.000 N 
ATOM     11  H   UNL     1      47.323   7.106  15.736  0.00  0.00    +0.000 HD
BRANCH   8  19
ATOM     12  C   UNL     1      47.964   9.063  17.953  0.00  0.00    +0.000 A 
ATOM     13  N   UNL     1      47.539  10.107  18.691  0.00  0.00    +0.000 NA
ATOM     14  C   UNL     1      47.199   9.882  19.966  0.00  0.00    +0.000 A 
ATOM     15  N   UNL     1      47.241   8.720  20.610  0.00  0.00    +0.000 NA
ATOM     16  C   UNL     1      47.665   7.706  19.838  0.00  0.00    +0.000 A 
ATOM     17  S   UNL     1      47.792   6.147  20.503  0.00  0.00    +0.000 S 
ATOM     18  C   UNL     1      48.315   5.506  19.018  0.00  0.00    +0.000 A 
ATOM     19  C   UNL     1      48.397   6.442  17.996  0.00  0.00    +0.000 A 
ATOM     20  C   UNL     1      48.033   7.767  18.498  0.00  0.00    +0.000 A 
BRANCH  12  22
ATOM     21  C   UNL     1      49.730   9.649  16.512  0.00  0.00    +0.000 C 
ATOM     22  O   UNL     1      48.356   9.296  16.652  0.00  0.00    +0.000 OA
ENDBRANCH  12  22
ENDBRANCH   8  19
ENDBRANCH   7  10
ENDBRANCH   1   7
BRANCH   4  23
ATOM     23  O   UNL     1      43.591   5.860  11.076  0.00  0.00    +0.000 OA
BRANCH  23  24
ATOM     24  C   UNL     1      43.355   4.679  10.293  0.00  0.00    +0.000 C 
BRANCH  24  25
ATOM     25  C   UNL     1      44.451   3.617  10.529  0.00  0.00    +0.000 C 
BRANCH  25  26
ATOM     26  C   UNL     1      45.264   3.289   9.294  0.00  0.00    +0.000 A 
ATOM     27  C   UNL     1      45.741   4.295   8.436  0.00  0.00    +0.000 A 
ATOM     28  C   UNL     1      46.542   3.979   7.337  0.00  0.00    +0.000 A 
ATOM     29  C   UNL     1      46.870   2.653   7.071  0.00  0.00    +0.000 A 
ATOM     30  C   UNL     1      46.381   1.644   7.896  0.00  0.00    +0.000 A 
ATOM     31 CL   UNL     1      46.781   0.003   7.568  0.00  0.00    +0.000 Cl
ATOM     32  C   UNL     1      45.580   1.953   8.997  0.00  0.00    +0.000 A 
ENDBRANCH  25  26
BRANCH  25  33
ATOM     33  O   UNL     1      43.908   2.420  11.085  0.00  0.00    +0.000 OA
ATOM     34  H   UNL     1      44.304   1.681  10.591  0.00  0.00    +0.000 HD
ENDBRANCH  25  33
ENDBRANCH  24  25
ENDBRANCH  23  24
ENDBRANCH   4  23
TORSDOF 9
ENDMDL
MODEL 6
REMARK VINA RESULT:    -7.286      4.406      8.460
REMARK INTER + INTRA:         -11.994
REMARK INTER:                 -10.218
REMARK INTRA:                  -1.776
REMARK UNBOUND:                -1.088
REMARK  Name = 
REMARK  10 active torsions:
REMARK  status: ('A' for Active; 'I' for Inactive)
REMARK    1  A    between atoms: C_1  and  O_2
REMARK    2  A    between atoms: O_2  and  C_3
REMARK    3  A    between atoms: C_10  and  C_11
REMARK    4  A    between atoms: N_13  and  C_14
REMARK    5  A    between atoms: C_14  and  C_15
REMARK    6  A    between atoms: C_18  and  O_19
REMARK    7  A    between atoms: O_19  and  C_20
REMARK    8  A    between atoms: C_20  and  C_21
REMARK    9  A    between atoms: C_21  and  O_22
REMARK   10  A    between atoms: C_21  and  C_23
REMARK                            x       y       z     vdW  Elec       q    Type
REMARK                         _______ _______ _______ _____ _____    ______ ____
ROOT
ATOM      1  C   UNL     1      48.425   7.969  13.587  0.00  0.00    +0.000 A 
ATOM      2  C   UNL     1      48.108   8.988  14.496  0.00  0.00    +0.000 A 
ATOM      3  C   UNL     1      48.325   8.820  15.869  0.00  0.00    +0.000 A 
ATOM      4  C   UNL     1      48.878   7.635  16.358  0.00  0.00    +0.000 A 
ATOM      5  C   UNL     1      49.215   6.624  15.454  0.00  0.00    +0.000 A 
ATOM      6  C   UNL     1      48.994   6.789  14.080  0.00  0.00    +0.000 A 
ENDROOT
BRANCH   1   7
ATOM      7  C   UNL     1      48.205   8.176  12.110  0.00  0.00    +0.000 C 
BRANCH   7  10
ATOM      8  C   UNL     1      46.188   6.970  11.371  0.00  0.00    +0.000 C 
ATOM      9  O   UNL     1      45.461   7.897  11.721  0.00  0.00    +0.000 OA
ATOM     10  N   UNL     1      47.545   7.035  11.523  0.00  0.00    +0.000 N 
ATOM     11  H   UNL     1      48.129   6.282  11.190  0.00  0.00    +0.000 HD
BRANCH   8  19
ATOM     12  C   UNL     1      44.461   4.291  12.684  0.00  0.00    +0.000 A 
ATOM     13  N   UNL     1      43.730   3.183  12.912  0.00  0.00    +0.000 NA
ATOM     14  C   UNL     1      43.430   2.399  11.869  0.00  0.00    +0.000 A 
ATOM     15  N   UNL     1      43.786   2.585  10.602  0.00  0.00    +0.000 NA
ATOM     16  C   UNL     1      44.508   3.703  10.418  0.00  0.00    +0.000 A 
ATOM     17  S   UNL     1      45.059   4.094   8.858  0.00  0.00    +0.000 S 
ATOM     18  C   UNL     1      45.791   5.520   9.423  0.00  0.00    +0.000 A 
ATOM     19  C   UNL     1      45.631   5.735  10.785  0.00  0.00    +0.000 A 
ATOM     20  C   UNL     1      44.885   4.629  11.384  0.00  0.00    +0.000 A 
BRANCH  12  22
ATOM     21  C   UNL     1      46.112   4.814  14.279  0.00  0.00    +0.000 C 
ATOM     22  O   UNL     1      44.810   5.079  13.761  0.00  0.00    +0.000 OA
ENDBRANCH  12  22
ENDBRANCH   8  19
ENDBRANCH   7  10
ENDBRANCH   1   7
BRANCH   4  23
ATOM     23  O   UNL     1      49.126   7.355  17.678  0.00  0.00    +0.000 OA
BRANCH  23  24
ATOM     24  C   UNL     1      47.977   7.165  18.518  0.00  0.00    +0.000 C 
BRANCH  24  25
ATOM     25  C   UNL     1      48.081   5.854  19.328  0.00  0.00    +0.000 C 
BRANCH  25  26
ATOM     26  C   UNL     1      48.434   4.642  18.490  0.00  0.00    +0.000 A 
ATOM     27  C   UNL     1      47.478   3.998  17.686  0.00  0.00    +0.000 A 
ATOM     28  C   UNL     1      47.833   2.921  16.871  0.00  0.00    +0.000 A 
ATOM     29  C   UNL     1      49.148   2.462  16.857  0.00  0.00    +0.000 A 
ATOM     30  C   UNL     1      50.099   3.073  17.671  0.00  0.00    +0.000 A 
ATOM     31 CL   UNL     1      51.724   2.506  17.658  0.00  0.00    +0.000 Cl
ATOM     32  C   UNL     1      49.749   4.151  18.486  0.00  0.00    +0.000 A 
ENDBRANCH  25  26
BRANCH  25  33
ATOM     33  O   UNL     1      46.890   5.601  20.070  0.00  0.00    +0.000 OA
ATOM     34  H   UNL     1      46.995   6.052  20.926  0.00  0.00    +0.000 HD
ENDBRANCH  25  33
ENDBRANCH  24  25
ENDBRANCH  23  24
ENDBRANCH   4  23
TORSDOF 9
ENDMDL
MODEL 7
REMARK VINA RESULT:    -7.050      1.877      3.395
REMARK INTER + INTRA:         -11.641
REMARK INTER:                 -10.602
REMARK INTRA:                  -1.039
REMARK UNBOUND:                -1.088
REMARK  Name = 
REMARK  10 active torsions:
REMARK  status: ('A' for Active; 'I' for Inactive)
REMARK    1  A    between atoms: C_1  and  O_2
REMARK    2  A    between atoms: O_2  and  C_3
REMARK    3  A    between atoms: C_10  and  C_11
REMARK    4  A    between atoms: N_13  and  C_14
REMARK    5  A    between atoms: C_14  and  C_15
REMARK    6  A    between atoms: C_18  and  O_19
REMARK    7  A    between atoms: O_19  and  C_20
REMARK    8  A    between atoms: C_20  and  C_21
REMARK    9  A    between atoms: C_21  and  O_22
REMARK   10  A    between atoms: C_21  and  C_23
REMARK                            x       y       z     vdW  Elec       q    Type
REMARK                         _______ _______ _______ _____ _____    ______ ____
ROOT
ATOM      1  C   UNL     1      47.457   4.349  15.842  0.00  0.00    +0.000 A 
ATOM      2  C   UNL     1      46.806   3.649  14.818  0.00  0.00    +0.000 A 
ATOM      3  C   UNL     1      46.659   4.211  13.544  0.00  0.00    +0.000 A 
ATOM      4  C   UNL     1      47.172   5.479  13.266  0.00  0.00    +0.000 A 
ATOM      5  C   UNL     1      47.839   6.174  14.280  0.00  0.00    +0.000 A 
ATOM      6  C   UNL     1      47.984   5.614  15.556  0.00  0.00    +0.000 A 
ENDROOT
BRANCH   1   7
ATOM      7  C   UNL     1      47.626   3.718  17.202  0.00  0.00    +0.000 C 
BRANCH   7  10
ATOM      8  C   UNL     1      49.766   2.519  16.967  0.00  0.00    +0.000 C 
ATOM      9  O   UNL     1      49.273   1.722  16.172  0.00  0.00    +0.000 OA
ATOM     10  N   UNL     1      49.023   3.530  17.510  0.00  0.00    +0.000 N 
ATOM     11  H   UNL     1      49.456   4.201  18.128  0.00  0.00    +0.000 HD
BRANCH   8  19
ATOM     12  C   UNL     1      52.195   4.845  17.719  0.00  0.00    +0.000 A 
ATOM     13  N   UNL     1      53.288   5.520  18.125  0.00  0.00    +0.000 NA
ATOM     14  C   UNL     1      54.358   4.815  18.510  0.00  0.00    +0.000 A 
ATOM     15  N   UNL     1      54.477   3.491  18.530  0.00  0.00    +0.000 NA
ATOM     16  C   UNL     1      53.364   2.858  18.123  0.00  0.00    +0.000 A 
ATOM     17  S   UNL     1      53.341   1.159  18.075  0.00  0.00    +0.000 S 
ATOM     18  C   UNL     1      51.730   1.149  17.534  0.00  0.00    +0.000 A 
ATOM     19  C   UNL     1      51.176   2.414  17.387  0.00  0.00    +0.000 A 
ATOM     20  C   UNL     1      52.169   3.438  17.714  0.00  0.00    +0.000 A 
BRANCH  12  22
ATOM     21  C   UNL     1      50.788   6.695  18.091  0.00  0.00    +0.000 C 
ATOM     22  O   UNL     1      51.104   5.567  17.280  0.00  0.00    +0.000 OA
ENDBRANCH  12  22
ENDBRANCH   8  19
ENDBRANCH   7  10
ENDBRANCH   1   7
BRANCH   4  23
ATOM     23  O   UNL     1      47.080   6.133  12.064  0.00  0.00    +0.000 OA
BRANCH  23  24
ATOM     24  C   UNL     1      46.033   7.109  11.945  0.00  0.00    +0.000 C 
BRANCH  24  25
ATOM     25  C   UNL     1      44.671   6.442  11.649  0.00  0.00    +0.000 C 
BRANCH  25  26
ATOM     26  C   UNL     1      44.768   5.214  10.767  0.00  0.00    +0.000 A 
ATOM     27  C   UNL     1      44.078   4.029  11.074  0.00  0.00    +0.000 A 
ATOM     28  C   UNL     1      44.128   2.927  10.218  0.00  0.00    +0.000 A 
ATOM     29  C   UNL     1      44.878   2.988   9.046  0.00  0.00    +0.000 A 
ATOM     30  C   UNL     1      45.589   4.147   8.744  0.00  0.00    +0.000 A 
ATOM     31 CL   UNL     1      46.520   4.224   7.298  0.00  0.00    +0.000 Cl
ATOM     32  C   UNL     1      45.542   5.251   9.596  0.00  0.00    +0.000 A 
ENDBRANCH  25  26
BRANCH  25  33
ATOM     33  O   UNL     1      43.745   7.370  11.088  0.00  0.00    +0.000 OA
ATOM     34  H   UNL     1      44.274   8.052  10.639  0.00  0.00    +0.000 HD
ENDBRANCH  25  33
ENDBRANCH  24  25
ENDBRANCH  23  24
ENDBRANCH   4  23
TORSDOF 9
ENDMDL
MODEL 8
REMARK VINA RESULT:    -6.857      4.491      9.738
REMARK INTER + INTRA:         -11.352
REMARK INTER:                 -10.390
REMARK INTRA:                  -0.962
REMARK UNBOUND:                -1.088
REMARK  Name = 
REMARK  10 active torsions:
REMARK  status: ('A' for Active; 'I' for Inactive)
REMARK    1  A    between atoms: C_1  and  O_2
REMARK    2  A    between atoms: O_2  and  C_3
REMARK    3  A    between atoms: C_10  and  C_11
REMARK    4  A    between atoms: N_13  and  C_14
REMARK    5  A    between atoms: C_14  and  C_15
REMARK    6  A    between atoms: C_18  and  O_19
REMARK    7  A    between atoms: O_19  and  C_20
REMARK    8  A    between atoms: C_20  and  C_21
REMARK    9  A    between atoms: C_21  and  O_22
REMARK   10  A    between atoms: C_21  and  C_23
REMARK                            x       y       z     vdW  Elec       q    Type
REMARK                         _______ _______ _______ _____ _____    ______ ____
ROOT
ATOM      1  C   UNL     1      48.629   3.440  17.198  0.00  0.00    +0.000 A 
ATOM      2  C   UNL     1      49.236   4.651  17.556  0.00  0.00    +0.000 A 
ATOM      3  C   UNL     1      50.611   4.716  17.812  0.00  0.00    +0.000 A 
ATOM      4  C   UNL     1      51.408   3.576  17.700  0.00  0.00    +0.000 A 
ATOM      5  C   UNL     1      50.809   2.370  17.323  0.00  0.00    +0.000 A 
ATOM      6  C   UNL     1      49.433   2.301  17.071  0.00  0.00    +0.000 A 
ENDROOT
BRANCH   1   7
ATOM      7  C   UNL     1      47.150   3.393  16.904  0.00  0.00    +0.000 C 
BRANCH   7  10
ATOM      8  C   UNL     1      46.884   4.192  14.588  0.00  0.00    +0.000 C 
ATOM      9  O   UNL     1      47.283   3.122  14.135  0.00  0.00    +0.000 OA
ATOM     10  N   UNL     1      46.785   4.399  15.936  0.00  0.00    +0.000 N 
ATOM     11  H   UNL     1      46.415   5.269  16.289  0.00  0.00    +0.000 HD
BRANCH   8  19
ATOM     12  C   UNL     1      44.149   4.818  12.586  0.00  0.00    +0.000 A 
ATOM     13  N   UNL     1      43.190   5.339  11.797  0.00  0.00    +0.000 NA
ATOM     14  C   UNL     1      43.388   6.560  11.284  0.00  0.00    +0.000 A 
ATOM     15  N   UNL     1      44.453   7.336  11.460  0.00  0.00    +0.000 NA
ATOM     16  C   UNL     1      45.382   6.782  12.257  0.00  0.00    +0.000 A 
ATOM     17  S   UNL     1      46.817   7.632  12.583  0.00  0.00    +0.000 S 
ATOM     18  C   UNL     1      47.385   6.383  13.585  0.00  0.00    +0.000 A 
ATOM     19  C   UNL     1      46.510   5.310  13.703  0.00  0.00    +0.000 A 
ATOM     20  C   UNL     1      45.321   5.541  12.882  0.00  0.00    +0.000 A 
BRANCH  12  22
ATOM     21  C   UNL     1      43.464   2.614  12.128  0.00  0.00    +0.000 C 
ATOM     22  O   UNL     1      43.970   3.544  13.082  0.00  0.00    +0.000 OA
ENDBRANCH  12  22
ENDBRANCH   8  19
ENDBRANCH   7  10
ENDBRANCH   1   7
BRANCH   4  23
ATOM     23  O   UNL     1      52.758   3.518  17.934  0.00  0.00    +0.000 OA
BRANCH  23  24
ATOM     24  C   UNL     1      53.286   2.239  18.320  0.00  0.00    +0.000 C 
BRANCH  24  25
ATOM     25  C   UNL     1      54.388   1.767  17.346  0.00  0.00    +0.000 C 
BRANCH  25  26
ATOM     26  C   UNL     1      54.561   0.262  17.298  0.00  0.00    +0.000 A 
ATOM     27  C   UNL     1      55.020  -0.390  16.141  0.00  0.00    +0.000 A 
ATOM     28  C   UNL     1      55.233  -1.770  16.133  0.00  0.00    +0.000 A 
ATOM     29  C   UNL     1      54.980  -2.521  17.278  0.00  0.00    +0.000 A 
ATOM     30  C   UNL     1      54.498  -1.891  18.422  0.00  0.00    +0.000 A 
ATOM     31 CL   UNL     1      54.180  -2.818  19.837  0.00  0.00    +0.000 Cl
ATOM     32  C   UNL     1      54.283  -0.512  18.436  0.00  0.00    +0.000 A 
ENDBRANCH  25  26
BRANCH  25  33
ATOM     33  O   UNL     1      55.639   2.390  17.631  0.00  0.00    +0.000 OA
ATOM     34  H   UNL     1      55.480   3.007  18.367  0.00  0.00    +0.000 HD
ENDBRANCH  25  33
ENDBRANCH  24  25
ENDBRANCH  23  24
ENDBRANCH   4  23
TORSDOF 9
ENDMDL
MODEL 9
REMARK VINA RESULT:    -6.549      4.347      8.747
REMARK INTER + INTRA:         -10.892
REMARK INTER:                  -8.802
REMARK INTRA:                  -2.090
REMARK UNBOUND:                -1.088
REMARK  Name = 
REMARK  10 active torsions:
REMARK  status: ('A' for Active; 'I' for Inactive)
REMARK    1  A    between atoms: C_1  and  O_2
REMARK    2  A    between atoms: O_2  and  C_3
REMARK    3  A    between atoms: C_10  and  C_11
REMARK    4  A    between atoms: N_13  and  C_14
REMARK    5  A    between atoms: C_14  and  C_15
REMARK    6  A    between atoms: C_18  and  O_19
REMARK    7  A    between atoms: O_19  and  C_20
REMARK    8  A    between atoms: C_20  and  C_21
REMARK    9  A    between atoms: C_21  and  O_22
REMARK   10  A    between atoms: C_21  and  C_23
REMARK                            x       y       z     vdW  Elec       q    Type
REMARK                         _______ _______ _______ _____ _____    ______ ____
ROOT
ATOM      1  C   UNL     1      48.684   8.510  15.921  0.00  0.00    +0.000 A 
ATOM      2  C   UNL     1      47.905   9.104  16.923  0.00  0.00    +0.000 A 
ATOM      3  C   UNL     1      48.237   8.953  18.275  0.00  0.00    +0.000 A 
ATOM      4  C   UNL     1      49.362   8.217  18.650  0.00  0.00    +0.000 A 
ATOM      5  C   UNL     1      50.153   7.639  17.653  0.00  0.00    +0.000 A 
ATOM      6  C   UNL     1      49.821   7.786  16.299  0.00  0.00    +0.000 A 
ENDROOT
BRANCH   1   7
ATOM      7  C   UNL     1      48.324   8.703  14.469  0.00  0.00    +0.000 C 
BRANCH   7  10
ATOM      8  C   UNL     1      47.731   6.548  13.431  0.00  0.00    +0.000 C 
ATOM      9  O   UNL     1      48.912   6.280  13.227  0.00  0.00    +0.000 OA
ATOM     10  N   UNL     1      47.363   7.715  14.041  0.00  0.00    +0.000 N 
ATOM     11  H   UNL     1      46.391   7.898  14.240  0.00  0.00    +0.000 HD
BRANCH   8  19
ATOM     12  C   UNL     1      44.700   7.018  11.858  0.00  0.00    +0.000 A 
ATOM     13  N   UNL     1      43.525   6.906  11.209  0.00  0.00    +0.000 NA
ATOM     14  C   UNL     1      43.013   5.682  11.036  0.00  0.00    +0.000 A 
ATOM     15  N   UNL     1      43.537   4.532  11.449  0.00  0.00    +0.000 NA
ATOM     16  C   UNL     1      44.709   4.687  12.086  0.00  0.00    +0.000 A 
ATOM     17  S   UNL     1      45.517   3.321  12.693  0.00  0.00    +0.000 S 
ATOM     18  C   UNL     1      46.798   4.276  13.270  0.00  0.00    +0.000 A 
ATOM     19  C   UNL     1      46.651   5.633  13.014  0.00  0.00    +0.000 A 
ATOM     20  C   UNL     1      45.383   5.879  12.328  0.00  0.00    +0.000 A 
BRANCH  12  22
ATOM     21  C   UNL     1      44.518   9.317  11.387  0.00  0.00    +0.000 C 
ATOM     22  O   UNL     1      45.212   8.280  12.077  0.00  0.00    +0.000 OA
ENDBRANCH  12  22
ENDBRANCH   8  19
ENDBRANCH   7  10
ENDBRANCH   1   7
BRANCH   4  23
ATOM     23  O   UNL     1      49.778   7.994  19.938  0.00  0.00    +0.000 OA
BRANCH  23  24
ATOM     24  C   UNL     1      50.157   6.647  20.264  0.00  0.00    +0.000 C 
BRANCH  24  25
ATOM     25  C   UNL     1      48.919   5.737  20.426  0.00  0.00    +0.000 C 
BRANCH  25  26
ATOM     26  C   UNL     1      48.594   4.917  19.194  0.00  0.00    +0.000 A 
ATOM     27  C   UNL     1      47.410   5.121  18.465  0.00  0.00    +0.000 A 
ATOM     28  C   UNL     1      47.155   4.401  17.296  0.00  0.00    +0.000 A 
ATOM     29  C   UNL     1      48.074   3.456  16.845  0.00  0.00    +0.000 A 
ATOM     30  C   UNL     1      49.237   3.224  17.574  0.00  0.00    +0.000 A 
ATOM     31 CL   UNL     1      50.372   2.055  17.021  0.00  0.00    +0.000 Cl
ATOM     32  C   UNL     1      49.498   3.942  18.742  0.00  0.00    +0.000 A 
ENDBRANCH  25  26
BRANCH  25  33
ATOM     33  O   UNL     1      47.772   6.482  20.830  0.00  0.00    +0.000 OA
ATOM     34  H   UNL     1      47.602   7.132  20.126  0.00  0.00    +0.000 HD
ENDBRANCH  25  33
ENDBRANCH  24  25
ENDBRANCH  23  24
ENDBRANCH   4  23
TORSDOF 9
ENDMDL
