MODEL 1
REMARK VINA RESULT:    -9.055      0.000      0.000
REMARK INTER + INTRA:         -12.404
REMARK INTER:                 -11.702
REMARK INTRA:                  -0.702
REMARK UNBOUND:                -0.702
REMARK  Name = 
REMARK  5 active torsions:
REMARK  status: ('A' for Active; 'I' for Inactive)
REMARK    1  A    between atoms: C_2  and  C_4
REMARK    2  A    between atoms: C_7  and  O_8
REMARK    3  A    between atoms: O_8  and  C_9
REMARK    4  A    between atoms: C_9  and  C_10
REMARK    5  A    between atoms: C_12  and  C_13
REMARK                            x       y       z     vdW  Elec       q    Type
REMARK                         _______ _______ _______ _____ _____    ______ ____
ROOT
ATOM      1  C   UNL     1      43.817   3.278  11.596  0.00  0.00    +0.000 C 
ENDROOT
BRANCH   1   2
ATOM      2  C   UNL     1      44.931   4.049  12.268  0.00  0.00    +0.000 A 
ATOM      3  C   UNL     1      45.124   5.408  12.017  0.00  0.00    +0.000 A 
ATOM      4  C   UNL     1      46.183   6.097  12.629  0.00  0.00    +0.000 A 
ATOM      5  C   UNL     1      47.029   5.346  13.456  0.00  0.00    +0.000 A 
ATOM      6  C   UNL     1      46.789   3.993  13.632  0.00  0.00    +0.000 A 
ATOM      7  N   UNL     1      45.767   3.333  13.059  0.00  0.00    +0.000 NA
BRANCH   4   8
ATOM      8  C   UNL     1      46.388   7.551  12.426  0.00  0.00    +0.000 A 
ATOM      9  C   UNL     1      47.673   8.093  12.219  0.00  0.00    +0.000 A 
ATOM     10  C   UNL     1      47.868   9.460  11.986  0.00  0.00    +0.000 A 
ATOM     11  C   UNL     1      46.775  10.319  11.945  0.00  0.00    +0.000 A 
ATOM     12  C   UNL     1      45.505   9.805  12.156  0.00  0.00    +0.000 A 
ATOM     13  F   UNL     1      44.446  10.626  12.113  0.00  0.00    +0.000 F 
ATOM     14  C   UNL     1      45.306   8.449  12.404  0.00  0.00    +0.000 A 
ENDBRANCH   4   8
ENDBRANCH   1   2
BRANCH   1  15
ATOM     15  O   UNL     1      43.586   3.727  10.256  0.00  0.00    +0.000 OA
BRANCH  15  19
ATOM     16  C   UNL     1      46.580   2.623   7.568  0.00  0.00    +0.000 A 
ATOM     17  C   UNL     1      46.222   3.971   7.652  0.00  0.00    +0.000 A 
ATOM     18  C   UNL     1      45.223   4.378   8.542  0.00  0.00    +0.000 A 
ATOM     19  C   UNL     1      44.571   3.444   9.347  0.00  0.00    +0.000 A 
ATOM     20  C   UNL     1      44.917   2.092   9.247  0.00  0.00    +0.000 A 
ATOM     21  C   UNL     1      45.913   1.678   8.356  0.00  0.00    +0.000 A 
BRANCH  16  23
ATOM     22  N   UNL     1      47.855   2.924   5.519  0.00  0.00    +0.000 N 
ATOM     23  C   UNL     1      47.643   2.164   6.638  0.00  0.00    +0.000 C 
ATOM     24  O   UNL     1      48.324   1.175   6.871  0.00  0.00    +0.000 OA
ATOM     25  H   UNL     1      48.645   2.663   4.942  0.00  0.00    +0.000 HD
ATOM     26  H   UNL     1      47.501   3.864   5.427  0.00  0.00    +0.000 HD
ENDBRANCH  16  23
ENDBRANCH  15  19
ENDBRANCH   1  15
TORSDOF 5
ENDMDL
MODEL 2
REMARK VINA RESULT:    -8.431      1.093      1.417
REMARK INTER + INTRA:         -11.597
REMARK INTER:                 -10.853
REMARK INTRA:                  -0.744
REMARK UNBOUND:                -0.702
REMARK  Name = 
REMARK  5 active torsions:
REMARK  status: ('A' for Active; 'I' for Inactive)
REMARK    1  A    between atoms: C_2  and  C_4
REMARK    2  A    between atoms: C_7  and  O_8
REMARK    3  A    between atoms: O_8  and  C_9
REMARK    4  A    between atoms: C_9  and  C_10
REMARK    5  A    between atoms: C_12  and  C_13
REMARK                            x       y       z     vdW  Elec       q    Type
REMARK                         _______ _______ _______ _____ _____    ______ ____
ROOT
ATOM      1  C   UNL     1      43.976   3.525  11.737  0.00  0.00    +0.000 C 
ENDROOT
BRANCH   1   2
ATOM      2  C   UNL     1      44.809   4.693  12.215  0.00  0.00    +0.000 A 
ATOM      3  C   UNL     1      44.552   5.993  11.780  0.00  0.00    +0.000 A 
ATOM      4  C   UNL     1      45.357   7.058  12.213  0.00  0.00    +0.000 A 
ATOM      5  C   UNL     1      46.426   6.734  13.060  0.00  0.00    +0.000 A 
ATOM      6  C   UNL     1      46.635   5.415  13.425  0.00  0.00    +0.000 A 
ATOM      7  N   UNL     1      45.856   4.394  13.023  0.00  0.00    +0.000 NA
BRANCH   4   8
ATOM      8  C   UNL     1      45.082   8.458  11.812  0.00  0.00    +0.000 A 
ATOM      9  C   UNL     1      45.900   9.523  12.244  0.00  0.00    +0.000 A 
ATOM     10  C   UNL     1      45.669  10.842  11.835  0.00  0.00    +0.000 A 
ATOM     11  C   UNL     1      44.615  11.126  10.973  0.00  0.00    +0.000 A 
ATOM     12  C   UNL     1      43.795  10.093  10.546  0.00  0.00    +0.000 A 
ATOM     13  F   UNL     1      42.781  10.358   9.711  0.00  0.00    +0.000 F 
ATOM     14  C   UNL     1      44.010   8.781  10.962  0.00  0.00    +0.000 A 
ENDBRANCH   4   8
ENDBRANCH   1   2
BRANCH   1  15
ATOM     15  O   UNL     1      43.562   3.684  10.375  0.00  0.00    +0.000 OA
BRANCH  15  19
ATOM     16  C   UNL     1      46.459   2.662   7.551  0.00  0.00    +0.000 A 
ATOM     17  C   UNL     1      46.083   4.003   7.666  0.00  0.00    +0.000 A 
ATOM     18  C   UNL     1      45.115   4.383   8.602  0.00  0.00    +0.000 A 
ATOM     19  C   UNL     1      44.513   3.428   9.422  0.00  0.00    +0.000 A 
ATOM     20  C   UNL     1      44.877   2.084   9.291  0.00  0.00    +0.000 A 
ATOM     21  C   UNL     1      45.841   1.697   8.354  0.00  0.00    +0.000 A 
BRANCH  16  23
ATOM     22  N   UNL     1      47.542   2.918   5.389  0.00  0.00    +0.000 N 
ATOM     23  C   UNL     1      47.490   2.232   6.572  0.00  0.00    +0.000 C 
ATOM     24  O   UNL     1      48.280   1.332   6.818  0.00  0.00    +0.000 OA
ATOM     25  H   UNL     1      48.308   2.687   4.769  0.00  0.00    +0.000 HD
ATOM     26  H   UNL     1      47.090   3.811   5.259  0.00  0.00    +0.000 HD
ENDBRANCH  16  23
ENDBRANCH  15  19
ENDBRANCH   1  15
TORSDOF 5
ENDMDL
MODEL 3
REMARK VINA RESULT:    -8.395      2.056      2.673
REMARK INTER + INTRA:         -11.550
REMARK INTER:                 -10.901
REMARK INTRA:                  -0.650
REMARK UNBOUND:                -0.702
REMARK  Name = 
REMARK  5 active torsions:
REMARK  status: ('A' for Active; 'I' for Inactive)
REMARK    1  A    between atoms: C_2  and  C_4
REMARK    2  A    between atoms: C_7  and  O_8
REMARK    3  A    between atoms: O_8  and  C_9
REMARK    4  A    between atoms: C_9  and  C_10
REMARK    5  A    between atoms: C_12  and  C_13
REMARK                            x       y       z     vdW  Elec       q    Type
REMARK                         _______ _______ _______ _____ _____    ______ ____
ROOT
ATOM      1  C   UNL     1      44.076   3.495  11.651  0.00  0.00    +0.000 C 
ENDROOT
BRANCH   1   2
ATOM      2  C   UNL     1      44.519   4.940  11.699  0.00  0.00    +0.000 A 
ATOM      3  C   UNL     1      45.807   5.290  12.106  0.00  0.00    +0.000 A 
ATOM      4  C   UNL     1      46.186   6.640  12.172  0.00  0.00    +0.000 A 
ATOM      5  C   UNL     1      45.206   7.586  11.845  0.00  0.00    +0.000 A 
ATOM      6  C   UNL     1      43.940   7.162  11.479  0.00  0.00    +0.000 A 
ATOM      7  N   UNL     1      43.577   5.868  11.400  0.00  0.00    +0.000 NA
BRANCH   4   8
ATOM      8  C   UNL     1      47.561   7.046  12.550  0.00  0.00    +0.000 A 
ATOM      9  C   UNL     1      48.366   7.818  11.687  0.00  0.00    +0.000 A 
ATOM     10  C   UNL     1      49.649   8.239  12.056  0.00  0.00    +0.000 A 
ATOM     11  C   UNL     1      50.155   7.905  13.307  0.00  0.00    +0.000 A 
ATOM     12  C   UNL     1      49.382   7.139  14.165  0.00  0.00    +0.000 A 
ATOM     13  F   UNL     1      49.862   6.816  15.374  0.00  0.00    +0.000 F 
ATOM     14  C   UNL     1      48.111   6.702  13.798  0.00  0.00    +0.000 A 
ENDBRANCH   4   8
ENDBRANCH   1   2
BRANCH   1  15
ATOM     15  O   UNL     1      43.595   3.125  10.354  0.00  0.00    +0.000 OA
BRANCH  15  19
ATOM     16  C   UNL     1      46.506   2.592   7.411  0.00  0.00    +0.000 A 
ATOM     17  C   UNL     1      45.964   3.868   7.591  0.00  0.00    +0.000 A 
ATOM     18  C   UNL     1      44.987   4.084   8.569  0.00  0.00    +0.000 A 
ATOM     19  C   UNL     1      44.539   3.030   9.365  0.00  0.00    +0.000 A 
ATOM     20  C   UNL     1      45.068   1.750   9.170  0.00  0.00    +0.000 A 
ATOM     21  C   UNL     1      46.044   1.527   8.191  0.00  0.00    +0.000 A 
BRANCH  16  23
ATOM     22  N   UNL     1      47.454   3.039   5.217  0.00  0.00    +0.000 N 
ATOM     23  C   UNL     1      47.551   2.336   6.388  0.00  0.00    +0.000 C 
ATOM     24  O   UNL     1      48.476   1.562   6.587  0.00  0.00    +0.000 OA
ATOM     25  H   UNL     1      48.221   2.935   4.565  0.00  0.00    +0.000 HD
ATOM     26  H   UNL     1      46.869   3.856   5.121  0.00  0.00    +0.000 HD
ENDBRANCH  16  23
ENDBRANCH  15  19
ENDBRANCH   1  15
TORSDOF 5
ENDMDL
MODEL 4
REMARK VINA RESULT:    -8.360      2.647      4.077
REMARK INTER + INTRA:         -11.506
REMARK INTER:                 -10.863
REMARK INTRA:                  -0.643
REMARK UNBOUND:                -0.702
REMARK  Name = 
REMARK  5 active torsions:
REMARK  status: ('A' for Active; 'I' for Inactive)
REMARK    1  A    between atoms: C_2  and  C_4
REMARK    2  A    between atoms: C_7  and  O_8
REMARK    3  A    between atoms: O_8  and  C_9
REMARK    4  A    between atoms: C_9  and  C_10
REMARK    5  A    between atoms: C_12  and  C_13
REMARK                            x       y       z     vdW  Elec       q    Type
REMARK                         _______ _______ _______ _____ _____    ______ ____
ROOT
ATOM      1  C   UNL     1      43.971   4.309  11.563  0.00  0.00    +0.000 C 
ENDROOT
BRANCH   1   2
ATOM      2  C   UNL     1      45.124   5.041  12.210  0.00  0.00    +0.000 A 
ATOM      3  C   UNL     1      45.732   4.557  13.369  0.00  0.00    +0.000 A 
ATOM      4  C   UNL     1      46.781   5.270  13.970  0.00  0.00    +0.000 A 
ATOM      5  C   UNL     1      47.145   6.481  13.367  0.00  0.00    +0.000 A 
ATOM      6  C   UNL     1      46.475   6.911  12.234  0.00  0.00    +0.000 A 
ATOM      7  N   UNL     1      45.479   6.223  11.647  0.00  0.00    +0.000 NA
BRANCH   4   8
ATOM      8  C   UNL     1      47.483   4.759  15.171  0.00  0.00    +0.000 A 
ATOM      9  C   UNL     1      47.443   3.395  15.526  0.00  0.00    +0.000 A 
ATOM     10  C   UNL     1      48.138   2.900  16.636  0.00  0.00    +0.000 A 
ATOM     11  C   UNL     1      48.901   3.762  17.416  0.00  0.00    +0.000 A 
ATOM     12  C   UNL     1      48.945   5.108  17.088  0.00  0.00    +0.000 A 
ATOM     13  F   UNL     1      49.682   5.944  17.832  0.00  0.00    +0.000 F 
ATOM     14  C   UNL     1      48.243   5.609  15.995  0.00  0.00    +0.000 A 
ENDBRANCH   4   8
ENDBRANCH   1   2
BRANCH   1  15
ATOM     15  O   UNL     1      43.868   4.600  10.164  0.00  0.00    +0.000 OA
BRANCH  15  19
ATOM     16  C   UNL     1      46.393   2.286   7.779  0.00  0.00    +0.000 A 
ATOM     17  C   UNL     1      46.405   3.675   7.614  0.00  0.00    +0.000 A 
ATOM     18  C   UNL     1      45.573   4.482   8.397  0.00  0.00    +0.000 A 
ATOM     19  C   UNL     1      44.719   3.911   9.341  0.00  0.00    +0.000 A 
ATOM     20  C   UNL     1      44.693   2.520   9.489  0.00  0.00    +0.000 A 
ATOM     21  C   UNL     1      45.521   1.707   8.707  0.00  0.00    +0.000 A 
BRANCH  16  23
ATOM     22  N   UNL     1      48.341   1.999   6.352  0.00  0.00    +0.000 N 
ATOM     23  C   UNL     1      47.272   1.406   6.968  0.00  0.00    +0.000 C 
ATOM     24  O   UNL     1      47.076   0.203   6.878  0.00  0.00    +0.000 OA
ATOM     25  H   UNL     1      48.991   1.380   5.885  0.00  0.00    +0.000 HD
ATOM     26  H   UNL     1      48.674   2.917   6.608  0.00  0.00    +0.000 HD
ENDBRANCH  16  23
ENDBRANCH  15  19
ENDBRANCH   1  15
TORSDOF 5
ENDMDL
MODEL 5
REMARK VINA RESULT:    -8.169      3.792      6.983
REMARK INTER + INTRA:         -11.259
REMARK INTER:                 -10.482
REMARK INTRA:                  -0.776
REMARK UNBOUND:                -0.702
REMARK  Name = 
REMARK  5 active torsions:
REMARK  status: ('A' for Active; 'I' for Inactive)
REMARK    1  A    between atoms: C_2  and  C_4
REMARK    2  A    between atoms: C_7  and  O_8
REMARK    3  A    between atoms: O_8  and  C_9
REMARK    4  A    between atoms: C_9  and  C_10
REMARK    5  A    between atoms: C_12  and  C_13
REMARK                            x       y       z     vdW  Elec       q    Type
REMARK                         _______ _______ _______ _____ _____    ______ ____
ROOT
ATOM      1  C   UNL     1      44.235   6.640  11.582  0.00  0.00    +0.000 C 
ENDROOT
BRANCH   1   2
ATOM      2  C   UNL     1      44.204   5.181  11.187  0.00  0.00    +0.000 A 
ATOM      3  C   UNL     1      44.902   4.717  10.071  0.00  0.00    +0.000 A 
ATOM      4  C   UNL     1      44.835   3.364   9.706  0.00  0.00    +0.000 A 
ATOM      5  C   UNL     1      44.019   2.540  10.491  0.00  0.00    +0.000 A 
ATOM      6  C   UNL     1      43.334   3.080  11.567  0.00  0.00    +0.000 A 
ATOM      7  N   UNL     1      43.407   4.373  11.929  0.00  0.00    +0.000 NA
BRANCH   4   8
ATOM      8  C   UNL     1      45.603   2.827   8.558  0.00  0.00    +0.000 A 
ATOM      9  C   UNL     1      46.039   3.661   7.507  0.00  0.00    +0.000 A 
ATOM     10  C   UNL     1      46.801   3.166   6.441  0.00  0.00    +0.000 A 
ATOM     11  C   UNL     1      47.153   1.822   6.406  0.00  0.00    +0.000 A 
ATOM     12  C   UNL     1      46.725   0.985   7.425  0.00  0.00    +0.000 A 
ATOM     13  F   UNL     1      47.065  -0.311   7.401  0.00  0.00    +0.000 F 
ATOM     14  C   UNL     1      45.954   1.467   8.480  0.00  0.00    +0.000 A 
ENDBRANCH   4   8
ENDBRANCH   1   2
BRANCH   1  15
ATOM     15  O   UNL     1      44.989   6.856  12.780  0.00  0.00    +0.000 OA
BRANCH  15  19
ATOM     16  C   UNL     1      49.027   7.823  12.364  0.00  0.00    +0.000 A 
ATOM     17  C   UNL     1      48.071   8.788  12.033  0.00  0.00    +0.000 A 
ATOM     18  C   UNL     1      46.709   8.500  12.161  0.00  0.00    +0.000 A 
ATOM     19  C   UNL     1      46.291   7.247  12.611  0.00  0.00    +0.000 A 
ATOM     20  C   UNL     1      47.249   6.276  12.922  0.00  0.00    +0.000 A 
ATOM     21  C   UNL     1      48.613   6.557  12.793  0.00  0.00    +0.000 A 
BRANCH  16  23
ATOM     22  N   UNL     1      51.159   7.447  11.256  0.00  0.00    +0.000 N 
ATOM     23  C   UNL     1      50.480   8.105  12.246  0.00  0.00    +0.000 C 
ATOM     24  O   UNL     1      51.043   8.911  12.972  0.00  0.00    +0.000 OA
ATOM     25  H   UNL     1      52.124   7.717  11.117  0.00  0.00    +0.000 HD
ATOM     26  H   UNL     1      50.690   6.984  10.492  0.00  0.00    +0.000 HD
ENDBRANCH  16  23
ENDBRANCH  15  19
ENDBRANCH   1  15
TORSDOF 5
ENDMDL
MODEL 6
REMARK VINA RESULT:    -7.803      3.814      7.566
REMARK INTER + INTRA:         -10.786
REMARK INTER:                 -10.453
REMARK INTRA:                  -0.333
REMARK UNBOUND:                -0.702
REMARK  Name = 
REMARK  5 active torsions:
REMARK  status: ('A' for Active; 'I' for Inactive)
REMARK    1  A    between atoms: C_2  and  C_4
REMARK    2  A    between atoms: C_7  and  O_8
REMARK    3  A    between atoms: O_8  and  C_9
REMARK    4  A    between atoms: C_9  and  C_10
REMARK    5  A    between atoms: C_12  and  C_13
REMARK                            x       y       z     vdW  Elec       q    Type
REMARK                         _______ _______ _______ _____ _____    ______ ____
ROOT
ATOM      1  C   UNL     1      46.150   7.215  11.808  0.00  0.00    +0.000 C 
ENDROOT
BRANCH   1   2
ATOM      2  C   UNL     1      45.353   6.140  11.104  0.00  0.00    +0.000 A 
ATOM      3  C   UNL     1      45.932   5.333  10.123  0.00  0.00    +0.000 A 
ATOM      4  C   UNL     1      45.165   4.362   9.461  0.00  0.00    +0.000 A 
ATOM      5  C   UNL     1      43.812   4.280   9.815  0.00  0.00    +0.000 A 
ATOM      6  C   UNL     1      43.303   5.136  10.777  0.00  0.00    +0.000 A 
ATOM      7  N   UNL     1      44.038   6.058  11.424  0.00  0.00    +0.000 NA
BRANCH   4   8
ATOM      8  C   UNL     1      45.759   3.454   8.452  0.00  0.00    +0.000 A 
ATOM      9  C   UNL     1      46.337   3.948   7.264  0.00  0.00    +0.000 A 
ATOM     10  C   UNL     1      46.936   3.098   6.326  0.00  0.00    +0.000 A 
ATOM     11  C   UNL     1      46.981   1.729   6.561  0.00  0.00    +0.000 A 
ATOM     12  C   UNL     1      46.410   1.224   7.719  0.00  0.00    +0.000 A 
ATOM     13  F   UNL     1      46.453  -0.095   7.955  0.00  0.00    +0.000 F 
ATOM     14  C   UNL     1      45.798   2.062   8.648  0.00  0.00    +0.000 A 
ENDBRANCH   4   8
ENDBRANCH   1   2
BRANCH   1  15
ATOM     15  O   UNL     1      47.451   6.754  12.191  0.00  0.00    +0.000 OA
BRANCH  15  19
ATOM     16  C   UNL     1      47.555   4.797  15.875  0.00  0.00    +0.000 A 
ATOM     17  C   UNL     1      48.316   5.959  15.714  0.00  0.00    +0.000 A 
ATOM     18  C   UNL     1      48.305   6.642  14.493  0.00  0.00    +0.000 A 
ATOM     19  C   UNL     1      47.543   6.167  13.425  0.00  0.00    +0.000 A 
ATOM     20  C   UNL     1      46.798   4.993  13.583  0.00  0.00    +0.000 A 
ATOM     21  C   UNL     1      46.808   4.304  14.800  0.00  0.00    +0.000 A 
BRANCH  16  23
ATOM     22  N   UNL     1      47.949   4.745  18.275  0.00  0.00    +0.000 N 
ATOM     23  C   UNL     1      47.541   4.058  17.163  0.00  0.00    +0.000 C 
ATOM     24  O   UNL     1      47.153   2.901  17.240  0.00  0.00    +0.000 OA
ATOM     25  H   UNL     1      47.843   4.269  19.161  0.00  0.00    +0.000 HD
ATOM     26  H   UNL     1      48.027   5.751  18.292  0.00  0.00    +0.000 HD
ENDBRANCH  16  23
ENDBRANCH  15  19
ENDBRANCH   1  15
TORSDOF 5
ENDMDL
MODEL 7
REMARK VINA RESULT:    -7.369      4.496      8.194
REMARK INTER + INTRA:         -10.225
REMARK INTER:                  -9.705
REMARK INTRA:                  -0.519
REMARK UNBOUND:                -0.702
REMARK  Name = 
REMARK  5 active torsions:
REMARK  status: ('A' for Active; 'I' for Inactive)
REMARK    1  A    between atoms: C_2  and  C_4
REMARK    2  A    between atoms: C_7  and  O_8
REMARK    3  A    between atoms: O_8  and  C_9
REMARK    4  A    between atoms: C_9  and  C_10
REMARK    5  A    between atoms: C_12  and  C_13
REMARK                            x       y       z     vdW  Elec       q    Type
REMARK                         _______ _______ _______ _____ _____    ______ ____
ROOT
ATOM      1  C   UNL     1      45.839   4.938  14.054  0.00  0.00    +0.000 C 
ENDROOT
BRANCH   1   2
ATOM      2  C   UNL     1      45.018   4.713  12.804  0.00  0.00    +0.000 A 
ATOM      3  C   UNL     1      45.593   4.194  11.644  0.00  0.00    +0.000 A 
ATOM      4  C   UNL     1      44.818   4.022  10.486  0.00  0.00    +0.000 A 
ATOM      5  C   UNL     1      43.479   4.425  10.559  0.00  0.00    +0.000 A 
ATOM      6  C   UNL     1      42.988   4.959  11.739  0.00  0.00    +0.000 A 
ATOM      7  N   UNL     1      43.723   5.112  12.855  0.00  0.00    +0.000 NA
BRANCH   4   8
ATOM      8  C   UNL     1      45.383   3.426   9.252  0.00  0.00    +0.000 A 
ATOM      9  C   UNL     1      45.795   4.227   8.167  0.00  0.00    +0.000 A 
ATOM     10  C   UNL     1      46.367   3.672   7.015  0.00  0.00    +0.000 A 
ATOM     11  C   UNL     1      46.549   2.297   6.926  0.00  0.00    +0.000 A 
ATOM     12  C   UNL     1      46.141   1.492   7.979  0.00  0.00    +0.000 A 
ATOM     13  F   UNL     1      46.318   0.166   7.902  0.00  0.00    +0.000 F 
ATOM     14  C   UNL     1      45.557   2.036   9.120  0.00  0.00    +0.000 A 
ENDBRANCH   4   8
ENDBRANCH   1   2
BRANCH   1  15
ATOM     15  O   UNL     1      46.677   3.816  14.355  0.00  0.00    +0.000 OA
BRANCH  15  19
ATOM     16  C   UNL     1      49.066   4.404  17.725  0.00  0.00    +0.000 A 
ATOM     17  C   UNL     1      48.660   3.103  17.413  0.00  0.00    +0.000 A 
ATOM     18  C   UNL     1      47.859   2.868  16.290  0.00  0.00    +0.000 A 
ATOM     19  C   UNL     1      47.453   3.927  15.478  0.00  0.00    +0.000 A 
ATOM     20  C   UNL     1      47.844   5.230  15.804  0.00  0.00    +0.000 A 
ATOM     21  C   UNL     1      48.642   5.472  16.928  0.00  0.00    +0.000 A 
BRANCH  16  23
ATOM     22  N   UNL     1      51.085   3.963  19.008  0.00  0.00    +0.000 N 
ATOM     23  C   UNL     1      49.923   4.681  18.905  0.00  0.00    +0.000 C 
ATOM     24  O   UNL     1      49.631   5.532  19.732  0.00  0.00    +0.000 OA
ATOM     25  H   UNL     1      51.711   4.225  19.758  0.00  0.00    +0.000 HD
ATOM     26  H   UNL     1      51.476   3.451  18.231  0.00  0.00    +0.000 HD
ENDBRANCH  16  23
ENDBRANCH  15  19
ENDBRANCH   1  15
TORSDOF 5
ENDMDL
MODEL 8
REMARK VINA RESULT:    -7.117      3.834      7.032
REMARK INTER + INTRA:          -9.899
REMARK INTER:                  -9.275
REMARK INTRA:                  -0.624
REMARK UNBOUND:                -0.702
REMARK  Name = 
REMARK  5 active torsions:
REMARK  status: ('A' for Active; 'I' for Inactive)
REMARK    1  A    between atoms: C_2  and  C_4
REMARK    2  A    between atoms: C_7  and  O_8
REMARK    3  A    between atoms: O_8  and  C_9
REMARK    4  A    between atoms: C_9  and  C_10
REMARK    5  A    between atoms: C_12  and  C_13
REMARK                            x       y       z     vdW  Elec       q    Type
REMARK                         _______ _______ _______ _____ _____    ______ ____
ROOT
ATOM      1  C   UNL     1      45.717   5.141  13.843  0.00  0.00    +0.000 C 
ENDROOT
BRANCH   1   2
ATOM      2  C   UNL     1      44.952   4.908  12.560  0.00  0.00    +0.000 A 
ATOM      3  C   UNL     1      45.554   4.303  11.456  0.00  0.00    +0.000 A 
ATOM      4  C   UNL     1      44.833   4.125  10.266  0.00  0.00    +0.000 A 
ATOM      5  C   UNL     1      43.519   4.610  10.246  0.00  0.00    +0.000 A 
ATOM      6  C   UNL     1      43.000   5.226  11.373  0.00  0.00    +0.000 A 
ATOM      7  N   UNL     1      43.684   5.386  12.521  0.00  0.00    +0.000 NA
BRANCH   4   8
ATOM      8  C   UNL     1      45.423   3.440   9.091  0.00  0.00    +0.000 A 
ATOM      9  C   UNL     1      45.906   4.164   7.981  0.00  0.00    +0.000 A 
ATOM     10  C   UNL     1      46.503   3.525   6.887  0.00  0.00    +0.000 A 
ATOM     11  C   UNL     1      46.639   2.141   6.883  0.00  0.00    +0.000 A 
ATOM     12  C   UNL     1      46.162   1.412   7.961  0.00  0.00    +0.000 A 
ATOM     13  F   UNL     1      46.294   0.079   7.966  0.00  0.00    +0.000 F 
ATOM     14  C   UNL     1      45.553   2.040   9.045  0.00  0.00    +0.000 A 
ENDBRANCH   4   8
ENDBRANCH   1   2
BRANCH   1  15
ATOM     15  O   UNL     1      47.104   5.404  13.599  0.00  0.00    +0.000 OA
BRANCH  15  19
ATOM     16  C   UNL     1      48.236   9.072  11.961  0.00  0.00    +0.000 A 
ATOM     17  C   UNL     1      47.033   8.999  12.670  0.00  0.00    +0.000 A 
ATOM     18  C   UNL     1      46.622   7.787  13.234  0.00  0.00    +0.000 A 
ATOM     19  C   UNL     1      47.403   6.639  13.087  0.00  0.00    +0.000 A 
ATOM     20  C   UNL     1      48.596   6.710  12.361  0.00  0.00    +0.000 A 
ATOM     21  C   UNL     1      49.011   7.919  11.792  0.00  0.00    +0.000 A 
BRANCH  16  23
ATOM     22  N   UNL     1      47.736  11.261  11.027  0.00  0.00    +0.000 N 
ATOM     23  C   UNL     1      48.700  10.347  11.360  0.00  0.00    +0.000 C 
ATOM     24  O   UNL     1      49.887  10.592  11.200  0.00  0.00    +0.000 OA
ATOM     25  H   UNL     1      48.064  12.165  10.711  0.00  0.00    +0.000 HD
ATOM     26  H   UNL     1      46.791  11.202  11.374  0.00  0.00    +0.000 HD
ENDBRANCH  16  23
ENDBRANCH  15  19
ENDBRANCH   1  15
TORSDOF 5
ENDMDL
MODEL 9
REMARK VINA RESULT:    -7.116      3.617      7.427
REMARK INTER + INTRA:          -9.898
REMARK INTER:                  -9.213
REMARK INTRA:                  -0.685
REMARK UNBOUND:                -0.702
REMARK  Name = 
REMARK  5 active torsions:
REMARK  status: ('A' for Active; 'I' for Inactive)
REMARK    1  A    between atoms: C_2  and  C_4
REMARK    2  A    between atoms: C_7  and  O_8
REMARK    3  A    between atoms: O_8  and  C_9
REMARK    4  A    between atoms: C_9  and  C_10
REMARK    5  A    between atoms: C_12  and  C_13
REMARK                            x       y       z     vdW  Elec       q    Type
REMARK                         _______ _______ _______ _____ _____    ______ ____
ROOT
ATOM      1  C   UNL     1      44.529   6.444  11.739  0.00  0.00    +0.000 C 
ENDROOT
BRANCH   1   2
ATOM      2  C   UNL     1      44.407   5.025  11.232  0.00  0.00    +0.000 A 
ATOM      3  C   UNL     1      45.118   4.591  10.112  0.00  0.00    +0.000 A 
ATOM      4  C   UNL     1      44.967   3.278   9.641  0.00  0.00    +0.000 A 
ATOM      5  C   UNL     1      44.056   2.465  10.327  0.00  0.00    +0.000 A 
ATOM      6  C   UNL     1      43.364   2.976  11.413  0.00  0.00    +0.000 A 
ATOM      7  N   UNL     1      43.518   4.230  11.876  0.00  0.00    +0.000 NA
BRANCH   4   8
ATOM      8  C   UNL     1      45.745   2.769   8.487  0.00  0.00    +0.000 A 
ATOM      9  C   UNL     1      46.217   1.441   8.444  0.00  0.00    +0.000 A 
ATOM     10  C   UNL     1      46.917   0.942   7.338  0.00  0.00    +0.000 A 
ATOM     11  C   UNL     1      47.152   1.762   6.241  0.00  0.00    +0.000 A 
ATOM     12  C   UNL     1      46.703   3.073   6.268  0.00  0.00    +0.000 A 
ATOM     13  F   UNL     1      46.923   3.868   5.212  0.00  0.00    +0.000 F 
ATOM     14  C   UNL     1      46.021   3.580   7.372  0.00  0.00    +0.000 A 
ENDBRANCH   4   8
ENDBRANCH   1   2
BRANCH   1  15
ATOM     15  O   UNL     1      45.607   7.147  11.111  0.00  0.00    +0.000 OA
BRANCH  15  19
ATOM     16  C   UNL     1      48.611   8.362  13.741  0.00  0.00    +0.000 A 
ATOM     17  C   UNL     1      48.976   7.666  12.585  0.00  0.00    +0.000 A 
ATOM     18  C   UNL     1      47.997   7.244  11.680  0.00  0.00    +0.000 A 
ATOM     19  C   UNL     1      46.648   7.505  11.926  0.00  0.00    +0.000 A 
ATOM     20  C   UNL     1      46.284   8.184  13.093  0.00  0.00    +0.000 A 
ATOM     21  C   UNL     1      47.259   8.607  14.004  0.00  0.00    +0.000 A 
BRANCH  16  23
ATOM     22  N   UNL     1      50.774   9.376  14.196  0.00  0.00    +0.000 N 
ATOM     23  C   UNL     1      49.630   8.830  14.714  0.00  0.00    +0.000 C 
ATOM     24  O   UNL     1      49.450   8.766  15.921  0.00  0.00    +0.000 OA
ATOM     25  H   UNL     1      51.420   9.782  14.861  0.00  0.00    +0.000 HD
ATOM     26  H   UNL     1      50.845   9.675  13.235  0.00  0.00    +0.000 HD
ENDBRANCH  16  23
ENDBRANCH  15  19
ENDBRANCH   1  15
TORSDOF 5
ENDMDL
