MODEL 1
REMARK VINA RESULT:    -9.558      0.000      0.000
REMARK INTER + INTRA:         -12.477
REMARK INTER:                 -11.793
REMARK INTRA:                  -0.683
REMARK UNBOUND:                -0.683
REMARK  Name = 
REMARK  4 active torsions:
REMARK  status: ('A' for Active; 'I' for Inactive)
REMARK    1  A    between atoms: C_2  and  C_4
REMARK    2  A    between atoms: N_8  and  C_9
REMARK    3  A    between atoms: C_9  and  C_10
REMARK    4  A    between atoms: C_15  and  C_16
REMARK                            x       y       z     vdW  Elec       q    Type
REMARK                         _______ _______ _______ _____ _____    ______ ____
ROOT
ATOM      1  C   UNL     1      43.653   4.486  11.180  0.00  0.00    +0.000 C 
ENDROOT
BRANCH   1   6
ATOM      2  C   UNL     1      46.403   2.302   7.720  0.00  0.00    +0.000 A 
ATOM      3  C   UNL     1      45.619   1.842   8.747  0.00  0.00    +0.000 A 
ATOM      4  N   UNL     1      44.773   2.626   9.446  0.00  0.00    +0.000 NA
ATOM      5  C   UNL     1      44.719   3.927   9.113  0.00  0.00    +0.000 A 
ATOM      6  N   UNL     1      43.836   4.763   9.770  0.00  0.00    +0.000 N 
ATOM      7  N   UNL     1      45.454   4.475   8.140  0.00  0.00    +0.000 NA
ATOM      8  C   UNL     1      46.293   3.649   7.463  0.00  0.00    +0.000 A 
ATOM      9  H   UNL     1      44.089   5.720   9.548  0.00  0.00    +0.000 HD
BRANCH   2  11
ATOM     10  N   UNL     1      48.408   2.064   6.366  0.00  0.00    +0.000 N 
ATOM     11  C   UNL     1      47.340   1.457   6.969  0.00  0.00    +0.000 C 
ATOM     12  O   UNL     1      47.181   0.245   6.903  0.00  0.00    +0.000 OA
ATOM     13  H   UNL     1      49.080   1.451   5.921  0.00  0.00    +0.000 HD
ATOM     14  H   UNL     1      48.719   2.999   6.589  0.00  0.00    +0.000 HD
ENDBRANCH   2  11
ENDBRANCH   1   6
BRANCH   1  15
ATOM     15  C   UNL     1      44.913   4.849  11.929  0.00  0.00    +0.000 A 
ATOM     16  C   UNL     1      45.475   3.988  12.873  0.00  0.00    +0.000 A 
ATOM     17  C   UNL     1      46.604   4.390  13.572  0.00  0.00    +0.000 A 
ATOM     18  F   UNL     1      47.136   3.568  14.488  0.00  0.00    +0.000 F 
ATOM     19  C   UNL     1      47.198   5.630  13.345  0.00  0.00    +0.000 A 
ATOM     20  C   UNL     1      46.664   6.526  12.406  0.00  0.00    +0.000 A 
ATOM     21  C   UNL     1      45.507   6.110  11.718  0.00  0.00    +0.000 A 
BRANCH  20  22
ATOM     22  C   UNL     1      47.284   7.847  12.147  0.00  0.00    +0.000 A 
ATOM     23  C   UNL     1      48.651   7.970  11.826  0.00  0.00    +0.000 A 
ATOM     24  C   UNL     1      49.241   9.216  11.578  0.00  0.00    +0.000 A 
ATOM     25  C   UNL     1      48.474  10.373  11.655  0.00  0.00    +0.000 A 
ATOM     26  C   UNL     1      47.129  10.272  11.975  0.00  0.00    +0.000 A 
ATOM     27  F   UNL     1      46.387  11.383  12.059  0.00  0.00    +0.000 F 
ATOM     28  C   UNL     1      46.534   9.035  12.213  0.00  0.00    +0.000 A 
ENDBRANCH  20  22
ENDBRANCH   1  15
TORSDOF 4
ENDMDL
MODEL 2
REMARK VINA RESULT:    -9.108      2.046      4.217
REMARK INTER + INTRA:         -11.922
REMARK INTER:                 -11.290
REMARK INTRA:                  -0.631
REMARK UNBOUND:                -0.683
REMARK  Name = 
REMARK  4 active torsions:
REMARK  status: ('A' for Active; 'I' for Inactive)
REMARK    1  A    between atoms: C_2  and  C_4
REMARK    2  A    between atoms: N_8  and  C_9
REMARK    3  A    between atoms: C_9  and  C_10
REMARK    4  A    between atoms: C_15  and  C_16
REMARK                            x       y       z     vdW  Elec       q    Type
REMARK                         _______ _______ _______ _____ _____    ______ ____
ROOT
ATOM      1  C   UNL     1      44.484   4.905  11.307  0.00  0.00    +0.000 C 
ENDROOT
BRANCH   1   6
ATOM      2  C   UNL     1      46.561   2.403   7.601  0.00  0.00    +0.000 A 
ATOM      3  C   UNL     1      45.847   2.041   8.716  0.00  0.00    +0.000 A 
ATOM      4  N   UNL     1      45.181   2.922   9.490  0.00  0.00    +0.000 NA
ATOM      5  C   UNL     1      45.243   4.219   9.145  0.00  0.00    +0.000 A 
ATOM      6  N   UNL     1      44.542   5.155   9.882  0.00  0.00    +0.000 N 
ATOM      7  N   UNL     1      45.925   4.673   8.088  0.00  0.00    +0.000 NA
ATOM      8  C   UNL     1      46.581   3.753   7.337  0.00  0.00    +0.000 A 
ATOM      9  H   UNL     1      44.878   6.074   9.618  0.00  0.00    +0.000 HD
BRANCH   2  11
ATOM     10  N   UNL     1      48.294   1.944   5.960  0.00  0.00    +0.000 N 
ATOM     11  C   UNL     1      47.304   1.451   6.766  0.00  0.00    +0.000 C 
ATOM     12  O   UNL     1      47.058   0.253   6.806  0.00  0.00    +0.000 OA
ATOM     13  H   UNL     1      48.842   1.259   5.453  0.00  0.00    +0.000 HD
ATOM     14  H   UNL     1      48.697   2.864   6.068  0.00  0.00    +0.000 HD
ENDBRANCH   2  11
ENDBRANCH   1   6
BRANCH   1  15
ATOM     15  C   UNL     1      45.661   5.571  11.980  0.00  0.00    +0.000 A 
ATOM     16  C   UNL     1      46.371   6.599  11.359  0.00  0.00    +0.000 A 
ATOM     17  C   UNL     1      47.476   7.144  11.997  0.00  0.00    +0.000 A 
ATOM     18  F   UNL     1      48.166   8.122  11.394  0.00  0.00    +0.000 F 
ATOM     19  C   UNL     1      47.889   6.694  13.250  0.00  0.00    +0.000 A 
ATOM     20  C   UNL     1      47.203   5.661  13.909  0.00  0.00    +0.000 A 
ATOM     21  C   UNL     1      46.095   5.107  13.239  0.00  0.00    +0.000 A 
BRANCH  20  22
ATOM     22  C   UNL     1      47.623   5.172  15.243  0.00  0.00    +0.000 A 
ATOM     23  C   UNL     1      48.647   5.811  15.974  0.00  0.00    +0.000 A 
ATOM     24  C   UNL     1      49.045   5.355  17.237  0.00  0.00    +0.000 A 
ATOM     25  C   UNL     1      48.433   4.239  17.795  0.00  0.00    +0.000 A 
ATOM     26  C   UNL     1      47.429   3.595  17.089  0.00  0.00    +0.000 A 
ATOM     27  F   UNL     1      46.840   2.514  17.617  0.00  0.00    +0.000 F 
ATOM     28  C   UNL     1      47.020   4.049  15.837  0.00  0.00    +0.000 A 
ENDBRANCH  20  22
ENDBRANCH   1  15
TORSDOF 4
ENDMDL
MODEL 3
REMARK VINA RESULT:    -8.261      5.046      7.963
REMARK INTER + INTRA:         -10.876
REMARK INTER:                 -10.341
REMARK INTRA:                  -0.535
REMARK UNBOUND:                -0.683
REMARK  Name = 
REMARK  4 active torsions:
REMARK  status: ('A' for Active; 'I' for Inactive)
REMARK    1  A    between atoms: C_2  and  C_4
REMARK    2  A    between atoms: N_8  and  C_9
REMARK    3  A    between atoms: C_9  and  C_10
REMARK    4  A    between atoms: C_15  and  C_16
REMARK                            x       y       z     vdW  Elec       q    Type
REMARK                         _______ _______ _______ _____ _____    ______ ____
ROOT
ATOM      1  C   UNL     1      46.201   5.393  13.842  0.00  0.00    +0.000 C 
ENDROOT
BRANCH   1   6
ATOM      2  C   UNL     1      49.383   3.900  17.299  0.00  0.00    +0.000 A 
ATOM      3  C   UNL     1      48.819   5.109  16.979  0.00  0.00    +0.000 A 
ATOM      4  N   UNL     1      47.792   5.244  16.115  0.00  0.00    +0.000 NA
ATOM      5  C   UNL     1      47.320   4.128  15.535  0.00  0.00    +0.000 A 
ATOM      6  N   UNL     1      46.241   4.209  14.676  0.00  0.00    +0.000 N 
ATOM      7  N   UNL     1      47.813   2.907  15.768  0.00  0.00    +0.000 NA
ATOM      8  C   UNL     1      48.846   2.816  16.644  0.00  0.00    +0.000 A 
ATOM      9  H   UNL     1      46.172   3.328  14.178  0.00  0.00    +0.000 HD
BRANCH   2  11
ATOM     10  N   UNL     1      51.274   2.616  18.124  0.00  0.00    +0.000 N 
ATOM     11  C   UNL     1      50.513   3.748  18.224  0.00  0.00    +0.000 C 
ATOM     12  O   UNL     1      50.777   4.619  19.043  0.00  0.00    +0.000 OA
ATOM     13  H   UNL     1      52.092   2.572  18.721  0.00  0.00    +0.000 HD
ATOM     14  H   UNL     1      51.256   1.997  17.326  0.00  0.00    +0.000 HD
ENDBRANCH   2  11
ENDBRANCH   1   6
BRANCH   1  15
ATOM     15  C   UNL     1      45.267   5.154  12.679  0.00  0.00    +0.000 A 
ATOM     16  C   UNL     1      43.923   5.525  12.733  0.00  0.00    +0.000 A 
ATOM     17  C   UNL     1      43.095   5.238  11.657  0.00  0.00    +0.000 A 
ATOM     18  F   UNL     1      41.801   5.583  11.715  0.00  0.00    +0.000 F 
ATOM     19  C   UNL     1      43.576   4.594  10.518  0.00  0.00    +0.000 A 
ATOM     20  C   UNL     1      44.921   4.203  10.424  0.00  0.00    +0.000 A 
ATOM     21  C   UNL     1      45.744   4.486  11.532  0.00  0.00    +0.000 A 
BRANCH  20  22
ATOM     22  C   UNL     1      45.453   3.523   9.220  0.00  0.00    +0.000 A 
ATOM     23  C   UNL     1      45.861   4.249   8.082  0.00  0.00    +0.000 A 
ATOM     24  C   UNL     1      46.368   3.611   6.943  0.00  0.00    +0.000 A 
ATOM     25  C   UNL     1      46.468   2.225   6.912  0.00  0.00    +0.000 A 
ATOM     26  C   UNL     1      46.066   1.494   8.019  0.00  0.00    +0.000 A 
ATOM     27  F   UNL     1      46.152   0.158   7.993  0.00  0.00    +0.000 F 
ATOM     28  C   UNL     1      45.571   2.123   9.160  0.00  0.00    +0.000 A 
ENDBRANCH  20  22
ENDBRANCH   1  15
TORSDOF 4
ENDMDL
MODEL 4
REMARK VINA RESULT:    -8.107      4.169      7.265
REMARK INTER + INTRA:         -10.686
REMARK INTER:                 -10.348
REMARK INTRA:                  -0.338
REMARK UNBOUND:                -0.683
REMARK  Name = 
REMARK  4 active torsions:
REMARK  status: ('A' for Active; 'I' for Inactive)
REMARK    1  A    between atoms: C_2  and  C_4
REMARK    2  A    between atoms: N_8  and  C_9
REMARK    3  A    between atoms: C_9  and  C_10
REMARK    4  A    between atoms: C_15  and  C_16
REMARK                            x       y       z     vdW  Elec       q    Type
REMARK                         _______ _______ _______ _____ _____    ______ ____
ROOT
ATOM      1  C   UNL     1      44.779   6.501  11.335  0.00  0.00    +0.000 C 
ENDROOT
BRANCH   1   6
ATOM      2  C   UNL     1      47.920   5.843  15.077  0.00  0.00    +0.000 A 
ATOM      3  C   UNL     1      46.878   5.112  14.566  0.00  0.00    +0.000 A 
ATOM      4  N   UNL     1      46.287   5.385  13.384  0.00  0.00    +0.000 NA
ATOM      5  C   UNL     1      46.746   6.442  12.693  0.00  0.00    +0.000 A 
ATOM      6  N   UNL     1      46.202   6.739  11.458  0.00  0.00    +0.000 N 
ATOM      7  N   UNL     1      47.745   7.226  13.114  0.00  0.00    +0.000 NA
ATOM      8  C   UNL     1      48.311   6.914  14.308  0.00  0.00    +0.000 A 
ATOM      9  H   UNL     1      46.509   7.669  11.197  0.00  0.00    +0.000 HD
BRANCH   2  11
ATOM     10  N   UNL     1      47.759   5.542  17.483  0.00  0.00    +0.000 N 
ATOM     11  C   UNL     1      48.555   5.561  16.370  0.00  0.00    +0.000 C 
ATOM     12  O   UNL     1      49.755   5.328  16.445  0.00  0.00    +0.000 OA
ATOM     13  H   UNL     1      48.208   5.270  18.350  0.00  0.00    +0.000 HD
ATOM     14  H   UNL     1      46.751   5.482  17.450  0.00  0.00    +0.000 HD
ENDBRANCH   2  11
ENDBRANCH   1   6
BRANCH   1  15
ATOM     15  C   UNL     1      44.547   5.076  10.890  0.00  0.00    +0.000 A 
ATOM     16  C   UNL     1      43.676   4.229  11.577  0.00  0.00    +0.000 A 
ATOM     17  C   UNL     1      43.535   2.914  11.158  0.00  0.00    +0.000 A 
ATOM     18  F   UNL     1      42.709   2.097  11.827  0.00  0.00    +0.000 F 
ATOM     19  C   UNL     1      44.238   2.420  10.061  0.00  0.00    +0.000 A 
ATOM     20  C   UNL     1      45.125   3.238   9.343  0.00  0.00    +0.000 A 
ATOM     21  C   UNL     1      45.269   4.565   9.792  0.00  0.00    +0.000 A 
BRANCH  20  22
ATOM     22  C   UNL     1      45.877   2.732   8.171  0.00  0.00    +0.000 A 
ATOM     23  C   UNL     1      46.413   1.428   8.144  0.00  0.00    +0.000 A 
ATOM     24  C   UNL     1      47.122   0.945   7.037  0.00  0.00    +0.000 A 
ATOM     25  C   UNL     1      47.321   1.763   5.931  0.00  0.00    +0.000 A 
ATOM     26  C   UNL     1      46.807   3.050   5.941  0.00  0.00    +0.000 A 
ATOM     27  F   UNL     1      47.001   3.847   4.883  0.00  0.00    +0.000 F 
ATOM     28  C   UNL     1      46.091   3.534   7.035  0.00  0.00    +0.000 A 
ENDBRANCH  20  22
ENDBRANCH   1  15
TORSDOF 4
ENDMDL
MODEL 5
REMARK VINA RESULT:    -8.105      4.126      7.057
REMARK INTER + INTRA:         -10.684
REMARK INTER:                  -9.872
REMARK INTRA:                  -0.812
REMARK UNBOUND:                -0.683
REMARK  Name = 
REMARK  4 active torsions:
REMARK  status: ('A' for Active; 'I' for Inactive)
REMARK    1  A    between atoms: C_2  and  C_4
REMARK    2  A    between atoms: N_8  and  C_9
REMARK    3  A    between atoms: C_9  and  C_10
REMARK    4  A    between atoms: C_15  and  C_16
REMARK                            x       y       z     vdW  Elec       q    Type
REMARK                         _______ _______ _______ _____ _____    ______ ____
ROOT
ATOM      1  C   UNL     1      44.164   6.700  11.449  0.00  0.00    +0.000 C 
ENDROOT
BRANCH   1   6
ATOM      2  C   UNL     1      48.818   7.572  12.824  0.00  0.00    +0.000 A 
ATOM      3  C   UNL     1      48.022   8.030  11.805  0.00  0.00    +0.000 A 
ATOM      4  N   UNL     1      46.691   7.816  11.747  0.00  0.00    +0.000 NA
ATOM      5  C   UNL     1      46.136   7.102  12.741  0.00  0.00    +0.000 A 
ATOM      6  N   UNL     1      44.770   6.892  12.751  0.00  0.00    +0.000 N 
ATOM      7  N   UNL     1      46.829   6.599  13.769  0.00  0.00    +0.000 NA
ATOM      8  C   UNL     1      48.165   6.838  13.786  0.00  0.00    +0.000 A 
ATOM      9  H   UNL     1      44.571   6.168  13.431  0.00  0.00    +0.000 HD
BRANCH   2  11
ATOM     10  N   UNL     1      51.007   7.472  11.772  0.00  0.00    +0.000 N 
ATOM     11  C   UNL     1      50.270   7.785  12.882  0.00  0.00    +0.000 C 
ATOM     12  O   UNL     1      50.798   8.249  13.884  0.00  0.00    +0.000 OA
ATOM     13  H   UNL     1      51.993   7.701  11.811  0.00  0.00    +0.000 HD
ATOM     14  H   UNL     1      50.607   7.325  10.857  0.00  0.00    +0.000 HD
ENDBRANCH   2  11
ENDBRANCH   1   6
BRANCH   1  15
ATOM     15  C   UNL     1      44.156   5.227  11.115  0.00  0.00    +0.000 A 
ATOM     16  C   UNL     1      43.492   4.299  11.919  0.00  0.00    +0.000 A 
ATOM     17  C   UNL     1      43.557   2.951  11.597  0.00  0.00    +0.000 A 
ATOM     18  F   UNL     1      42.930   2.059  12.377  0.00  0.00    +0.000 F 
ATOM     19  C   UNL     1      44.263   2.501  10.482  0.00  0.00    +0.000 A 
ATOM     20  C   UNL     1      44.946   3.401   9.648  0.00  0.00    +0.000 A 
ATOM     21  C   UNL     1      44.884   4.763   9.999  0.00  0.00    +0.000 A 
BRANCH  20  22
ATOM     22  C   UNL     1      45.697   2.943   8.456  0.00  0.00    +0.000 A 
ATOM     23  C   UNL     1      46.087   3.841   7.440  0.00  0.00    +0.000 A 
ATOM     24  C   UNL     1      46.800   3.414   6.313  0.00  0.00    +0.000 A 
ATOM     25  C   UNL     1      47.131   2.071   6.171  0.00  0.00    +0.000 A 
ATOM     26  C   UNL     1      46.751   1.174   7.156  0.00  0.00    +0.000 A 
ATOM     27  F   UNL     1      47.060  -0.122   7.021  0.00  0.00    +0.000 F 
ATOM     28  C   UNL     1      46.051   1.593   8.285  0.00  0.00    +0.000 A 
ENDBRANCH  20  22
ENDBRANCH   1  15
TORSDOF 4
ENDMDL
MODEL 6
REMARK VINA RESULT:    -7.859      2.054      2.649
REMARK INTER + INTRA:         -10.380
REMARK INTER:                  -9.933
REMARK INTRA:                  -0.447
REMARK UNBOUND:                -0.683
REMARK  Name = 
REMARK  4 active torsions:
REMARK  status: ('A' for Active; 'I' for Inactive)
REMARK    1  A    between atoms: C_2  and  C_4
REMARK    2  A    between atoms: N_8  and  C_9
REMARK    3  A    between atoms: C_9  and  C_10
REMARK    4  A    between atoms: C_15  and  C_16
REMARK                            x       y       z     vdW  Elec       q    Type
REMARK                         _______ _______ _______ _____ _____    ______ ____
ROOT
ATOM      1  C   UNL     1      43.625   3.819  10.886  0.00  0.00    +0.000 C 
ENDROOT
BRANCH   1   6
ATOM      2  C   UNL     1      46.668   2.476   7.247  0.00  0.00    +0.000 A 
ATOM      3  C   UNL     1      46.387   3.668   7.866  0.00  0.00    +0.000 A 
ATOM      4  N   UNL     1      45.666   3.764   9.002  0.00  0.00    +0.000 NA
ATOM      5  C   UNL     1      45.193   2.624   9.532  0.00  0.00    +0.000 A 
ATOM      6  N   UNL     1      44.484   2.665  10.718  0.00  0.00    +0.000 N 
ATOM      7  N   UNL     1      45.397   1.416   8.996  0.00  0.00    +0.000 NA
ATOM      8  C   UNL     1      46.128   1.366   7.853  0.00  0.00    +0.000 A 
ATOM      9  H   UNL     1      44.031   1.767  10.841  0.00  0.00    +0.000 HD
BRANCH   2  11
ATOM     10  N   UNL     1      47.187   3.281   5.013  0.00  0.00    +0.000 N 
ATOM     11  C   UNL     1      47.437   2.367   6.001  0.00  0.00    +0.000 C 
ATOM     12  O   UNL     1      48.289   1.499   5.861  0.00  0.00    +0.000 OA
ATOM     13  H   UNL     1      47.784   3.231   4.196  0.00  0.00    +0.000 HD
ATOM     14  H   UNL     1      46.688   4.146   5.164  0.00  0.00    +0.000 HD
ENDBRANCH   2  11
ENDBRANCH   1   6
BRANCH   1  15
ATOM     15  C   UNL     1      44.389   4.912  11.595  0.00  0.00    +0.000 A 
ATOM     16  C   UNL     1      45.275   4.628  12.636  0.00  0.00    +0.000 A 
ATOM     17  C   UNL     1      45.914   5.672  13.288  0.00  0.00    +0.000 A 
ATOM     18  F   UNL     1      46.754   5.399  14.296  0.00  0.00    +0.000 F 
ATOM     19  C   UNL     1      45.700   7.000  12.923  0.00  0.00    +0.000 A 
ATOM     20  C   UNL     1      44.816   7.329  11.883  0.00  0.00    +0.000 A 
ATOM     21  C   UNL     1      44.162   6.259  11.243  0.00  0.00    +0.000 A 
BRANCH  20  22
ATOM     22  C   UNL     1      44.579   8.734  11.476  0.00  0.00    +0.000 A 
ATOM     23  C   UNL     1      45.435   9.776  11.889  0.00  0.00    +0.000 A 
ATOM     24  C   UNL     1      45.217  11.105  11.505  0.00  0.00    +0.000 A 
ATOM     25  C   UNL     1      44.127  11.424  10.703  0.00  0.00    +0.000 A 
ATOM     26  C   UNL     1      43.272  10.414  10.292  0.00  0.00    +0.000 A 
ATOM     27  F   UNL     1      42.215  10.715   9.527  0.00  0.00    +0.000 F 
ATOM     28  C   UNL     1      43.489   9.088  10.662  0.00  0.00    +0.000 A 
ENDBRANCH  20  22
ENDBRANCH   1  15
TORSDOF 4
ENDMDL
MODEL 7
REMARK VINA RESULT:    -7.810      2.109      4.012
REMARK INTER + INTRA:         -10.319
REMARK INTER:                  -9.797
REMARK INTRA:                  -0.522
REMARK UNBOUND:                -0.683
REMARK  Name = 
REMARK  4 active torsions:
REMARK  status: ('A' for Active; 'I' for Inactive)
REMARK    1  A    between atoms: C_2  and  C_4
REMARK    2  A    between atoms: N_8  and  C_9
REMARK    3  A    between atoms: C_9  and  C_10
REMARK    4  A    between atoms: C_15  and  C_16
REMARK                            x       y       z     vdW  Elec       q    Type
REMARK                         _______ _______ _______ _____ _____    ______ ____
ROOT
ATOM      1  C   UNL     1      43.644   3.996  10.836  0.00  0.00    +0.000 C 
ENDROOT
BRANCH   1   6
ATOM      2  C   UNL     1      46.701   2.511   7.263  0.00  0.00    +0.000 A 
ATOM      3  C   UNL     1      46.389   3.731   7.807  0.00  0.00    +0.000 A 
ATOM      4  N   UNL     1      45.673   3.879   8.941  0.00  0.00    +0.000 NA
ATOM      5  C   UNL     1      45.237   2.762   9.547  0.00  0.00    +0.000 A 
ATOM      6  N   UNL     1      44.536   2.859  10.734  0.00  0.00    +0.000 N 
ATOM      7  N   UNL     1      45.474   1.529   9.087  0.00  0.00    +0.000 NA
ATOM      8  C   UNL     1      46.198   1.427   7.944  0.00  0.00    +0.000 A 
ATOM      9  H   UNL     1      44.110   1.958  10.919  0.00  0.00    +0.000 HD
BRANCH   2  11
ATOM     10  N   UNL     1      47.237   3.235   5.006  0.00  0.00    +0.000 N 
ATOM     11  C   UNL     1      47.463   2.345   6.020  0.00  0.00    +0.000 C 
ATOM     12  O   UNL     1      48.291   1.450   5.905  0.00  0.00    +0.000 OA
ATOM     13  H   UNL     1      47.831   3.145   4.190  0.00  0.00    +0.000 HD
ATOM     14  H   UNL     1      46.761   4.118   5.132  0.00  0.00    +0.000 HD
ENDBRANCH   2  11
ENDBRANCH   1   6
BRANCH   1  15
ATOM     15  C   UNL     1      44.359   5.131  11.529  0.00  0.00    +0.000 A 
ATOM     16  C   UNL     1      44.192   6.456  11.123  0.00  0.00    +0.000 A 
ATOM     17  C   UNL     1      44.910   7.458  11.760  0.00  0.00    +0.000 A 
ATOM     18  F   UNL     1      44.760   8.728  11.360  0.00  0.00    +0.000 F 
ATOM     19  C   UNL     1      45.789   7.173  12.804  0.00  0.00    +0.000 A 
ATOM     20  C   UNL     1      45.987   5.854  13.243  0.00  0.00    +0.000 A 
ATOM     21  C   UNL     1      45.263   4.848  12.574  0.00  0.00    +0.000 A 
BRANCH  20  22
ATOM     22  C   UNL     1      46.912   5.532  14.354  0.00  0.00    +0.000 A 
ATOM     23  C   UNL     1      47.950   6.411  14.729  0.00  0.00    +0.000 A 
ATOM     24  C   UNL     1      48.825   6.112  15.781  0.00  0.00    +0.000 A 
ATOM     25  C   UNL     1      48.687   4.917  16.478  0.00  0.00    +0.000 A 
ATOM     26  C   UNL     1      47.677   4.039  16.120  0.00  0.00    +0.000 A 
ATOM     27  F   UNL     1      47.544   2.883  16.782  0.00  0.00    +0.000 F 
ATOM     28  C   UNL     1      46.796   4.334  15.082  0.00  0.00    +0.000 A 
ENDBRANCH  20  22
ENDBRANCH   1  15
TORSDOF 4
ENDMDL
MODEL 8
REMARK VINA RESULT:    -7.337      4.736      7.690
REMARK INTER + INTRA:          -9.737
REMARK INTER:                  -9.166
REMARK INTRA:                  -0.571
REMARK UNBOUND:                -0.683
REMARK  Name = 
REMARK  4 active torsions:
REMARK  status: ('A' for Active; 'I' for Inactive)
REMARK    1  A    between atoms: C_2  and  C_4
REMARK    2  A    between atoms: N_8  and  C_9
REMARK    3  A    between atoms: C_9  and  C_10
REMARK    4  A    between atoms: C_15  and  C_16
REMARK                            x       y       z     vdW  Elec       q    Type
REMARK                         _______ _______ _______ _____ _____    ______ ____
ROOT
ATOM      1  C   UNL     1      46.220   7.518  11.807  0.00  0.00    +0.000 C 
ENDROOT
BRANCH   1   6
ATOM      2  C   UNL     1      50.232   7.710  14.667  0.00  0.00    +0.000 A 
ATOM      3  C   UNL     1      49.739   8.500  13.660  0.00  0.00    +0.000 A 
ATOM      4  N   UNL     1      48.494   8.373  13.157  0.00  0.00    +0.000 NA
ATOM      5  C   UNL     1      47.715   7.407  13.671  0.00  0.00    +0.000 A 
ATOM      6  N   UNL     1      46.416   7.264  13.220  0.00  0.00    +0.000 N 
ATOM      7  N   UNL     1      48.108   6.576  14.643  0.00  0.00    +0.000 NA
ATOM      8  C   UNL     1      49.369   6.739  15.119  0.00  0.00    +0.000 A 
ATOM      9  H   UNL     1      46.068   6.371  13.551  0.00  0.00    +0.000 HD
BRANCH   2  11
ATOM     10  N   UNL     1      52.258   9.010  15.004  0.00  0.00    +0.000 N 
ATOM     11  C   UNL     1      51.592   7.831  15.205  0.00  0.00    +0.000 C 
ATOM     12  O   UNL     1      52.105   6.914  15.833  0.00  0.00    +0.000 OA
ATOM     13  H   UNL     1      53.163   9.096  15.451  0.00  0.00    +0.000 HD
ATOM     14  H   UNL     1      51.805   9.867  14.718  0.00  0.00    +0.000 HD
ENDBRANCH   2  11
ENDBRANCH   1   6
BRANCH   1  15
ATOM     15  C   UNL     1      45.305   6.463  11.233  0.00  0.00    +0.000 A 
ATOM     16  C   UNL     1      43.977   6.345  11.645  0.00  0.00    +0.000 A 
ATOM     17  C   UNL     1      43.191   5.327  11.124  0.00  0.00    +0.000 A 
ATOM     18  F   UNL     1      41.920   5.206  11.531  0.00  0.00    +0.000 F 
ATOM     19  C   UNL     1      43.694   4.424  10.189  0.00  0.00    +0.000 A 
ATOM     20  C   UNL     1      45.024   4.507   9.748  0.00  0.00    +0.000 A 
ATOM     21  C   UNL     1      45.813   5.535  10.300  0.00  0.00    +0.000 A 
BRANCH  20  22
ATOM     22  C   UNL     1      45.576   3.561   8.751  0.00  0.00    +0.000 A 
ATOM     23  C   UNL     1      45.655   2.177   9.011  0.00  0.00    +0.000 A 
ATOM     24  C   UNL     1      46.173   1.278   8.071  0.00  0.00    +0.000 A 
ATOM     25  C   UNL     1      46.636   1.746   6.847  0.00  0.00    +0.000 A 
ATOM     26  C   UNL     1      46.572   3.104   6.575  0.00  0.00    +0.000 A 
ATOM     27  F   UNL     1      47.023   3.563   5.401  0.00  0.00    +0.000 F 
ATOM     28  C   UNL     1      46.048   4.002   7.502  0.00  0.00    +0.000 A 
ENDBRANCH  20  22
ENDBRANCH   1  15
TORSDOF 4
ENDMDL
MODEL 9
REMARK VINA RESULT:    -7.141      5.484      8.174
REMARK INTER + INTRA:          -9.494
REMARK INTER:                  -8.966
REMARK INTRA:                  -0.529
REMARK UNBOUND:                -0.683
REMARK  Name = 
REMARK  4 active torsions:
REMARK  status: ('A' for Active; 'I' for Inactive)
REMARK    1  A    between atoms: C_2  and  C_4
REMARK    2  A    between atoms: N_8  and  C_9
REMARK    3  A    between atoms: C_9  and  C_10
REMARK    4  A    between atoms: C_15  and  C_16
REMARK                            x       y       z     vdW  Elec       q    Type
REMARK                         _______ _______ _______ _____ _____    ______ ____
ROOT
ATOM      1  C   UNL     1      48.426   7.181  13.852  0.00  0.00    +0.000 C 
ENDROOT
BRANCH   1   6
ATOM      2  C   UNL     1      50.993   4.997  17.450  0.00  0.00    +0.000 A 
ATOM      3  C   UNL     1      51.248   6.035  16.591  0.00  0.00    +0.000 A 
ATOM      4  N   UNL     1      50.302   6.612  15.820  0.00  0.00    +0.000 NA
ATOM      5  C   UNL     1      49.054   6.121  15.901  0.00  0.00    +0.000 A 
ATOM      6  N   UNL     1      48.042   6.705  15.165  0.00  0.00    +0.000 N 
ATOM      7  N   UNL     1      48.709   5.101  16.695  0.00  0.00    +0.000 NA
ATOM      8  C   UNL     1      49.692   4.550  17.452  0.00  0.00    +0.000 A 
ATOM      9  H   UNL     1      47.244   6.080  15.181  0.00  0.00    +0.000 HD
BRANCH   2  11
ATOM     10  N   UNL     1      51.680   3.981  19.549  0.00  0.00    +0.000 N 
ATOM     11  C   UNL     1      52.021   4.353  18.277  0.00  0.00    +0.000 C 
ATOM     12  O   UNL     1      53.141   4.136  17.832  0.00  0.00    +0.000 OA
ATOM     13  H   UNL     1      52.383   3.470  20.070  0.00  0.00    +0.000 HD
ATOM     14  H   UNL     1      50.727   3.911  19.875  0.00  0.00    +0.000 HD
ENDBRANCH   2  11
ENDBRANCH   1   6
BRANCH   1  15
ATOM     15  C   UNL     1      47.198   7.288  12.979  0.00  0.00    +0.000 A 
ATOM     16  C   UNL     1      46.402   8.434  12.976  0.00  0.00    +0.000 A 
ATOM     17  C   UNL     1      45.255   8.464  12.195  0.00  0.00    +0.000 A 
ATOM     18  F   UNL     1      44.484   9.560  12.203  0.00  0.00    +0.000 F 
ATOM     19  C   UNL     1      44.884   7.377  11.405  0.00  0.00    +0.000 A 
ATOM     20  C   UNL     1      45.656   6.205  11.380  0.00  0.00    +0.000 A 
ATOM     21  C   UNL     1      46.806   6.185  12.192  0.00  0.00    +0.000 A 
BRANCH  20  22
ATOM     22  C   UNL     1      45.281   5.041  10.543  0.00  0.00    +0.000 A 
ATOM     23  C   UNL     1      44.519   3.974  11.062  0.00  0.00    +0.000 A 
ATOM     24  C   UNL     1      44.160   2.873  10.273  0.00  0.00    +0.000 A 
ATOM     25  C   UNL     1      44.565   2.811   8.945  0.00  0.00    +0.000 A 
ATOM     26  C   UNL     1      45.319   3.848   8.419  0.00  0.00    +0.000 A 
ATOM     27  F   UNL     1      45.720   3.791   7.143  0.00  0.00    +0.000 F 
ATOM     28  C   UNL     1      45.671   4.951   9.195  0.00  0.00    +0.000 A 
ENDBRANCH  20  22
ENDBRANCH   1  15
TORSDOF 4
ENDMDL
