MODEL 1
REMARK VINA RESULT:    -7.891      0.000      0.000
REMARK INTER + INTRA:         -11.664
REMARK INTER:                 -10.658
REMARK INTRA:                  -1.005
REMARK UNBOUND:                -1.005
REMARK  Name = 
REMARK  6 active torsions:
REMARK  status: ('A' for Active; 'I' for Inactive)
REMARK    1  A    between atoms: C_2  and  C_25
REMARK    2  A    between atoms: N_3  and  C_4
REMARK    3  A    between atoms: C_4  and  C_5
REMARK    4  A    between atoms: C_8  and  C_9
REMARK    5  A    between atoms: C_9  and  N_10
REMARK    6  A    between atoms: C_11  and  C_13
REMARK                            x       y       z     vdW  Elec       q    Type
REMARK                         _______ _______ _______ _____ _____    ______ ____
ROOT
ATOM      1  C   UNL     1      44.677   4.408  11.440  0.00  0.00    +0.000 A 
ATOM      2  C   UNL     1      44.937   5.645  12.034  0.00  0.00    +0.000 A 
ATOM      3  C   UNL     1      45.677   5.708  13.214  0.00  0.00    +0.000 A 
ATOM      4  C   UNL     1      46.115   4.522  13.799  0.00  0.00    +0.000 A 
ATOM      5  N   UNL     1      45.859   3.307  13.249  0.00  0.00    +0.000 NA
ATOM      6  C   UNL     1      45.156   3.279  12.093  0.00  0.00    +0.000 A 
ENDROOT
BRANCH   1   7
ATOM      7  C   UNL     1      43.911   4.295  10.155  0.00  0.00    +0.000 C 
BRANCH   7  10
ATOM      8  O   UNL     1      45.945   5.246   8.508  0.00  0.00    +0.000 OA
ATOM      9  C   UNL     1      45.615   4.067   8.409  0.00  0.00    +0.000 C 
ATOM     10  N   UNL     1      44.613   3.510   9.169  0.00  0.00    +0.000 N 
ATOM     11  H   UNL     1      44.504   2.506   9.175  0.00  0.00    +0.000 HD
BRANCH   9  12
ATOM     12  C   UNL     1      46.266   3.157   7.490  0.00  0.00    +0.000 A 
ATOM     13  C   UNL     1      46.719   3.316   6.189  0.00  0.00    +0.000 A 
ATOM     14  C   UNL     1      47.290   2.091   5.765  0.00  0.00    +0.000 A 
ATOM     15  C   UNL     1      47.180   1.207   6.813  0.00  0.00    +0.000 A 
ATOM     16  N   UNL     1      46.570   1.860   7.851  0.00  0.00    +0.000 N 
ATOM     17  H   UNL     1      46.364   1.466   8.762  0.00  0.00    +0.000 HD
ENDBRANCH   9  12
ENDBRANCH   7  10
ENDBRANCH   1   7
BRANCH   4  18
ATOM     18  C   UNL     1      46.920   4.552  15.075  0.00  0.00    +0.000 C 
BRANCH  18  19
ATOM     19  N   UNL     1      47.674   5.777  15.228  0.00  0.00    +0.000 N 
ATOM     20  C   UNL     1      48.804   5.860  15.996  0.00  0.00    +0.000 C 
ATOM     21  O   UNL     1      49.232   4.895  16.627  0.00  0.00    +0.000 OA
ATOM     22  H   UNL     1      47.222   6.622  14.891  0.00  0.00    +0.000 HD
BRANCH  20  23
ATOM     23  C   UNL     1      49.528   7.138  15.972  0.00  0.00    +0.000 A 
ATOM     24  C   UNL     1      49.878   7.749  17.171  0.00  0.00    +0.000 A 
ATOM     25  S   UNL     1      50.748   9.201  16.974  0.00  0.00    +0.000 S 
ATOM     26  C   UNL     1      50.654   9.092  15.280  0.00  0.00    +0.000 A 
ATOM     27  N   UNL     1      51.193  10.058  14.487  0.00  0.00    +0.000 NA
ATOM     28  C   UNL     1      51.022   9.865  13.222  0.00  0.00    +0.000 A 
ATOM     29  N   UNL     1      50.370   8.789  12.677  0.00  0.00    +0.000 N 
ATOM     30  C   UNL     1      49.855   7.766  13.437  0.00  0.00    +0.000 A 
ATOM     31  O   UNL     1      49.353   6.777  12.914  0.00  0.00    +0.000 OA
ATOM     32  C   UNL     1      49.990   7.950  14.869  0.00  0.00    +0.000 A 
ATOM     33  H   UNL     1      50.288   8.686  11.677  0.00  0.00    +0.000 HD
ENDBRANCH  20  23
ENDBRANCH  18  19
ENDBRANCH   4  18
TORSDOF 6
ENDMDL
MODEL 2
REMARK VINA RESULT:    -7.885      1.981      3.556
REMARK INTER + INTRA:         -11.656
REMARK INTER:                 -10.835
REMARK INTRA:                  -0.822
REMARK UNBOUND:                -1.005
REMARK  Name = 
REMARK  6 active torsions:
REMARK  status: ('A' for Active; 'I' for Inactive)
REMARK    1  A    between atoms: C_2  and  C_25
REMARK    2  A    between atoms: N_3  and  C_4
REMARK    3  A    between atoms: C_4  and  C_5
REMARK    4  A    between atoms: C_8  and  C_9
REMARK    5  A    between atoms: C_9  and  N_10
REMARK    6  A    between atoms: C_11  and  C_13
REMARK                            x       y       z     vdW  Elec       q    Type
REMARK                         _______ _______ _______ _____ _____    ______ ____
ROOT
ATOM      1  C   UNL     1      44.616   5.186  11.199  0.00  0.00    +0.000 A 
ATOM      2  C   UNL     1      44.356   6.558  11.199  0.00  0.00    +0.000 A 
ATOM      3  C   UNL     1      45.181   7.422  11.917  0.00  0.00    +0.000 A 
ATOM      4  C   UNL     1      46.235   6.890  12.654  0.00  0.00    +0.000 A 
ATOM      5  N   UNL     1      46.497   5.558  12.685  0.00  0.00    +0.000 NA
ATOM      6  C   UNL     1      45.691   4.746  11.961  0.00  0.00    +0.000 A 
ENDROOT
BRANCH   1   7
ATOM      7  C   UNL     1      43.774   4.223  10.416  0.00  0.00    +0.000 C 
BRANCH   7  10
ATOM      8  O   UNL     1      45.362   4.822   8.209  0.00  0.00    +0.000 OA
ATOM      9  C   UNL     1      45.336   3.663   8.613  0.00  0.00    +0.000 C 
ATOM     10  N   UNL     1      44.572   3.268   9.687  0.00  0.00    +0.000 N 
ATOM     11  H   UNL     1      44.723   2.352  10.084  0.00  0.00    +0.000 HD
BRANCH   9  12
ATOM     12  C   UNL     1      46.122   2.613   8.000  0.00  0.00    +0.000 A 
ATOM     13  C   UNL     1      47.120   2.641   7.038  0.00  0.00    +0.000 A 
ATOM     14  C   UNL     1      47.555   1.312   6.811  0.00  0.00    +0.000 A 
ATOM     15  C   UNL     1      46.820   0.497   7.638  0.00  0.00    +0.000 A 
ATOM     16  N   UNL     1      45.965   1.290   8.357  0.00  0.00    +0.000 N 
ATOM     17  H   UNL     1      45.304   0.970   9.058  0.00  0.00    +0.000 HD
ENDBRANCH   9  12
ENDBRANCH   7  10
ENDBRANCH   1   7
BRANCH   4  18
ATOM     18  C   UNL     1      47.150   7.796  13.443  0.00  0.00    +0.000 C 
BRANCH  18  19
ATOM     19  N   UNL     1      47.601   7.191  14.677  0.00  0.00    +0.000 N 
ATOM     20  C   UNL     1      48.897   6.801  14.880  0.00  0.00    +0.000 C 
ATOM     21  O   UNL     1      49.755   6.919  14.007  0.00  0.00    +0.000 OA
ATOM     22  H   UNL     1      46.871   6.894  15.319  0.00  0.00    +0.000 HD
BRANCH  20  23
ATOM     23  C   UNL     1      49.236   6.301  16.220  0.00  0.00    +0.000 A 
ATOM     24  C   UNL     1      50.195   6.964  16.976  0.00  0.00    +0.000 A 
ATOM     25  S   UNL     1      50.443   6.285  18.520  0.00  0.00    +0.000 S 
ATOM     26  C   UNL     1      49.308   5.054  18.221  0.00  0.00    +0.000 A 
ATOM     27  N   UNL     1      49.055   4.097  19.154  0.00  0.00    +0.000 NA
ATOM     28  C   UNL     1      48.196   3.207  18.784  0.00  0.00    +0.000 A 
ATOM     29  N   UNL     1      47.560   3.193  17.570  0.00  0.00    +0.000 N 
ATOM     30  C   UNL     1      47.747   4.167  16.619  0.00  0.00    +0.000 A 
ATOM     31  O   UNL     1      47.099   4.171  15.578  0.00  0.00    +0.000 OA
ATOM     32  C   UNL     1      48.729   5.174  16.970  0.00  0.00    +0.000 A 
ATOM     33  H   UNL     1      46.881   2.479  17.349  0.00  0.00    +0.000 HD
ENDBRANCH  20  23
ENDBRANCH  18  19
ENDBRANCH   4  18
TORSDOF 6
ENDMDL
MODEL 3
REMARK VINA RESULT:    -7.549      2.258      3.722
REMARK INTER + INTRA:         -11.203
REMARK INTER:                 -10.400
REMARK INTRA:                  -0.803
REMARK UNBOUND:                -1.005
REMARK  Name = 
REMARK  6 active torsions:
REMARK  status: ('A' for Active; 'I' for Inactive)
REMARK    1  A    between atoms: C_2  and  C_25
REMARK    2  A    between atoms: N_3  and  C_4
REMARK    3  A    between atoms: C_4  and  C_5
REMARK    4  A    between atoms: C_8  and  C_9
REMARK    5  A    between atoms: C_9  and  N_10
REMARK    6  A    between atoms: C_11  and  C_13
REMARK                            x       y       z     vdW  Elec       q    Type
REMARK                         _______ _______ _______ _____ _____    ______ ____
ROOT
ATOM      1  C   UNL     1      45.231   4.905  11.672  0.00  0.00    +0.000 A 
ATOM      2  C   UNL     1      45.782   4.568  12.910  0.00  0.00    +0.000 A 
ATOM      3  C   UNL     1      46.610   5.474  13.573  0.00  0.00    +0.000 A 
ATOM      4  C   UNL     1      46.899   6.693  12.964  0.00  0.00    +0.000 A 
ATOM      5  N   UNL     1      46.388   7.035  11.752  0.00  0.00    +0.000 NA
ATOM      6  C   UNL     1      45.572   6.144  11.143  0.00  0.00    +0.000 A 
ENDROOT
BRANCH   1   7
ATOM      7  C   UNL     1      44.311   3.975  10.939  0.00  0.00    +0.000 C 
BRANCH   7  10
ATOM      8  O   UNL     1      44.845   4.434   8.245  0.00  0.00    +0.000 OA
ATOM      9  C   UNL     1      45.253   3.392   8.753  0.00  0.00    +0.000 C 
ATOM     10  N   UNL     1      45.027   3.072  10.071  0.00  0.00    +0.000 N 
ATOM     11  H   UNL     1      45.530   2.298  10.480  0.00  0.00    +0.000 HD
BRANCH   9  12
ATOM     12  C   UNL     1      46.021   2.418   8.007  0.00  0.00    +0.000 A 
ATOM     13  C   UNL     1      46.873   2.541   6.920  0.00  0.00    +0.000 A 
ATOM     14  C   UNL     1      47.368   1.254   6.597  0.00  0.00    +0.000 A 
ATOM     15  C   UNL     1      46.815   0.369   7.491  0.00  0.00    +0.000 A 
ATOM     16  N   UNL     1      46.011   1.079   8.343  0.00  0.00    +0.000 N 
ATOM     17  H   UNL     1      45.479   0.696   9.117  0.00  0.00    +0.000 HD
ENDBRANCH   9  12
ENDBRANCH   7  10
ENDBRANCH   1   7
BRANCH   4  18
ATOM     18  C   UNL     1      47.790   7.699  13.652  0.00  0.00    +0.000 C 
BRANCH  18  19
ATOM     19  N   UNL     1      47.860   7.491  15.081  0.00  0.00    +0.000 N 
ATOM     20  C   UNL     1      48.986   7.030  15.708  0.00  0.00    +0.000 C 
ATOM     21  O   UNL     1      50.003   6.737  15.082  0.00  0.00    +0.000 OA
ATOM     22  H   UNL     1      46.975   7.523  15.579  0.00  0.00    +0.000 HD
BRANCH  20  23
ATOM     23  C   UNL     1      48.950   6.970  17.176  0.00  0.00    +0.000 A 
ATOM     24  C   UNL     1      48.953   8.151  17.909  0.00  0.00    +0.000 A 
ATOM     25  S   UNL     1      48.865   7.912  19.595  0.00  0.00    +0.000 S 
ATOM     26  C   UNL     1      48.863   6.222  19.411  0.00  0.00    +0.000 A 
ATOM     27  N   UNL     1      48.827   5.402  20.496  0.00  0.00    +0.000 NA
ATOM     28  C   UNL     1      48.861   4.142  20.214  0.00  0.00    +0.000 A 
ATOM     29  N   UNL     1      48.919   3.629  18.944  0.00  0.00    +0.000 N 
ATOM     30  C   UNL     1      48.906   4.418  17.818  0.00  0.00    +0.000 A 
ATOM     31  O   UNL     1      48.873   3.924  16.697  0.00  0.00    +0.000 OA
ATOM     32  C   UNL     1      48.903   5.844  18.080  0.00  0.00    +0.000 A 
ATOM     33  H   UNL     1      48.922   2.632  18.788  0.00  0.00    +0.000 HD
ENDBRANCH  20  23
ENDBRANCH  18  19
ENDBRANCH   4  18
TORSDOF 6
ENDMDL
MODEL 4
REMARK VINA RESULT:    -7.431      5.644      9.322
REMARK INTER + INTRA:         -11.043
REMARK INTER:                 -10.288
REMARK INTRA:                  -0.755
REMARK UNBOUND:                -1.005
REMARK  Name = 
REMARK  6 active torsions:
REMARK  status: ('A' for Active; 'I' for Inactive)
REMARK    1  A    between atoms: C_2  and  C_25
REMARK    2  A    between atoms: N_3  and  C_4
REMARK    3  A    between atoms: C_4  and  C_5
REMARK    4  A    between atoms: C_8  and  C_9
REMARK    5  A    between atoms: C_9  and  N_10
REMARK    6  A    between atoms: C_11  and  C_13
REMARK                            x       y       z     vdW  Elec       q    Type
REMARK                         _______ _______ _______ _____ _____    ______ ____
ROOT
ATOM      1  C   UNL     1      51.408   2.914  17.729  0.00  0.00    +0.000 A 
ATOM      2  C   UNL     1      50.646   1.911  17.128  0.00  0.00    +0.000 A 
ATOM      3  C   UNL     1      49.302   2.140  16.835  0.00  0.00    +0.000 A 
ATOM      4  C   UNL     1      48.735   3.364  17.183  0.00  0.00    +0.000 A 
ATOM      5  N   UNL     1      49.453   4.348  17.785  0.00  0.00    +0.000 NA
ATOM      6  C   UNL     1      50.760   4.104  18.038  0.00  0.00    +0.000 A 
ENDROOT
BRANCH   1   7
ATOM      7  C   UNL     1      52.865   2.723  18.034  0.00  0.00    +0.000 C 
BRANCH   7  10
ATOM      8  O   UNL     1      54.370   0.737  16.791  0.00  0.00    +0.000 OA
ATOM      9  C   UNL     1      53.905   0.508  17.904  0.00  0.00    +0.000 C 
ATOM     10  N   UNL     1      53.138   1.420  18.591  0.00  0.00    +0.000 N 
ATOM     11  H   UNL     1      52.932   1.252  19.565  0.00  0.00    +0.000 HD
BRANCH   9  12
ATOM     12  C   UNL     1      54.138  -0.742  18.596  0.00  0.00    +0.000 A 
ATOM     13  C   UNL     1      55.298  -1.354  19.046  0.00  0.00    +0.000 A 
ATOM     14  C   UNL     1      54.944  -2.575  19.669  0.00  0.00    +0.000 A 
ATOM     15  C   UNL     1      53.576  -2.688  19.593  0.00  0.00    +0.000 A 
ATOM     16  N   UNL     1      53.098  -1.576  18.953  0.00  0.00    +0.000 N 
ATOM     17  H   UNL     1      52.122  -1.374  18.761  0.00  0.00    +0.000 HD
ENDBRANCH   9  12
ENDBRANCH   7  10
ENDBRANCH   1   7
BRANCH   4  18
ATOM     18  C   UNL     1      47.284   3.649  16.880  0.00  0.00    +0.000 C 
BRANCH  18  19
ATOM     19  N   UNL     1      47.118   4.642  15.842  0.00  0.00    +0.000 N 
ATOM     20  C   UNL     1      47.104   4.326  14.510  0.00  0.00    +0.000 C 
ATOM     21  O   UNL     1      47.259   3.172  14.116  0.00  0.00    +0.000 OA
ATOM     22  H   UNL     1      47.203   5.611  16.137  0.00  0.00    +0.000 HD
BRANCH  20  23
ATOM     23  C   UNL     1      46.819   5.421  13.573  0.00  0.00    +0.000 A 
ATOM     24  C   UNL     1      47.833   6.308  13.229  0.00  0.00    +0.000 A 
ATOM     25  S   UNL     1      47.354   7.494  12.102  0.00  0.00    +0.000 S 
ATOM     26  C   UNL     1      45.764   6.893  12.062  0.00  0.00    +0.000 A 
ATOM     27  N   UNL     1      44.812   7.487  11.292  0.00  0.00    +0.000 NA
ATOM     28  C   UNL     1      43.643   6.948  11.380  0.00  0.00    +0.000 A 
ATOM     29  N   UNL     1      43.341   5.862  12.160  0.00  0.00    +0.000 N 
ATOM     30  C   UNL     1      44.280   5.200  12.914  0.00  0.00    +0.000 A 
ATOM     31  O   UNL     1      43.994   4.182  13.534  0.00  0.00    +0.000 OA
ATOM     32  C   UNL     1      45.606   5.787  12.878  0.00  0.00    +0.000 A 
ATOM     33  H   UNL     1      42.409   5.474  12.170  0.00  0.00    +0.000 HD
ENDBRANCH  20  23
ENDBRANCH  18  19
ENDBRANCH   4  18
TORSDOF 6
ENDMDL
MODEL 5
REMARK VINA RESULT:    -7.094      4.221      8.734
REMARK INTER + INTRA:         -10.588
REMARK INTER:                  -9.624
REMARK INTRA:                  -0.963
REMARK UNBOUND:                -1.005
REMARK  Name = 
REMARK  6 active torsions:
REMARK  status: ('A' for Active; 'I' for Inactive)
REMARK    1  A    between atoms: C_2  and  C_25
REMARK    2  A    between atoms: N_3  and  C_4
REMARK    3  A    between atoms: C_4  and  C_5
REMARK    4  A    between atoms: C_8  and  C_9
REMARK    5  A    between atoms: C_9  and  N_10
REMARK    6  A    between atoms: C_11  and  C_13
REMARK                            x       y       z     vdW  Elec       q    Type
REMARK                         _______ _______ _______ _____ _____    ______ ____
ROOT
ATOM      1  C   UNL     1      49.555   4.606  17.492  0.00  0.00    +0.000 A 
ATOM      2  C   UNL     1      50.374   5.702  17.210  0.00  0.00    +0.000 A 
ATOM      3  C   UNL     1      49.992   6.621  16.233  0.00  0.00    +0.000 A 
ATOM      4  C   UNL     1      48.809   6.406  15.530  0.00  0.00    +0.000 A 
ATOM      5  N   UNL     1      48.006   5.338  15.775  0.00  0.00    +0.000 NA
ATOM      6  C   UNL     1      48.393   4.474  16.743  0.00  0.00    +0.000 A 
ENDROOT
BRANCH   1   7
ATOM      7  C   UNL     1      49.911   3.609  18.555  0.00  0.00    +0.000 C 
BRANCH   7  10
ATOM      8  O   UNL     1      50.529   1.360  17.033  0.00  0.00    +0.000 OA
ATOM      9  C   UNL     1      51.445   1.958  17.593  0.00  0.00    +0.000 C 
ATOM     10  N   UNL     1      51.237   3.070  18.375  0.00  0.00    +0.000 N 
ATOM     11  H   UNL     1      52.032   3.622  18.663  0.00  0.00    +0.000 HD
BRANCH   9  12
ATOM     12  C   UNL     1      52.827   1.549  17.462  0.00  0.00    +0.000 A 
ATOM     13  C   UNL     1      54.019   2.247  17.588  0.00  0.00    +0.000 A 
ATOM     14  C   UNL     1      55.087   1.345  17.362  0.00  0.00    +0.000 A 
ATOM     15  C   UNL     1      54.532   0.114  17.105  0.00  0.00    +0.000 A 
ATOM     16  N   UNL     1      53.171   0.244  17.176  0.00  0.00    +0.000 N 
ATOM     17  H   UNL     1      52.494  -0.501  17.042  0.00  0.00    +0.000 HD
ENDBRANCH   9  12
ENDBRANCH   7  10
ENDBRANCH   1   7
BRANCH   4  18
ATOM     18  C   UNL     1      48.363   7.381  14.467  0.00  0.00    +0.000 C 
BRANCH  18  19
ATOM     19  N   UNL     1      47.106   7.003  13.860  0.00  0.00    +0.000 N 
ATOM     20  C   UNL     1      46.991   6.681  12.535  0.00  0.00    +0.000 C 
ATOM     21  O   UNL     1      47.954   6.723  11.771  0.00  0.00    +0.000 OA
ATOM     22  H   UNL     1      46.274   7.169  14.420  0.00  0.00    +0.000 HD
BRANCH  20  23
ATOM     23  C   UNL     1      45.675   6.212  12.079  0.00  0.00    +0.000 A 
ATOM     24  C   UNL     1      44.791   7.113  11.497  0.00  0.00    +0.000 A 
ATOM     25  S   UNL     1      43.327   6.405  10.985  0.00  0.00    +0.000 S 
ATOM     26  C   UNL     1      43.803   4.877  11.558  0.00  0.00    +0.000 A 
ATOM     27  N   UNL     1      42.973   3.803  11.451  0.00  0.00    +0.000 NA
ATOM     28  C   UNL     1      43.447   2.712  11.954  0.00  0.00    +0.000 A 
ATOM     29  N   UNL     1      44.678   2.596  12.546  0.00  0.00    +0.000 N 
ATOM     30  C   UNL     1      45.567   3.640  12.631  0.00  0.00    +0.000 A 
ATOM     31  O   UNL     1      46.692   3.481  13.090  0.00  0.00    +0.000 OA
ATOM     32  C   UNL     1      45.071   4.900  12.110  0.00  0.00    +0.000 A 
ATOM     33  H   UNL     1      44.999   1.708  12.903  0.00  0.00    +0.000 HD
ENDBRANCH  20  23
ENDBRANCH  18  19
ENDBRANCH   4  18
TORSDOF 6
ENDMDL
MODEL 6
REMARK VINA RESULT:    -7.059      5.580      8.932
REMARK INTER + INTRA:         -10.540
REMARK INTER:                  -9.546
REMARK INTRA:                  -0.994
REMARK UNBOUND:                -1.005
REMARK  Name = 
REMARK  6 active torsions:
REMARK  status: ('A' for Active; 'I' for Inactive)
REMARK    1  A    between atoms: C_2  and  C_25
REMARK    2  A    between atoms: N_3  and  C_4
REMARK    3  A    between atoms: C_4  and  C_5
REMARK    4  A    between atoms: C_8  and  C_9
REMARK    5  A    between atoms: C_9  and  N_10
REMARK    6  A    between atoms: C_11  and  C_13
REMARK                            x       y       z     vdW  Elec       q    Type
REMARK                         _______ _______ _______ _____ _____    ______ ____
ROOT
ATOM      1  C   UNL     1      51.412   2.860  17.701  0.00  0.00    +0.000 A 
ATOM      2  C   UNL     1      50.624   1.876  17.098  0.00  0.00    +0.000 A 
ATOM      3  C   UNL     1      49.282   2.133  16.821  0.00  0.00    +0.000 A 
ATOM      4  C   UNL     1      48.742   3.364  17.185  0.00  0.00    +0.000 A 
ATOM      5  N   UNL     1      49.484   4.330  17.788  0.00  0.00    +0.000 NA
ATOM      6  C   UNL     1      50.788   4.059  18.026  0.00  0.00    +0.000 A 
ENDROOT
BRANCH   1   7
ATOM      7  C   UNL     1      52.867   2.639  17.990  0.00  0.00    +0.000 C 
BRANCH   7  10
ATOM      8  O   UNL     1      54.200   0.513  16.781  0.00  0.00    +0.000 OA
ATOM      9  C   UNL     1      53.792   0.370  17.930  0.00  0.00    +0.000 C 
ATOM     10  N   UNL     1      53.112   1.357  18.605  0.00  0.00    +0.000 N 
ATOM     11  H   UNL     1      52.957   1.254  19.598  0.00  0.00    +0.000 HD
BRANCH   9  12
ATOM     12  C   UNL     1      54.007  -0.850  18.680  0.00  0.00    +0.000 A 
ATOM     13  C   UNL     1      55.135  -1.383  19.285  0.00  0.00    +0.000 A 
ATOM     14  C   UNL     1      54.774  -2.610  19.893  0.00  0.00    +0.000 A 
ATOM     15  C   UNL     1      53.435  -2.805  19.654  0.00  0.00    +0.000 A 
ATOM     16  N   UNL     1      52.978  -1.736  18.929  0.00  0.00    +0.000 N 
ATOM     17  H   UNL     1      52.024  -1.595  18.613  0.00  0.00    +0.000 HD
ENDBRANCH   9  12
ENDBRANCH   7  10
ENDBRANCH   1   7
BRANCH   4  18
ATOM     18  C   UNL     1      47.294   3.679  16.899  0.00  0.00    +0.000 C 
BRANCH  18  19
ATOM     19  N   UNL     1      47.137   4.690  15.877  0.00  0.00    +0.000 N 
ATOM     20  C   UNL     1      47.095   4.394  14.542  0.00  0.00    +0.000 C 
ATOM     21  O   UNL     1      47.217   3.242  14.129  0.00  0.00    +0.000 OA
ATOM     22  H   UNL     1      47.249   5.653  16.184  0.00  0.00    +0.000 HD
BRANCH  20  23
ATOM     23  C   UNL     1      46.824   5.509  13.624  0.00  0.00    +0.000 A 
ATOM     24  C   UNL     1      45.670   5.493  12.849  0.00  0.00    +0.000 A 
ATOM     25  S   UNL     1      45.480   6.875  11.870  0.00  0.00    +0.000 S 
ATOM     26  C   UNL     1      46.953   7.529  12.413  0.00  0.00    +0.000 A 
ATOM     27  N   UNL     1      47.407   8.719  11.934  0.00  0.00    +0.000 NA
ATOM     28  C   UNL     1      48.552   9.082  12.407  0.00  0.00    +0.000 A 
ATOM     29  N   UNL     1      49.280   8.367  13.322  0.00  0.00    +0.000 N 
ATOM     30  C   UNL     1      48.837   7.187  13.871  0.00  0.00    +0.000 A 
ATOM     31  O   UNL     1      49.474   6.617  14.750  0.00  0.00    +0.000 OA
ATOM     32  C   UNL     1      47.570   6.716  13.347  0.00  0.00    +0.000 A 
ATOM     33  H   UNL     1      50.161   8.716  13.670  0.00  0.00    +0.000 HD
ENDBRANCH  20  23
ENDBRANCH  18  19
ENDBRANCH   4  18
TORSDOF 6
ENDMDL
MODEL 7
REMARK VINA RESULT:    -6.890      2.521      3.585
REMARK INTER + INTRA:         -10.312
REMARK INTER:                  -9.807
REMARK INTRA:                  -0.505
REMARK UNBOUND:                -1.005
REMARK  Name = 
REMARK  6 active torsions:
REMARK  status: ('A' for Active; 'I' for Inactive)
REMARK    1  A    between atoms: C_2  and  C_25
REMARK    2  A    between atoms: N_3  and  C_4
REMARK    3  A    between atoms: C_4  and  C_5
REMARK    4  A    between atoms: C_8  and  C_9
REMARK    5  A    between atoms: C_9  and  N_10
REMARK    6  A    between atoms: C_11  and  C_13
REMARK                            x       y       z     vdW  Elec       q    Type
REMARK                         _______ _______ _______ _____ _____    ______ ____
ROOT
ATOM      1  C   UNL     1      44.793   5.592  11.381  0.00  0.00    +0.000 A 
ATOM      2  C   UNL     1      44.901   6.984  11.339  0.00  0.00    +0.000 A 
ATOM      3  C   UNL     1      45.835   7.634  12.145  0.00  0.00    +0.000 A 
ATOM      4  C   UNL     1      46.624   6.876  13.007  0.00  0.00    +0.000 A 
ATOM      5  N   UNL     1      46.525   5.523  13.078  0.00  0.00    +0.000 NA
ATOM      6  C   UNL     1      45.623   4.919  12.269  0.00  0.00    +0.000 A 
ENDROOT
BRANCH   1   7
ATOM      7  C   UNL     1      43.824   4.850  10.510  0.00  0.00    +0.000 C 
BRANCH   7  10
ATOM      8  O   UNL     1      45.641   5.184   8.426  0.00  0.00    +0.000 OA
ATOM      9  C   UNL     1      45.352   4.042   8.773  0.00  0.00    +0.000 C 
ATOM     10  N   UNL     1      44.456   3.777   9.782  0.00  0.00    +0.000 N 
ATOM     11  H   UNL     1      44.390   2.836  10.143  0.00  0.00    +0.000 HD
BRANCH   9  12
ATOM     12  C   UNL     1      45.946   2.874   8.156  0.00  0.00    +0.000 A 
ATOM     13  C   UNL     1      46.803   2.728   7.076  0.00  0.00    +0.000 A 
ATOM     14  C   UNL     1      47.075   1.348   6.910  0.00  0.00    +0.000 A 
ATOM     15  C   UNL     1      46.385   0.676   7.890  0.00  0.00    +0.000 A 
ATOM     16  N   UNL     1      45.713   1.604   8.642  0.00  0.00    +0.000 N 
ATOM     17  H   UNL     1      45.126   1.406   9.446  0.00  0.00    +0.000 HD
ENDBRANCH   9  12
ENDBRANCH   7  10
ENDBRANCH   1   7
BRANCH   4  18
ATOM     18  C   UNL     1      47.648   7.545  13.893  0.00  0.00    +0.000 C 
BRANCH  18  19
ATOM     19  N   UNL     1      47.862   6.828  15.131  0.00  0.00    +0.000 N 
ATOM     20  C   UNL     1      49.110   6.539  15.613  0.00  0.00    +0.000 C 
ATOM     21  O   UNL     1      50.130   6.851  15.001  0.00  0.00    +0.000 OA
ATOM     22  H   UNL     1      47.042   6.383  15.534  0.00  0.00    +0.000 HD
BRANCH  20  23
ATOM     23  C   UNL     1      49.178   5.902  16.936  0.00  0.00    +0.000 A 
ATOM     24  C   UNL     1      48.596   4.654  17.125  0.00  0.00    +0.000 A 
ATOM     25  S   UNL     1      48.797   4.034  18.700  0.00  0.00    +0.000 S 
ATOM     26  C   UNL     1      49.633   5.428  19.200  0.00  0.00    +0.000 A 
ATOM     27  N   UNL     1      50.075   5.554  20.482  0.00  0.00    +0.000 NA
ATOM     28  C   UNL     1      50.666   6.674  20.733  0.00  0.00    +0.000 A 
ATOM     29  N   UNL     1      50.863   7.675  19.818  0.00  0.00    +0.000 N 
ATOM     30  C   UNL     1      50.480   7.569  18.502  0.00  0.00    +0.000 A 
ATOM     31  O   UNL     1      50.748   8.448  17.690  0.00  0.00    +0.000 OA
ATOM     32  C   UNL     1      49.780   6.343  18.173  0.00  0.00    +0.000 A 
ATOM     33  H   UNL     1      51.352   8.520  20.072  0.00  0.00    +0.000 HD
ENDBRANCH  20  23
ENDBRANCH  18  19
ENDBRANCH   4  18
TORSDOF 6
ENDMDL
MODEL 8
REMARK VINA RESULT:    -6.779      2.539      4.176
REMARK INTER + INTRA:         -10.162
REMARK INTER:                  -9.080
REMARK INTRA:                  -1.082
REMARK UNBOUND:                -1.005
REMARK  Name = 
REMARK  6 active torsions:
REMARK  status: ('A' for Active; 'I' for Inactive)
REMARK    1  A    between atoms: C_2  and  C_25
REMARK    2  A    between atoms: N_3  and  C_4
REMARK    3  A    between atoms: C_4  and  C_5
REMARK    4  A    between atoms: C_8  and  C_9
REMARK    5  A    between atoms: C_9  and  N_10
REMARK    6  A    between atoms: C_11  and  C_13
REMARK                            x       y       z     vdW  Elec       q    Type
REMARK                         _______ _______ _______ _____ _____    ______ ____
ROOT
ATOM      1  C   UNL     1      45.818   7.272  11.955  0.00  0.00    +0.000 A 
ATOM      2  C   UNL     1      47.112   6.767  11.807  0.00  0.00    +0.000 A 
ATOM      3  C   UNL     1      48.152   7.284  12.579  0.00  0.00    +0.000 A 
ATOM      4  C   UNL     1      47.883   8.325  13.464  0.00  0.00    +0.000 A 
ATOM      5  N   UNL     1      46.636   8.844  13.612  0.00  0.00    +0.000 NA
ATOM      6  C   UNL     1      45.643   8.308  12.864  0.00  0.00    +0.000 A 
ENDROOT
BRANCH   1   7
ATOM      7  C   UNL     1      44.664   6.726  11.169  0.00  0.00    +0.000 C 
BRANCH   7  10
ATOM      8  O   UNL     1      44.314   3.975  11.428  0.00  0.00    +0.000 OA
ATOM      9  C   UNL     1      44.853   4.403  10.411  0.00  0.00    +0.000 C 
ATOM     10  N   UNL     1      45.081   5.743  10.199  0.00  0.00    +0.000 N 
ATOM     11  H   UNL     1      45.362   6.052   9.280  0.00  0.00    +0.000 HD
BRANCH   9  12
ATOM     12  C   UNL     1      45.282   3.530   9.339  0.00  0.00    +0.000 A 
ATOM     13  C   UNL     1      45.754   3.790   8.061  0.00  0.00    +0.000 A 
ATOM     14  C   UNL     1      46.037   2.552   7.433  0.00  0.00    +0.000 A 
ATOM     15  C   UNL     1      45.737   1.560   8.335  0.00  0.00    +0.000 A 
ATOM     16  N   UNL     1      45.291   2.158   9.484  0.00  0.00    +0.000 N 
ATOM     17  H   UNL     1      45.006   1.679  10.332  0.00  0.00    +0.000 HD
ENDBRANCH   9  12
ENDBRANCH   7  10
ENDBRANCH   1   7
BRANCH   4  18
ATOM     18  C   UNL     1      48.984   8.908  14.316  0.00  0.00    +0.000 C 
BRANCH  18  19
ATOM     19  N   UNL     1      49.211   8.148  15.526  0.00  0.00    +0.000 N 
ATOM     20  C   UNL     1      48.597   8.444  16.713  0.00  0.00    +0.000 C 
ATOM     21  O   UNL     1      47.831   9.399  16.826  0.00  0.00    +0.000 OA
ATOM     22  H   UNL     1      49.992   7.498  15.502  0.00  0.00    +0.000 HD
BRANCH  20  23
ATOM     23  C   UNL     1      48.838   7.521  17.831  0.00  0.00    +0.000 A 
ATOM     24  C   UNL     1      49.178   8.032  19.078  0.00  0.00    +0.000 A 
ATOM     25  S   UNL     1      49.383   6.837  20.277  0.00  0.00    +0.000 S 
ATOM     26  C   UNL     1      49.068   5.590  19.165  0.00  0.00    +0.000 A 
ATOM     27  N   UNL     1      49.110   4.285  19.549  0.00  0.00    +0.000 NA
ATOM     28  C   UNL     1      48.882   3.442  18.599  0.00  0.00    +0.000 A 
ATOM     29  N   UNL     1      48.606   3.785  17.301  0.00  0.00    +0.000 N 
ATOM     30  C   UNL     1      48.503   5.090  16.879  0.00  0.00    +0.000 A 
ATOM     31  O   UNL     1      48.171   5.362  15.731  0.00  0.00    +0.000 OA
ATOM     32  C   UNL     1      48.785   6.079  17.902  0.00  0.00    +0.000 A 
ATOM     33  H   UNL     1      48.415   3.078  16.607  0.00  0.00    +0.000 HD
ENDBRANCH  20  23
ENDBRANCH  18  19
ENDBRANCH   4  18
TORSDOF 6
ENDMDL
MODEL 9
REMARK VINA RESULT:    -6.639      3.706      8.918
REMARK INTER + INTRA:          -9.973
REMARK INTER:                  -9.159
REMARK INTRA:                  -0.814
REMARK UNBOUND:                -1.005
REMARK  Name = 
REMARK  6 active torsions:
REMARK  status: ('A' for Active; 'I' for Inactive)
REMARK    1  A    between atoms: C_2  and  C_25
REMARK    2  A    between atoms: N_3  and  C_4
REMARK    3  A    between atoms: C_4  and  C_5
REMARK    4  A    between atoms: C_8  and  C_9
REMARK    5  A    between atoms: C_9  and  N_10
REMARK    6  A    between atoms: C_11  and  C_13
REMARK                            x       y       z     vdW  Elec       q    Type
REMARK                         _______ _______ _______ _____ _____    ______ ____
ROOT
ATOM      1  C   UNL     1      50.390   7.321  15.633  0.00  0.00    +0.000 A 
ATOM      2  C   UNL     1      50.968   8.053  14.594  0.00  0.00    +0.000 A 
ATOM      3  C   UNL     1      50.224   8.345  13.451  0.00  0.00    +0.000 A 
ATOM      4  C   UNL     1      48.920   7.866  13.356  0.00  0.00    +0.000 A 
ATOM      5  N   UNL     1      48.342   7.137  14.346  0.00  0.00    +0.000 NA
ATOM      6  C   UNL     1      49.082   6.887  15.452  0.00  0.00    +0.000 A 
ENDROOT
BRANCH   1   7
ATOM      7  C   UNL     1      51.143   7.010  16.893  0.00  0.00    +0.000 C 
BRANCH   7  10
ATOM      8  O   UNL     1      50.024   5.106  18.590  0.00  0.00    +0.000 OA
ATOM      9  C   UNL     1      50.920   4.755  17.827  0.00  0.00    +0.000 C 
ATOM     10  N   UNL     1      51.542   5.626  16.962  0.00  0.00    +0.000 N 
ATOM     11  H   UNL     1      52.141   5.253  16.240  0.00  0.00    +0.000 HD
BRANCH   9  12
ATOM     12  C   UNL     1      51.388   3.387  17.763  0.00  0.00    +0.000 A 
ATOM     13  C   UNL     1      50.794   2.221  17.305  0.00  0.00    +0.000 A 
ATOM     14  C   UNL     1      51.714   1.158  17.472  0.00  0.00    +0.000 A 
ATOM     15  C   UNL     1      52.854   1.690  18.026  0.00  0.00    +0.000 A 
ATOM     16  N   UNL     1      52.653   3.035  18.190  0.00  0.00    +0.000 N 
ATOM     17  H   UNL     1      53.324   3.695  18.568  0.00  0.00    +0.000 HD
ENDBRANCH   9  12
ENDBRANCH   7  10
ENDBRANCH   1   7
BRANCH   4  18
ATOM     18  C   UNL     1      48.083   8.164  12.135  0.00  0.00    +0.000 C 
BRANCH  18  19
ATOM     19  N   UNL     1      47.403   6.992  11.629  0.00  0.00    +0.000 N 
ATOM     20  C   UNL     1      46.058   6.967  11.376  0.00  0.00    +0.000 C 
ATOM     21  O   UNL     1      45.340   7.942  11.593  0.00  0.00    +0.000 OA
ATOM     22  H   UNL     1      47.936   6.126  11.648  0.00  0.00    +0.000 HD
BRANCH  20  23
ATOM     23  C   UNL     1      45.522   5.744  10.763  0.00  0.00    +0.000 A 
ATOM     24  C   UNL     1      45.732   5.508   9.410  0.00  0.00    +0.000 A 
ATOM     25  S   UNL     1      45.084   4.030   8.861  0.00  0.00    +0.000 S 
ATOM     26  C   UNL     1      44.462   3.669  10.402  0.00  0.00    +0.000 A 
ATOM     27  N   UNL     1      43.756   2.526  10.619  0.00  0.00    +0.000 NA
ATOM     28  C   UNL     1      43.316   2.392  11.826  0.00  0.00    +0.000 A 
ATOM     29  N   UNL     1      43.527   3.293  12.837  0.00  0.00    +0.000 N 
ATOM     30  C   UNL     1      44.276   4.434  12.676  0.00  0.00    +0.000 A 
ATOM     31  O   UNL     1      44.516   5.175  13.623  0.00  0.00    +0.000 OA
ATOM     32  C   UNL     1      44.766   4.650  11.329  0.00  0.00    +0.000 A 
ATOM     33  H   UNL     1      43.173   3.120  13.766  0.00  0.00    +0.000 HD
ENDBRANCH  20  23
ENDBRANCH  18  19
ENDBRANCH   4  18
TORSDOF 6
ENDMDL
