MODEL 1
REMARK VINA RESULT:    -7.508      0.000      0.000
REMARK INTER + INTRA:         -11.546
REMARK INTER:                 -10.360
REMARK INTRA:                  -1.185
REMARK UNBOUND:                -1.185
REMARK  Name = 
REMARK  7 active torsions:
REMARK  status: ('A' for Active; 'I' for Inactive)
REMARK    1  A    between atoms: N_1  and  S_2
REMARK    2  A    between atoms: S_2  and  C_5
REMARK    3  A    between atoms: C_9  and  C_10
REMARK    4  A    between atoms: C_10  and  C_11
REMARK    5  A    between atoms: C_14  and  C_15
REMARK    6  A    between atoms: C_15  and  N_16
REMARK    7  A    between atoms: C_17  and  C_19
REMARK                            x       y       z     vdW  Elec       q    Type
REMARK                         _______ _______ _______ _____ _____    ______ ____
ROOT
ATOM      1  C   UNL     1      49.456   7.935  15.405  0.00  0.00    +0.000 A 
ATOM      2  C   UNL     1      48.204   8.554  15.273  0.00  0.00    +0.000 A 
ATOM      3  C   UNL     1      47.547   8.578  14.040  0.00  0.00    +0.000 A 
ATOM      4  C   UNL     1      48.129   7.989  12.911  0.00  0.00    +0.000 A 
ATOM      5  C   UNL     1      49.407   7.429  13.028  0.00  0.00    +0.000 A 
ATOM      6  C   UNL     1      50.059   7.389  14.265  0.00  0.00    +0.000 A 
ENDROOT
BRANCH   1   7
ATOM      7  C   UNL     1      50.127   7.825  16.757  0.00  0.00    +0.000 C 
BRANCH   7  12
ATOM      8  C   UNL     1      48.939   4.406  17.526  0.00  0.00    +0.000 A 
ATOM      9  C   UNL     1      49.408   4.118  18.795  0.00  0.00    +0.000 A 
ATOM     10  C   UNL     1      50.122   5.116  19.443  0.00  0.00    +0.000 A 
ATOM     11  C   UNL     1      50.342   6.335  18.797  0.00  0.00    +0.000 A 
ATOM     12  C   UNL     1      49.838   6.540  17.510  0.00  0.00    +0.000 A 
ATOM     13  N   UNL     1      49.126   5.586  16.864  0.00  0.00    +0.000 NA
BRANCH   8  14
ATOM     14  S   UNL     1      47.983   3.208  16.615  0.00  0.00    +0.000 S 
ATOM     15  O   UNL     1      46.772   2.915  17.345  0.00  0.00    +0.000 OA
ATOM     16  O   UNL     1      48.851   2.158  16.132  0.00  0.00    +0.000 OA
BRANCH  14  17
ATOM     17  N   UNL     1      47.480   4.073  15.256  0.00  0.00    +0.000 NA
ATOM     18  H   UNL     1      47.727   3.565  14.409  0.00  0.00    +0.000 HD
ATOM     19  H   UNL     1      47.822   5.030  15.309  0.00  0.00    +0.000 HD
ENDBRANCH  14  17
ENDBRANCH   8  14
ENDBRANCH   7  12
ENDBRANCH   1   7
BRANCH   4  20
ATOM     20  C   UNL     1      47.405   7.969  11.589  0.00  0.00    +0.000 C 
BRANCH  20  21
ATOM     21  N   UNL     1      46.748   6.709  11.366  0.00  0.00    +0.000 N 
ATOM     22  C   UNL     1      45.413   6.548  11.643  0.00  0.00    +0.000 C 
ATOM     23  O   UNL     1      44.714   7.477  12.040  0.00  0.00    +0.000 OA
ATOM     24  H   UNL     1      47.340   5.890  11.275  0.00  0.00    +0.000 HD
BRANCH  22  25
ATOM     25  C   UNL     1      44.843   5.222  11.376  0.00  0.00    +0.000 A 
ATOM     26  C   UNL     1      44.091   4.588  12.354  0.00  0.00    +0.000 A 
ATOM     27  S   UNL     1      43.460   3.081  11.864  0.00  0.00    +0.000 S 
ATOM     28  C   UNL     1      44.218   3.197  10.347  0.00  0.00    +0.000 A 
ATOM     29  N   UNL     1      44.106   2.197   9.429  0.00  0.00    +0.000 NA
ATOM     30  C   UNL     1      44.761   2.401   8.335  0.00  0.00    +0.000 A 
ATOM     31  N   UNL     1      45.513   3.516   8.071  0.00  0.00    +0.000 N 
ATOM     32  C   UNL     1      45.627   4.566   8.951  0.00  0.00    +0.000 A 
ATOM     33  O   UNL     1      46.268   5.572   8.664  0.00  0.00    +0.000 OA
ATOM     34  C   UNL     1      44.924   4.380  10.206  0.00  0.00    +0.000 A 
ATOM     35  H   UNL     1      45.993   3.620   7.189  0.00  0.00    +0.000 HD
ENDBRANCH  22  25
ENDBRANCH  20  21
ENDBRANCH   4  20
TORSDOF 7
ENDMDL
MODEL 2
REMARK VINA RESULT:    -7.151      1.472      2.138
REMARK INTER + INTRA:         -11.053
REMARK INTER:                  -9.896
REMARK INTRA:                  -1.157
REMARK UNBOUND:                -1.185
REMARK  Name = 
REMARK  7 active torsions:
REMARK  status: ('A' for Active; 'I' for Inactive)
REMARK    1  A    between atoms: N_1  and  S_2
REMARK    2  A    between atoms: S_2  and  C_5
REMARK    3  A    between atoms: C_9  and  C_10
REMARK    4  A    between atoms: C_10  and  C_11
REMARK    5  A    between atoms: C_14  and  C_15
REMARK    6  A    between atoms: C_15  and  N_16
REMARK    7  A    between atoms: C_17  and  C_19
REMARK                            x       y       z     vdW  Elec       q    Type
REMARK                         _______ _______ _______ _____ _____    ______ ____
ROOT
ATOM      1  C   UNL     1      49.873   7.866  15.505  0.00  0.00    +0.000 A 
ATOM      2  C   UNL     1      48.631   8.516  15.558  0.00  0.00    +0.000 A 
ATOM      3  C   UNL     1      47.915   8.784  14.388  0.00  0.00    +0.000 A 
ATOM      4  C   UNL     1      48.426   8.412  13.139  0.00  0.00    +0.000 A 
ATOM      5  C   UNL     1      49.696   7.823  13.081  0.00  0.00    +0.000 A 
ATOM      6  C   UNL     1      50.406   7.540  14.251  0.00  0.00    +0.000 A 
ENDROOT
BRANCH   1   7
ATOM      7  C   UNL     1      50.607   7.492  16.774  0.00  0.00    +0.000 C 
BRANCH   7  12
ATOM      8  C   UNL     1      48.771   4.374  17.548  0.00  0.00    +0.000 A 
ATOM      9  C   UNL     1      48.978   4.137  18.895  0.00  0.00    +0.000 A 
ATOM     10  C   UNL     1      49.731   5.072  19.590  0.00  0.00    +0.000 A 
ATOM     11  C   UNL     1      50.248   6.180  18.913  0.00  0.00    +0.000 A 
ATOM     12  C   UNL     1      49.996   6.340  17.548  0.00  0.00    +0.000 A 
ATOM     13  N   UNL     1      49.251   5.447  16.853  0.00  0.00    +0.000 NA
BRANCH   8  14
ATOM     14  S   UNL     1      47.792   3.254  16.566  0.00  0.00    +0.000 S 
ATOM     15  O   UNL     1      48.636   2.188  16.080  0.00  0.00    +0.000 OA
ATOM     16  O   UNL     1      46.933   4.008  15.680  0.00  0.00    +0.000 OA
BRANCH  14  17
ATOM     17  N   UNL     1      46.779   2.529  17.706  0.00  0.00    +0.000 NA
ATOM     18  H   UNL     1      46.698   3.124  18.528  0.00  0.00    +0.000 HD
ATOM     19  H   UNL     1      47.086   1.575  17.883  0.00  0.00    +0.000 HD
ENDBRANCH  14  17
ENDBRANCH   8  14
ENDBRANCH   7  12
ENDBRANCH   1   7
BRANCH   4  20
ATOM     20  C   UNL     1      47.639   8.654  11.878  0.00  0.00    +0.000 C 
BRANCH  20  21
ATOM     21  N   UNL     1      47.134   7.424  11.327  0.00  0.00    +0.000 N 
ATOM     22  C   UNL     1      45.799   7.112  11.396  0.00  0.00    +0.000 C 
ATOM     23  O   UNL     1      44.975   7.883  11.881  0.00  0.00    +0.000 OA
ATOM     24  H   UNL     1      47.809   6.688  11.148  0.00  0.00    +0.000 HD
BRANCH  22  25
ATOM     25  C   UNL     1      45.393   5.834  10.800  0.00  0.00    +0.000 A 
ATOM     26  C   UNL     1      45.692   5.570   9.471  0.00  0.00    +0.000 A 
ATOM     27  S   UNL     1      45.197   4.022   8.953  0.00  0.00    +0.000 S 
ATOM     28  C   UNL     1      44.514   3.674  10.470  0.00  0.00    +0.000 A 
ATOM     29  N   UNL     1      43.883   2.489  10.699  0.00  0.00    +0.000 NA
ATOM     30  C   UNL     1      43.380   2.371  11.882  0.00  0.00    +0.000 A 
ATOM     31  N   UNL     1      43.456   3.328  12.861  0.00  0.00    +0.000 N 
ATOM     32  C   UNL     1      44.113   4.523  12.689  0.00  0.00    +0.000 A 
ATOM     33  O   UNL     1      44.205   5.337  13.602  0.00  0.00    +0.000 OA
ATOM     34  C   UNL     1      44.681   4.713  11.368  0.00  0.00    +0.000 A 
ATOM     35  H   UNL     1      43.051   3.169  13.772  0.00  0.00    +0.000 HD
ENDBRANCH  22  25
ENDBRANCH  20  21
ENDBRANCH   4  20
TORSDOF 7
ENDMDL
MODEL 3
REMARK VINA RESULT:    -6.999      2.354      8.197
REMARK INTER + INTRA:         -10.844
REMARK INTER:                  -9.906
REMARK INTRA:                  -0.938
REMARK UNBOUND:                -1.185
REMARK  Name = 
REMARK  7 active torsions:
REMARK  status: ('A' for Active; 'I' for Inactive)
REMARK    1  A    between atoms: N_1  and  S_2
REMARK    2  A    between atoms: S_2  and  C_5
REMARK    3  A    between atoms: C_9  and  C_10
REMARK    4  A    between atoms: C_10  and  C_11
REMARK    5  A    between atoms: C_14  and  C_15
REMARK    6  A    between atoms: C_15  and  N_16
REMARK    7  A    between atoms: C_17  and  C_19
REMARK                            x       y       z     vdW  Elec       q    Type
REMARK                         _______ _______ _______ _____ _____    ______ ____
ROOT
ATOM      1  C   UNL     1      44.794   6.426  11.139  0.00  0.00    +0.000 A 
ATOM      2  C   UNL     1      45.983   5.816  11.564  0.00  0.00    +0.000 A 
ATOM      3  C   UNL     1      46.901   6.512  12.356  0.00  0.00    +0.000 A 
ATOM      4  C   UNL     1      46.651   7.836  12.736  0.00  0.00    +0.000 A 
ATOM      5  C   UNL     1      45.495   8.467  12.257  0.00  0.00    +0.000 A 
ATOM      6  C   UNL     1      44.570   7.766  11.479  0.00  0.00    +0.000 A 
ENDROOT
BRANCH   1   7
ATOM      7  C   UNL     1      43.757   5.645  10.360  0.00  0.00    +0.000 C 
BRANCH   7  12
ATOM      8  C   UNL     1      45.567   3.126   8.342  0.00  0.00    +0.000 A 
ATOM      9  C   UNL     1      45.253   1.899   8.898  0.00  0.00    +0.000 A 
ATOM     10  C   UNL     1      44.373   1.901   9.970  0.00  0.00    +0.000 A 
ATOM     11  C   UNL     1      43.863   3.114  10.440  0.00  0.00    +0.000 A 
ATOM     12  C   UNL     1      44.237   4.310   9.822  0.00  0.00    +0.000 A 
ATOM     13  N   UNL     1      45.084   4.331   8.766  0.00  0.00    +0.000 NA
BRANCH   8  14
ATOM     14  S   UNL     1      46.662   3.237   6.940  0.00  0.00    +0.000 S 
ATOM     15  O   UNL     1      47.446   4.445   7.047  0.00  0.00    +0.000 OA
ATOM     16  O   UNL     1      45.942   2.903   5.732  0.00  0.00    +0.000 OA
BRANCH  14  17
ATOM     17  N   UNL     1      47.755   1.978   7.206  0.00  0.00    +0.000 NA
ATOM     18  H   UNL     1      47.553   1.203   6.578  0.00  0.00    +0.000 HD
ATOM     19  H   UNL     1      47.780   1.746   8.197  0.00  0.00    +0.000 HD
ENDBRANCH  14  17
ENDBRANCH   8  14
ENDBRANCH   7  12
ENDBRANCH   1   7
BRANCH   4  20
ATOM     20  C   UNL     1      47.611   8.579  13.629  0.00  0.00    +0.000 C 
BRANCH  20  21
ATOM     21  N   UNL     1      47.831   7.878  14.865  0.00  0.00    +0.000 N 
ATOM     22  C   UNL     1      48.937   7.083  15.042  0.00  0.00    +0.000 C 
ATOM     23  O   UNL     1      49.806   6.977  14.181  0.00  0.00    +0.000 OA
ATOM     24  H   UNL     1      47.031   7.760  15.477  0.00  0.00    +0.000 HD
BRANCH  22  25
ATOM     25  C   UNL     1      49.064   6.416  16.344  0.00  0.00    +0.000 A 
ATOM     26  C   UNL     1      49.794   7.020  17.357  0.00  0.00    +0.000 A 
ATOM     27  S   UNL     1      49.797   6.139  18.818  0.00  0.00    +0.000 S 
ATOM     28  C   UNL     1      48.870   4.892  18.129  0.00  0.00    +0.000 A 
ATOM     29  N   UNL     1      48.534   3.788  18.853  0.00  0.00    +0.000 NA
ATOM     30  C   UNL     1      47.859   2.905  18.196  0.00  0.00    +0.000 A 
ATOM     31  N   UNL     1      47.483   3.026  16.883  0.00  0.00    +0.000 N 
ATOM     32  C   UNL     1      47.768   4.137  16.124  0.00  0.00    +0.000 A 
ATOM     33  O   UNL     1      47.373   4.236  14.967  0.00  0.00    +0.000 OA
ATOM     34  C   UNL     1      48.542   5.153  16.810  0.00  0.00    +0.000 A 
ATOM     35  H   UNL     1      46.945   2.303  16.430  0.00  0.00    +0.000 HD
ENDBRANCH  22  25
ENDBRANCH  20  21
ENDBRANCH   4  20
TORSDOF 7
ENDMDL
MODEL 4
REMARK VINA RESULT:    -6.885      4.084      5.976
REMARK INTER + INTRA:         -10.687
REMARK INTER:                  -9.701
REMARK INTRA:                  -0.986
REMARK UNBOUND:                -1.185
REMARK  Name = 
REMARK  7 active torsions:
REMARK  status: ('A' for Active; 'I' for Inactive)
REMARK    1  A    between atoms: N_1  and  S_2
REMARK    2  A    between atoms: S_2  and  C_5
REMARK    3  A    between atoms: C_9  and  C_10
REMARK    4  A    between atoms: C_10  and  C_11
REMARK    5  A    between atoms: C_14  and  C_15
REMARK    6  A    between atoms: C_15  and  N_16
REMARK    7  A    between atoms: C_17  and  C_19
REMARK                            x       y       z     vdW  Elec       q    Type
REMARK                         _______ _______ _______ _____ _____    ______ ____
ROOT
ATOM      1  C   UNL     1      50.342   9.064  11.256  0.00  0.00    +0.000 A 
ATOM      2  C   UNL     1      49.332  10.031  11.366  0.00  0.00    +0.000 A 
ATOM      3  C   UNL     1      48.080   9.699  11.891  0.00  0.00    +0.000 A 
ATOM      4  C   UNL     1      47.809   8.392  12.313  0.00  0.00    +0.000 A 
ATOM      5  C   UNL     1      48.795   7.412  12.142  0.00  0.00    +0.000 A 
ATOM      6  C   UNL     1      50.053   7.746  11.632  0.00  0.00    +0.000 A 
ENDROOT
BRANCH   1   7
ATOM      7  C   UNL     1      51.727   9.440  10.775  0.00  0.00    +0.000 C 
BRANCH   7  12
ATOM      8  C   UNL     1      53.528   6.690   9.075  0.00  0.00    +0.000 A 
ATOM      9  C   UNL     1      54.443   6.211   9.995  0.00  0.00    +0.000 A 
ATOM     10  C   UNL     1      54.442   6.803  11.250  0.00  0.00    +0.000 A 
ATOM     11  C   UNL     1      53.546   7.840  11.521  0.00  0.00    +0.000 A 
ATOM     12  C   UNL     1      52.657   8.267  10.531  0.00  0.00    +0.000 A 
ATOM     13  N   UNL     1      52.631   7.695   9.303  0.00  0.00    +0.000 NA
BRANCH   8  14
ATOM     14  S   UNL     1      53.421   5.981   7.443  0.00  0.00    +0.000 S 
ATOM     15  O   UNL     1      54.522   6.465   6.644  0.00  0.00    +0.000 OA
ATOM     16  O   UNL     1      52.055   6.045   6.973  0.00  0.00    +0.000 OA
BRANCH  14  17
ATOM     17  N   UNL     1      53.756   4.348   7.711  0.00  0.00    +0.000 NA
ATOM     18  H   UNL     1      53.063   3.769   7.242  0.00  0.00    +0.000 HD
ATOM     19  H   UNL     1      53.869   4.178   8.708  0.00  0.00    +0.000 HD
ENDBRANCH  14  17
ENDBRANCH   8  14
ENDBRANCH   7  12
ENDBRANCH   1   7
BRANCH   4  20
ATOM     20  C   UNL     1      46.478   8.038  12.925  0.00  0.00    +0.000 C 
BRANCH  20  21
ATOM     21  N   UNL     1      46.050   6.723  12.530  0.00  0.00    +0.000 N 
ATOM     22  C   UNL     1      44.909   6.543  11.787  0.00  0.00    +0.000 C 
ATOM     23  O   UNL     1      44.238   7.489  11.385  0.00  0.00    +0.000 OA
ATOM     24  H   UNL     1      46.440   5.938  13.040  0.00  0.00    +0.000 HD
BRANCH  22  25
ATOM     25  C   UNL     1      44.566   5.159  11.437  0.00  0.00    +0.000 A 
ATOM     26  C   UNL     1      43.810   4.396  12.316  0.00  0.00    +0.000 A 
ATOM     27  S   UNL     1      43.457   2.831  11.734  0.00  0.00    +0.000 S 
ATOM     28  C   UNL     1      44.350   3.100  10.313  0.00  0.00    +0.000 A 
ATOM     29  N   UNL     1      44.481   2.123   9.373  0.00  0.00    +0.000 NA
ATOM     30  C   UNL     1      45.215   2.450   8.363  0.00  0.00    +0.000 A 
ATOM     31  N   UNL     1      45.825   3.667   8.202  0.00  0.00    +0.000 N 
ATOM     32  C   UNL     1      45.693   4.695   9.105  0.00  0.00    +0.000 A 
ATOM     33  O   UNL     1      46.212   5.789   8.907  0.00  0.00    +0.000 OA
ATOM     34  C   UNL     1      44.892   4.373  10.270  0.00  0.00    +0.000 A 
ATOM     35  H   UNL     1      46.378   3.865   7.380  0.00  0.00    +0.000 HD
ENDBRANCH  22  25
ENDBRANCH  20  21
ENDBRANCH   4  20
TORSDOF 7
ENDMDL
MODEL 5
REMARK VINA RESULT:    -6.758      2.625      8.392
REMARK INTER + INTRA:         -10.511
REMARK INTER:                  -9.301
REMARK INTRA:                  -1.210
REMARK UNBOUND:                -1.185
REMARK  Name = 
REMARK  7 active torsions:
REMARK  status: ('A' for Active; 'I' for Inactive)
REMARK    1  A    between atoms: N_1  and  S_2
REMARK    2  A    between atoms: S_2  and  C_5
REMARK    3  A    between atoms: C_9  and  C_10
REMARK    4  A    between atoms: C_10  and  C_11
REMARK    5  A    between atoms: C_14  and  C_15
REMARK    6  A    between atoms: C_15  and  N_16
REMARK    7  A    between atoms: C_17  and  C_19
REMARK                            x       y       z     vdW  Elec       q    Type
REMARK                         _______ _______ _______ _____ _____    ______ ____
ROOT
ATOM      1  C   UNL     1      47.803   7.857  13.375  0.00  0.00    +0.000 A 
ATOM      2  C   UNL     1      48.663   6.814  13.746  0.00  0.00    +0.000 A 
ATOM      3  C   UNL     1      49.291   6.815  14.995  0.00  0.00    +0.000 A 
ATOM      4  C   UNL     1      49.075   7.862  15.898  0.00  0.00    +0.000 A 
ATOM      5  C   UNL     1      48.269   8.937  15.503  0.00  0.00    +0.000 A 
ATOM      6  C   UNL     1      47.628   8.929  14.260  0.00  0.00    +0.000 A 
ENDROOT
BRANCH   1   7
ATOM      7  C   UNL     1      47.051   7.813  12.062  0.00  0.00    +0.000 C 
BRANCH   7  12
ATOM      8  C   UNL     1      45.254   4.906  10.644  0.00  0.00    +0.000 A 
ATOM      9  C   UNL     1      44.447   4.427  11.660  0.00  0.00    +0.000 A 
ATOM     10  C   UNL     1      44.472   5.119  12.862  0.00  0.00    +0.000 A 
ATOM     11  C   UNL     1      45.300   6.236  12.996  0.00  0.00    +0.000 A 
ATOM     12  C   UNL     1      46.088   6.650  11.919  0.00  0.00    +0.000 A 
ATOM     13  N   UNL     1      46.070   5.998  10.732  0.00  0.00    +0.000 NA
BRANCH   8  14
ATOM     14  S   UNL     1      45.276   4.113   9.047  0.00  0.00    +0.000 S 
ATOM     15  O   UNL     1      45.363   2.683   9.230  0.00  0.00    +0.000 OA
ATOM     16  O   UNL     1      46.174   4.821   8.164  0.00  0.00    +0.000 OA
BRANCH  14  17
ATOM     17  N   UNL     1      43.717   4.387   8.461  0.00  0.00    +0.000 NA
ATOM     18  H   UNL     1      43.493   3.710   7.735  0.00  0.00    +0.000 HD
ATOM     19  H   UNL     1      43.615   5.365   8.195  0.00  0.00    +0.000 HD
ENDBRANCH  14  17
ENDBRANCH   8  14
ENDBRANCH   7  12
ENDBRANCH   1   7
BRANCH   4  20
ATOM     20  C   UNL     1      49.710   7.847  17.265  0.00  0.00    +0.000 C 
BRANCH  20  21
ATOM     21  N   UNL     1      50.554   6.695  17.442  0.00  0.00    +0.000 N 
ATOM     22  C   UNL     1      50.805   6.186  18.692  0.00  0.00    +0.000 C 
ATOM     23  O   UNL     1      50.284   6.654  19.701  0.00  0.00    +0.000 OA
ATOM     24  H   UNL     1      51.169   6.452  16.673  0.00  0.00    +0.000 HD
BRANCH  22  25
ATOM     25  C   UNL     1      51.678   5.008  18.757  0.00  0.00    +0.000 A 
ATOM     26  C   UNL     1      52.888   5.087  19.432  0.00  0.00    +0.000 A 
ATOM     27  S   UNL     1      53.754   3.617  19.457  0.00  0.00    +0.000 S 
ATOM     28  C   UNL     1      52.569   2.841  18.518  0.00  0.00    +0.000 A 
ATOM     29  N   UNL     1      52.713   1.539  18.145  0.00  0.00    +0.000 NA
ATOM     30  C   UNL     1      51.757   1.087  17.405  0.00  0.00    +0.000 A 
ATOM     31  N   UNL     1      50.665   1.815  17.009  0.00  0.00    +0.000 N 
ATOM     32  C   UNL     1      50.458   3.120  17.389  0.00  0.00    +0.000 A 
ATOM     33  O   UNL     1      49.446   3.728  17.059  0.00  0.00    +0.000 OA
ATOM     34  C   UNL     1      51.515   3.683  18.209  0.00  0.00    +0.000 A 
ATOM     35  H   UNL     1      49.944   1.398  16.438  0.00  0.00    +0.000 HD
ENDBRANCH  22  25
ENDBRANCH  20  21
ENDBRANCH   4  20
TORSDOF 7
ENDMDL
MODEL 6
REMARK VINA RESULT:    -6.658      2.379      7.837
REMARK INTER + INTRA:         -10.374
REMARK INTER:                  -9.024
REMARK INTRA:                  -1.350
REMARK UNBOUND:                -1.185
REMARK  Name = 
REMARK  7 active torsions:
REMARK  status: ('A' for Active; 'I' for Inactive)
REMARK    1  A    between atoms: N_1  and  S_2
REMARK    2  A    between atoms: S_2  and  C_5
REMARK    3  A    between atoms: C_9  and  C_10
REMARK    4  A    between atoms: C_10  and  C_11
REMARK    5  A    between atoms: C_14  and  C_15
REMARK    6  A    between atoms: C_15  and  N_16
REMARK    7  A    between atoms: C_17  and  C_19
REMARK                            x       y       z     vdW  Elec       q    Type
REMARK                         _______ _______ _______ _____ _____    ______ ____
ROOT
ATOM      1  C   UNL     1      45.850   7.529  11.995  0.00  0.00    +0.000 A 
ATOM      2  C   UNL     1      47.011   6.753  11.865  0.00  0.00    +0.000 A 
ATOM      3  C   UNL     1      48.177   7.092  12.556  0.00  0.00    +0.000 A 
ATOM      4  C   UNL     1      48.210   8.216  13.389  0.00  0.00    +0.000 A 
ATOM      5  C   UNL     1      47.072   9.029  13.468  0.00  0.00    +0.000 A 
ATOM      6  C   UNL     1      45.899   8.682  12.789  0.00  0.00    +0.000 A 
ENDROOT
BRANCH   1   7
ATOM      7  C   UNL     1      44.560   7.114  11.321  0.00  0.00    +0.000 C 
BRANCH   7  12
ATOM      8  C   UNL     1      44.266   3.500  10.582  0.00  0.00    +0.000 A 
ATOM      9  C   UNL     1      43.735   2.922  11.720  0.00  0.00    +0.000 A 
ATOM     10  C   UNL     1      43.425   3.773  12.772  0.00  0.00    +0.000 A 
ATOM     11  C   UNL     1      43.669   5.143  12.643  0.00  0.00    +0.000 A 
ATOM     12  C   UNL     1      44.215   5.643  11.458  0.00  0.00    +0.000 A 
ATOM     13  N   UNL     1      44.512   4.834  10.414  0.00  0.00    +0.000 NA
BRANCH   8  14
ATOM     14  S   UNL     1      44.671   2.505   9.159  0.00  0.00    +0.000 S 
ATOM     15  O   UNL     1      43.800   1.354   9.123  0.00  0.00    +0.000 OA
ATOM     16  O   UNL     1      46.106   2.374   9.049  0.00  0.00    +0.000 OA
BRANCH  14  17
ATOM     17  N   UNL     1      44.180   3.469   7.864  0.00  0.00    +0.000 NA
ATOM     18  H   UNL     1      44.338   2.980   6.985  0.00  0.00    +0.000 HD
ATOM     19  H   UNL     1      44.608   4.390   7.937  0.00  0.00    +0.000 HD
ENDBRANCH  14  17
ENDBRANCH   8  14
ENDBRANCH   7  12
ENDBRANCH   1   7
BRANCH   4  20
ATOM     20  C   UNL     1      49.449   8.561  14.175  0.00  0.00    +0.000 C 
BRANCH  20  21
ATOM     21  N   UNL     1      49.564   7.753  15.359  0.00  0.00    +0.000 N 
ATOM     22  C   UNL     1      49.027   8.165  16.553  0.00  0.00    +0.000 C 
ATOM     23  O   UNL     1      48.385   9.208  16.652  0.00  0.00    +0.000 OA
ATOM     24  H   UNL     1      50.277   7.030  15.357  0.00  0.00    +0.000 HD
BRANCH  22  25
ATOM     25  C   UNL     1      49.200   7.262  17.697  0.00  0.00    +0.000 A 
ATOM     26  C   UNL     1      49.734   7.749  18.882  0.00  0.00    +0.000 A 
ATOM     27  S   UNL     1      49.819   6.584  20.125  0.00  0.00    +0.000 S 
ATOM     28  C   UNL     1      49.198   5.374  19.105  0.00  0.00    +0.000 A 
ATOM     29  N   UNL     1      49.041   4.096  19.550  0.00  0.00    +0.000 NA
ATOM     30  C   UNL     1      48.594   3.273  18.662  0.00  0.00    +0.000 A 
ATOM     31  N   UNL     1      48.284   3.611  17.370  0.00  0.00    +0.000 N 
ATOM     32  C   UNL     1      48.392   4.893  16.886  0.00  0.00    +0.000 A 
ATOM     33  O   UNL     1      48.059   5.172  15.739  0.00  0.00    +0.000 OA
ATOM     34  C   UNL     1      48.908   5.856  17.841  0.00  0.00    +0.000 A 
ATOM     35  H   UNL     1      47.927   2.921  16.725  0.00  0.00    +0.000 HD
ENDBRANCH  22  25
ENDBRANCH  20  21
ENDBRANCH   4  20
TORSDOF 7
ENDMDL
MODEL 7
REMARK VINA RESULT:    -6.654      2.929      9.059
REMARK INTER + INTRA:         -10.367
REMARK INTER:                  -9.300
REMARK INTRA:                  -1.067
REMARK UNBOUND:                -1.185
REMARK  Name = 
REMARK  7 active torsions:
REMARK  status: ('A' for Active; 'I' for Inactive)
REMARK    1  A    between atoms: N_1  and  S_2
REMARK    2  A    between atoms: S_2  and  C_5
REMARK    3  A    between atoms: C_9  and  C_10
REMARK    4  A    between atoms: C_10  and  C_11
REMARK    5  A    between atoms: C_14  and  C_15
REMARK    6  A    between atoms: C_15  and  N_16
REMARK    7  A    between atoms: C_17  and  C_19
REMARK                            x       y       z     vdW  Elec       q    Type
REMARK                         _______ _______ _______ _____ _____    ______ ____
ROOT
ATOM      1  C   UNL     1      45.337   5.842  11.755  0.00  0.00    +0.000 A 
ATOM      2  C   UNL     1      45.948   7.100  11.655  0.00  0.00    +0.000 A 
ATOM      3  C   UNL     1      47.021   7.441  12.484  0.00  0.00    +0.000 A 
ATOM      4  C   UNL     1      47.503   6.533  13.433  0.00  0.00    +0.000 A 
ATOM      5  C   UNL     1      46.851   5.301  13.579  0.00  0.00    +0.000 A 
ATOM      6  C   UNL     1      45.788   4.953  12.739  0.00  0.00    +0.000 A 
ENDROOT
BRANCH   1   7
ATOM      7  C   UNL     1      44.236   5.436  10.799  0.00  0.00    +0.000 C 
BRANCH   7  12
ATOM      8  C   UNL     1      45.608   3.026   8.348  0.00  0.00    +0.000 A 
ATOM      9  C   UNL     1      45.109   1.789   8.713  0.00  0.00    +0.000 A 
ATOM     10  C   UNL     1      44.249   1.754   9.802  0.00  0.00    +0.000 A 
ATOM     11  C   UNL     1      43.941   2.939  10.473  0.00  0.00    +0.000 A 
ATOM     12  C   UNL     1      44.494   4.147  10.041  0.00  0.00    +0.000 A 
ATOM     13  N   UNL     1      45.325   4.208   8.973  0.00  0.00    +0.000 NA
BRANCH   8  14
ATOM     14  S   UNL     1      46.696   3.192   6.945  0.00  0.00    +0.000 S 
ATOM     15  O   UNL     1      47.407   4.445   7.043  0.00  0.00    +0.000 OA
ATOM     16  O   UNL     1      45.997   2.807   5.740  0.00  0.00    +0.000 OA
BRANCH  14  17
ATOM     17  N   UNL     1      47.860   2.002   7.220  0.00  0.00    +0.000 NA
ATOM     18  H   UNL     1      48.649   2.396   7.729  0.00  0.00    +0.000 HD
ATOM     19  H   UNL     1      48.091   1.535   6.345  0.00  0.00    +0.000 HD
ENDBRANCH  14  17
ENDBRANCH   8  14
ENDBRANCH   7  12
ENDBRANCH   1   7
BRANCH   4  20
ATOM     20  C   UNL     1      48.690   6.874  14.297  0.00  0.00    +0.000 C 
BRANCH  20  21
ATOM     21  N   UNL     1      48.361   6.807  15.696  0.00  0.00    +0.000 N 
ATOM     22  C   UNL     1      49.261   6.322  16.612  0.00  0.00    +0.000 C 
ATOM     23  O   UNL     1      50.394   5.975  16.291  0.00  0.00    +0.000 OA
ATOM     24  H   UNL     1      47.378   6.857  15.941  0.00  0.00    +0.000 HD
BRANCH  22  25
ATOM     25  C   UNL     1      48.823   6.300  18.013  0.00  0.00    +0.000 A 
ATOM     26  C   UNL     1      48.939   5.131  18.751  0.00  0.00    +0.000 A 
ATOM     27  S   UNL     1      48.434   5.292  20.373  0.00  0.00    +0.000 S 
ATOM     28  C   UNL     1      47.989   6.915  20.129  0.00  0.00    +0.000 A 
ATOM     29  N   UNL     1      47.443   7.650  21.137  0.00  0.00    +0.000 NA
ATOM     30  C   UNL     1      47.120   8.854  20.804  0.00  0.00    +0.000 A 
ATOM     31  N   UNL     1      47.298   9.394  19.556  0.00  0.00    +0.000 N 
ATOM     32  C   UNL     1      47.877   8.703  18.518  0.00  0.00    +0.000 A 
ATOM     33  O   UNL     1      48.068   9.232  17.428  0.00  0.00    +0.000 OA
ATOM     34  C   UNL     1      48.243   7.336  18.835  0.00  0.00    +0.000 A 
ATOM     35  H   UNL     1      47.033  10.349  19.363  0.00  0.00    +0.000 HD
ENDBRANCH  22  25
ENDBRANCH  20  21
ENDBRANCH   4  20
TORSDOF 7
ENDMDL
MODEL 8
REMARK VINA RESULT:    -6.066      3.332      8.308
REMARK INTER + INTRA:          -9.557
REMARK INTER:                  -8.298
REMARK INTRA:                  -1.259
REMARK UNBOUND:                -1.185
REMARK  Name = 
REMARK  7 active torsions:
REMARK  status: ('A' for Active; 'I' for Inactive)
REMARK    1  A    between atoms: N_1  and  S_2
REMARK    2  A    between atoms: S_2  and  C_5
REMARK    3  A    between atoms: C_9  and  C_10
REMARK    4  A    between atoms: C_10  and  C_11
REMARK    5  A    between atoms: C_14  and  C_15
REMARK    6  A    between atoms: C_15  and  N_16
REMARK    7  A    between atoms: C_17  and  C_19
REMARK                            x       y       z     vdW  Elec       q    Type
REMARK                         _______ _______ _______ _____ _____    ______ ____
ROOT
ATOM      1  C   UNL     1      48.046   8.158  13.258  0.00  0.00    +0.000 A 
ATOM      2  C   UNL     1      49.027   8.075  12.259  0.00  0.00    +0.000 A 
ATOM      3  C   UNL     1      50.381   8.221  12.574  0.00  0.00    +0.000 A 
ATOM      4  C   UNL     1      50.783   8.457  13.894  0.00  0.00    +0.000 A 
ATOM      5  C   UNL     1      49.799   8.606  14.880  0.00  0.00    +0.000 A 
ATOM      6  C   UNL     1      48.446   8.444  14.569  0.00  0.00    +0.000 A 
ENDROOT
BRANCH   1   7
ATOM      7  C   UNL     1      46.588   7.909  12.935  0.00  0.00    +0.000 C 
BRANCH   7  12
ATOM      8  C   UNL     1      44.792   4.788  12.081  0.00  0.00    +0.000 A 
ATOM      9  C   UNL     1      45.494   3.767  12.696  0.00  0.00    +0.000 A 
ATOM     10  C   UNL     1      46.594   4.130  13.459  0.00  0.00    +0.000 A 
ATOM     11  C   UNL     1      46.945   5.479  13.561  0.00  0.00    +0.000 A 
ATOM     12  C   UNL     1      46.184   6.447  12.902  0.00  0.00    +0.000 A 
ATOM     13  N   UNL     1      45.098   6.117  12.163  0.00  0.00    +0.000 NA
BRANCH   8  14
ATOM     14  S   UNL     1      43.344   4.437  11.103  0.00  0.00    +0.000 S 
ATOM     15  O   UNL     1      43.707   4.427   9.705  0.00  0.00    +0.000 OA
ATOM     16  O   UNL     1      42.227   5.213  11.592  0.00  0.00    +0.000 OA
BRANCH  14  17
ATOM     17  N   UNL     1      43.006   2.827  11.481  0.00  0.00    +0.000 NA
ATOM     18  H   UNL     1      42.992   2.702  12.491  0.00  0.00    +0.000 HD
ATOM     19  H   UNL     1      43.637   2.212  10.971  0.00  0.00    +0.000 HD
ENDBRANCH  14  17
ENDBRANCH   8  14
ENDBRANCH   7  12
ENDBRANCH   1   7
BRANCH   4  20
ATOM     20  C   UNL     1      52.243   8.568  14.249  0.00  0.00    +0.000 C 
BRANCH  20  21
ATOM     21  N   UNL     1      52.699   7.410  14.971  0.00  0.00    +0.000 N 
ATOM     22  C   UNL     1      53.182   7.519  16.252  0.00  0.00    +0.000 C 
ATOM     23  O   UNL     1      53.198   8.590  16.853  0.00  0.00    +0.000 OA
ATOM     24  H   UNL     1      52.916   6.583  14.425  0.00  0.00    +0.000 HD
BRANCH  22  25
ATOM     25  C   UNL     1      53.618   6.274  16.896  0.00  0.00    +0.000 A 
ATOM     26  C   UNL     1      54.960   6.092  17.199  0.00  0.00    +0.000 A 
ATOM     27  S   UNL     1      55.289   4.617  17.991  0.00  0.00    +0.000 S 
ATOM     28  C   UNL     1      53.658   4.146  17.904  0.00  0.00    +0.000 A 
ATOM     29  N   UNL     1      53.251   2.939  18.386  0.00  0.00    +0.000 NA
ATOM     30  C   UNL     1      51.994   2.695  18.223  0.00  0.00    +0.000 A 
ATOM     31  N   UNL     1      51.103   3.550  17.627  0.00  0.00    +0.000 N 
ATOM     32  C   UNL     1      51.460   4.792  17.158  0.00  0.00    +0.000 A 
ATOM     33  O   UNL     1      50.628   5.554  16.675  0.00  0.00    +0.000 OA
ATOM     34  C   UNL     1      52.868   5.109  17.300  0.00  0.00    +0.000 A 
ATOM     35  H   UNL     1      50.128   3.304  17.540  0.00  0.00    +0.000 HD
ENDBRANCH  22  25
ENDBRANCH  20  21
ENDBRANCH   4  20
TORSDOF 7
ENDMDL
MODEL 9
REMARK VINA RESULT:    -5.874      5.021      6.938
REMARK INTER + INTRA:          -9.292
REMARK INTER:                  -8.283
REMARK INTRA:                  -1.008
REMARK UNBOUND:                -1.185
REMARK  Name = 
REMARK  7 active torsions:
REMARK  status: ('A' for Active; 'I' for Inactive)
REMARK    1  A    between atoms: N_1  and  S_2
REMARK    2  A    between atoms: S_2  and  C_5
REMARK    3  A    between atoms: C_9  and  C_10
REMARK    4  A    between atoms: C_10  and  C_11
REMARK    5  A    between atoms: C_14  and  C_15
REMARK    6  A    between atoms: C_15  and  N_16
REMARK    7  A    between atoms: C_17  and  C_19
REMARK                            x       y       z     vdW  Elec       q    Type
REMARK                         _______ _______ _______ _____ _____    ______ ____
ROOT
ATOM      1  C   UNL     1      52.257   8.718  10.624  0.00  0.00    +0.000 A 
ATOM      2  C   UNL     1      51.843   9.935  11.182  0.00  0.00    +0.000 A 
ATOM      3  C   UNL     1      50.622  10.034  11.856  0.00  0.00    +0.000 A 
ATOM      4  C   UNL     1      49.786   8.919  11.981  0.00  0.00    +0.000 A 
ATOM      5  C   UNL     1      50.168   7.719  11.367  0.00  0.00    +0.000 A 
ATOM      6  C   UNL     1      51.397   7.615  10.707  0.00  0.00    +0.000 A 
ENDROOT
BRANCH   1   7
ATOM      7  C   UNL     1      53.618   8.584   9.975  0.00  0.00    +0.000 C 
BRANCH   7  12
ATOM      8  C   UNL     1      54.451   5.383   8.316  0.00  0.00    +0.000 A 
ATOM      9  C   UNL     1      55.054   4.601   9.284  0.00  0.00    +0.000 A 
ATOM     10  C   UNL     1      55.158   5.144  10.557  0.00  0.00    +0.000 A 
ATOM     11  C   UNL     1      54.674   6.431  10.797  0.00  0.00    +0.000 A 
ATOM     12  C   UNL     1      54.083   7.157   9.759  0.00  0.00    +0.000 A 
ATOM     13  N   UNL     1      53.957   6.642   8.513  0.00  0.00    +0.000 NA
BRANCH   8  14
ATOM     14  S   UNL     1      54.235   4.773   6.655  0.00  0.00    +0.000 S 
ATOM     15  O   UNL     1      55.465   4.159   6.213  0.00  0.00    +0.000 OA
ATOM     16  O   UNL     1      53.551   5.765   5.857  0.00  0.00    +0.000 OA
BRANCH  14  17
ATOM     17  N   UNL     1      53.152   3.494   6.854  0.00  0.00    +0.000 NA
ATOM     18  H   UNL     1      52.474   3.489   6.094  0.00  0.00    +0.000 HD
ATOM     19  H   UNL     1      52.759   3.516   7.793  0.00  0.00    +0.000 HD
ENDBRANCH  14  17
ENDBRANCH   8  14
ENDBRANCH   7  12
ENDBRANCH   1   7
BRANCH   4  20
ATOM     20  C   UNL     1      48.491   9.005  12.747  0.00  0.00    +0.000 C 
BRANCH  20  21
ATOM     21  N   UNL     1      47.587   7.949  12.375  0.00  0.00    +0.000 N 
ATOM     22  C   UNL     1      46.261   7.995  12.727  0.00  0.00    +0.000 C 
ATOM     23  O   UNL     1      45.779   8.954  13.324  0.00  0.00    +0.000 OA
ATOM     24  H   UNL     1      48.000   7.062  12.106  0.00  0.00    +0.000 HD
BRANCH  22  25
ATOM     25  C   UNL     1      45.428   6.866  12.295  0.00  0.00    +0.000 A 
ATOM     26  C   UNL     1      44.275   7.105  11.561  0.00  0.00    +0.000 A 
ATOM     27  S   UNL     1      43.454   5.685  11.094  0.00  0.00    +0.000 S 
ATOM     28  C   UNL     1      44.580   4.704  11.907  0.00  0.00    +0.000 A 
ATOM     29  N   UNL     1      44.441   3.349  11.929  0.00  0.00    +0.000 NA
ATOM     30  C   UNL     1      45.345   2.731  12.611  0.00  0.00    +0.000 A 
ATOM     31  N   UNL     1      46.381   3.342  13.269  0.00  0.00    +0.000 N 
ATOM     32  C   UNL     1      46.583   4.702  13.246  0.00  0.00    +0.000 A 
ATOM     33  O   UNL     1      47.549   5.212  13.803  0.00  0.00    +0.000 OA
ATOM     34  C   UNL     1      45.582   5.446  12.506  0.00  0.00    +0.000 A 
ATOM     35  H   UNL     1      47.064   2.799  13.777  0.00  0.00    +0.000 HD
ENDBRANCH  22  25
ENDBRANCH  20  21
ENDBRANCH   4  20
TORSDOF 7
ENDMDL
