MODEL 1
REMARK VINA RESULT:    -6.289      0.000      0.000
REMARK INTER + INTRA:          -9.544
REMARK INTER:                  -8.495
REMARK INTRA:                  -1.049
REMARK UNBOUND:                -1.049
REMARK  Name = 
REMARK  6 active torsions:
REMARK  status: ('A' for Active; 'I' for Inactive)
REMARK    1  A    between atoms: C_2  and  C_19
REMARK    2  A    between atoms: N_3  and  C_4
REMARK    3  A    between atoms: C_4  and  C_5
REMARK    4  A    between atoms: C_8  and  C_9
REMARK    5  A    between atoms: C_10  and  C_11
REMARK    6  A    between atoms: C_11  and  N_12
REMARK                            x       y       z     vdW  Elec       q    Type
REMARK                         _______ _______ _______ _____ _____    ______ ____
ROOT
ATOM      1  O   UNL     1      52.319   5.551  18.363  0.00  0.00    +0.000 OA
ATOM      2  C   UNL     1      52.202   4.500  18.983  0.00  0.00    +0.000 C 
ATOM      3  N   UNL     1      51.023   4.090  19.551  0.00  0.00    +0.000 N 
ATOM      4  H   UNL     1      51.022   3.298  20.181  0.00  0.00    +0.000 HD
ENDROOT
BRANCH   2   5
ATOM      5  C   UNL     1      53.315   3.556  19.114  0.00  0.00    +0.000 A 
ATOM      6  C   UNL     1      54.468   3.895  19.805  0.00  0.00    +0.000 A 
ATOM      7  S   UNL     1      55.641   2.651  19.815  0.00  0.00    +0.000 S 
ATOM      8  C   UNL     1      54.627   1.611  18.927  0.00  0.00    +0.000 A 
ATOM      9  N   UNL     1      55.019   0.352  18.594  0.00  0.00    +0.000 NA
ATOM     10  C   UNL     1      54.132  -0.330  17.950  0.00  0.00    +0.000 A 
ATOM     11  N   UNL     1      52.890   0.131  17.603  0.00  0.00    +0.000 N 
ATOM     12  C   UNL     1      52.478   1.412  17.848  0.00  0.00    +0.000 A 
ATOM     13  O   UNL     1      51.421   1.826  17.385  0.00  0.00    +0.000 OA
ATOM     14  C   UNL     1      53.422   2.209  18.609  0.00  0.00    +0.000 A 
ATOM     15  H   UNL     1      52.254  -0.438  17.062  0.00  0.00    +0.000 HD
ENDBRANCH   2   5
BRANCH   3  16
ATOM     16  C   UNL     1      49.835   4.902  19.568  0.00  0.00    +0.000 C 
BRANCH  16  17
ATOM     17  C   UNL     1      48.978   4.704  18.342  0.00  0.00    +0.000 A 
ATOM     18  C   UNL     1      48.947   5.706  17.363  0.00  0.00    +0.000 A 
ATOM     19  C   UNL     1      48.217   5.531  16.187  0.00  0.00    +0.000 A 
ATOM     20  C   UNL     1      47.512   4.349  15.969  0.00  0.00    +0.000 A 
ATOM     21  C   UNL     1      47.492   3.361  16.958  0.00  0.00    +0.000 A 
ATOM     22  C   UNL     1      48.218   3.540  18.142  0.00  0.00    +0.000 A 
BRANCH  20  23
ATOM     23  C   UNL     1      46.842   4.155  14.723  0.00  0.00    +0.000 C 
ATOM     24  C   UNL     1      46.239   3.980  13.694  0.00  0.00    +0.000 C 
BRANCH  24  25
ATOM     25  C   UNL     1      45.519   3.712  12.441  0.00  0.00    +0.000 C 
BRANCH  25  26
ATOM     26  N   UNL     1      44.144   3.278  12.714  0.00  0.00    +0.000 NA
ATOM     27  C   UNL     1      43.325   4.367  13.255  0.00  0.00    +0.000 C 
ATOM     28  C   UNL     1      42.771   5.089  12.039  0.00  0.00    +0.000 C 
ATOM     29  O   UNL     1      42.851   4.165  10.951  0.00  0.00    +0.000 OA
ATOM     30  C   UNL     1      43.435   2.972  11.472  0.00  0.00    +0.000 C 
ENDBRANCH  25  26
ENDBRANCH  24  25
ENDBRANCH  20  23
ENDBRANCH  16  17
ENDBRANCH   3  16
TORSDOF 6
ENDMDL
MODEL 2
REMARK VINA RESULT:    -6.077      7.853     10.861
REMARK INTER + INTRA:          -9.257
REMARK INTER:                  -8.465
REMARK INTRA:                  -0.792
REMARK UNBOUND:                -1.049
REMARK  Name = 
REMARK  6 active torsions:
REMARK  status: ('A' for Active; 'I' for Inactive)
REMARK    1  A    between atoms: C_2  and  C_19
REMARK    2  A    between atoms: N_3  and  C_4
REMARK    3  A    between atoms: C_4  and  C_5
REMARK    4  A    between atoms: C_8  and  C_9
REMARK    5  A    between atoms: C_10  and  C_11
REMARK    6  A    between atoms: C_11  and  N_12
REMARK                            x       y       z     vdW  Elec       q    Type
REMARK                         _______ _______ _______ _____ _____    ______ ____
ROOT
ATOM      1  O   UNL     1      44.183   7.546  11.354  0.00  0.00    +0.000 OA
ATOM      2  C   UNL     1      44.809   6.624  11.865  0.00  0.00    +0.000 C 
ATOM      3  N   UNL     1      45.839   6.814  12.751  0.00  0.00    +0.000 N 
ATOM      4  H   UNL     1      46.419   6.029  13.017  0.00  0.00    +0.000 HD
ENDROOT
BRANCH   2   5
ATOM      5  C   UNL     1      44.460   5.224  11.612  0.00  0.00    +0.000 A 
ATOM      6  C   UNL     1      43.713   4.492  12.523  0.00  0.00    +0.000 A 
ATOM      7  S   UNL     1      43.441   2.878  12.032  0.00  0.00    +0.000 S 
ATOM      8  C   UNL     1      44.281   3.121  10.571  0.00  0.00    +0.000 A 
ATOM      9  N   UNL     1      44.415   2.123   9.657  0.00  0.00    +0.000 NA
ATOM     10  C   UNL     1      45.048   2.465   8.584  0.00  0.00    +0.000 A 
ATOM     11  N   UNL     1      45.562   3.711   8.342  0.00  0.00    +0.000 N 
ATOM     12  C   UNL     1      45.518   4.723   9.260  0.00  0.00    +0.000 A 
ATOM     13  O   UNL     1      46.125   5.771   9.063  0.00  0.00    +0.000 OA
ATOM     14  C   UNL     1      44.780   4.405  10.468  0.00  0.00    +0.000 A 
ATOM     15  H   UNL     1      46.084   3.906   7.499  0.00  0.00    +0.000 HD
ENDBRANCH   2   5
BRANCH   3  16
ATOM     16  C   UNL     1      46.356   8.115  13.086  0.00  0.00    +0.000 C 
BRANCH  16  17
ATOM     17  C   UNL     1      47.734   8.356  12.521  0.00  0.00    +0.000 A 
ATOM     18  C   UNL     1      48.624   7.280  12.413  0.00  0.00    +0.000 A 
ATOM     19  C   UNL     1      49.883   7.451  11.836  0.00  0.00    +0.000 A 
ATOM     20  C   UNL     1      50.269   8.699  11.354  0.00  0.00    +0.000 A 
ATOM     21  C   UNL     1      49.412   9.795  11.500  0.00  0.00    +0.000 A 
ATOM     22  C   UNL     1      48.152   9.626  12.086  0.00  0.00    +0.000 A 
BRANCH  20  23
ATOM     23  C   UNL     1      51.526   8.834  10.691  0.00  0.00    +0.000 C 
ATOM     24  C   UNL     1      52.569   8.980  10.105  0.00  0.00    +0.000 C 
BRANCH  24  25
ATOM     25  C   UNL     1      53.824   9.118   9.352  0.00  0.00    +0.000 C 
BRANCH  25  26
ATOM     26  N   UNL     1      54.192   7.848   8.717  0.00  0.00    +0.000 NA
ATOM     27  C   UNL     1      53.090   7.297   7.921  0.00  0.00    +0.000 C 
ATOM     28  C   UNL     1      53.234   7.933   6.549  0.00  0.00    +0.000 C 
ATOM     29  O   UNL     1      54.590   8.379   6.452  0.00  0.00    +0.000 OA
ATOM     30  C   UNL     1      55.216   8.053   7.692  0.00  0.00    +0.000 C 
ENDBRANCH  25  26
ENDBRANCH  24  25
ENDBRANCH  20  23
ENDBRANCH  16  17
ENDBRANCH   3  16
TORSDOF 6
ENDMDL
MODEL 3
REMARK VINA RESULT:    -5.976      2.103      2.656
REMARK INTER + INTRA:          -9.121
REMARK INTER:                  -8.290
REMARK INTRA:                  -0.831
REMARK UNBOUND:                -1.049
REMARK  Name = 
REMARK  6 active torsions:
REMARK  status: ('A' for Active; 'I' for Inactive)
REMARK    1  A    between atoms: C_2  and  C_19
REMARK    2  A    between atoms: N_3  and  C_4
REMARK    3  A    between atoms: C_4  and  C_5
REMARK    4  A    between atoms: C_8  and  C_9
REMARK    5  A    between atoms: C_10  and  C_11
REMARK    6  A    between atoms: C_11  and  N_12
REMARK                            x       y       z     vdW  Elec       q    Type
REMARK                         _______ _______ _______ _____ _____    ______ ____
ROOT
ATOM      1  O   UNL     1      50.844   6.350  18.897  0.00  0.00    +0.000 OA
ATOM      2  C   UNL     1      51.640   5.916  18.072  0.00  0.00    +0.000 C 
ATOM      3  N   UNL     1      51.889   6.530  16.871  0.00  0.00    +0.000 N 
ATOM      4  H   UNL     1      52.433   6.047  16.167  0.00  0.00    +0.000 HD
ENDROOT
BRANCH   2   5
ATOM      5  C   UNL     1      52.446   4.720  18.336  0.00  0.00    +0.000 A 
ATOM      6  C   UNL     1      53.691   4.811  18.940  0.00  0.00    +0.000 A 
ATOM      7  S   UNL     1      54.460   3.297  19.133  0.00  0.00    +0.000 S 
ATOM      8  C   UNL     1      53.136   2.474  18.449  0.00  0.00    +0.000 A 
ATOM      9  N   UNL     1      53.132   1.120  18.322  0.00  0.00    +0.000 NA
ATOM     10  C   UNL     1      52.047   0.635  17.816  0.00  0.00    +0.000 A 
ATOM     11  N   UNL     1      50.968   1.378  17.421  0.00  0.00    +0.000 N 
ATOM     12  C   UNL     1      50.953   2.745  17.458  0.00  0.00    +0.000 A 
ATOM     13  O   UNL     1      50.029   3.373  16.952  0.00  0.00    +0.000 OA
ATOM     14  C   UNL     1      52.132   3.340  18.059  0.00  0.00    +0.000 A 
ATOM     15  H   UNL     1      50.162   0.943  16.993  0.00  0.00    +0.000 HD
ENDBRANCH   2   5
BRANCH   3  16
ATOM     16  C   UNL     1      51.163   7.685  16.415  0.00  0.00    +0.000 C 
BRANCH  16  17
ATOM     17  C   UNL     1      50.034   7.331  15.479  0.00  0.00    +0.000 A 
ATOM     18  C   UNL     1      50.058   7.821  14.166  0.00  0.00    +0.000 A 
ATOM     19  C   UNL     1      49.067   7.462  13.253  0.00  0.00    +0.000 A 
ATOM     20  C   UNL     1      48.039   6.604  13.636  0.00  0.00    +0.000 A 
ATOM     21  C   UNL     1      47.972   6.146  14.955  0.00  0.00    +0.000 A 
ATOM     22  C   UNL     1      48.963   6.512  15.875  0.00  0.00    +0.000 A 
BRANCH  20  23
ATOM     23  C   UNL     1      47.082   6.181  12.663  0.00  0.00    +0.000 C 
ATOM     24  C   UNL     1      46.271   5.785  11.864  0.00  0.00    +0.000 C 
BRANCH  24  25
ATOM     25  C   UNL     1      45.325   5.280  10.860  0.00  0.00    +0.000 C 
BRANCH  25  26
ATOM     26  N   UNL     1      45.305   3.812  10.856  0.00  0.00    +0.000 NA
ATOM     27  C   UNL     1      45.101   3.265  12.201  0.00  0.00    +0.000 C 
ATOM     28  C   UNL     1      43.594   3.205  12.381  0.00  0.00    +0.000 C 
ATOM     29  O   UNL     1      43.031   3.220  11.066  0.00  0.00    +0.000 OA
ATOM     30  C   UNL     1      44.125   3.306  10.155  0.00  0.00    +0.000 C 
ENDBRANCH  25  26
ENDBRANCH  24  25
ENDBRANCH  20  23
ENDBRANCH  16  17
ENDBRANCH   3  16
TORSDOF 6
ENDMDL
MODEL 4
REMARK VINA RESULT:    -5.683      3.880     10.315
REMARK INTER + INTRA:          -8.725
REMARK INTER:                  -7.928
REMARK INTRA:                  -0.797
REMARK UNBOUND:                -1.049
REMARK  Name = 
REMARK  6 active torsions:
REMARK  status: ('A' for Active; 'I' for Inactive)
REMARK    1  A    between atoms: C_2  and  C_19
REMARK    2  A    between atoms: N_3  and  C_4
REMARK    3  A    between atoms: C_4  and  C_5
REMARK    4  A    between atoms: C_8  and  C_9
REMARK    5  A    between atoms: C_10  and  C_11
REMARK    6  A    between atoms: C_11  and  N_12
REMARK                            x       y       z     vdW  Elec       q    Type
REMARK                         _______ _______ _______ _____ _____    ______ ____
ROOT
ATOM      1  O   UNL     1      45.544   7.902  11.671  0.00  0.00    +0.000 OA
ATOM      2  C   UNL     1      46.204   6.893  11.452  0.00  0.00    +0.000 C 
ATOM      3  N   UNL     1      47.508   6.746  11.850  0.00  0.00    +0.000 N 
ATOM      4  H   UNL     1      48.049   5.962  11.506  0.00  0.00    +0.000 HD
ENDROOT
BRANCH   2   5
ATOM      5  C   UNL     1      45.621   5.722  10.791  0.00  0.00    +0.000 A 
ATOM      6  C   UNL     1      45.816   5.488   9.438  0.00  0.00    +0.000 A 
ATOM      7  S   UNL     1      45.031   4.078   8.876  0.00  0.00    +0.000 S 
ATOM      8  C   UNL     1      44.439   3.719  10.432  0.00  0.00    +0.000 A 
ATOM      9  N   UNL     1      43.684   2.613  10.664  0.00  0.00    +0.000 NA
ATOM     10  C   UNL     1      43.336   2.455  11.898  0.00  0.00    +0.000 A 
ATOM     11  N   UNL     1      43.670   3.303  12.920  0.00  0.00    +0.000 N 
ATOM     12  C   UNL     1      44.362   4.465  12.724  0.00  0.00    +0.000 A 
ATOM     13  O   UNL     1      44.505   5.269  13.640  0.00  0.00    +0.000 OA
ATOM     14  C   UNL     1      44.815   4.670  11.361  0.00  0.00    +0.000 A 
ATOM     15  H   UNL     1      43.332   3.147  13.860  0.00  0.00    +0.000 HD
ENDBRANCH   2   5
BRANCH   3  16
ATOM     16  C   UNL     1      48.263   7.803  12.470  0.00  0.00    +0.000 C 
BRANCH  16  17
ATOM     17  C   UNL     1      48.880   7.385  13.781  0.00  0.00    +0.000 A 
ATOM     18  C   UNL     1      48.152   6.555  14.644  0.00  0.00    +0.000 A 
ATOM     19  C   UNL     1      48.714   6.096  15.835  0.00  0.00    +0.000 A 
ATOM     20  C   UNL     1      50.015   6.453  16.179  0.00  0.00    +0.000 A 
ATOM     21  C   UNL     1      50.738   7.321  15.354  0.00  0.00    +0.000 A 
ATOM     22  C   UNL     1      50.171   7.790  14.162  0.00  0.00    +0.000 A 
BRANCH  20  23
ATOM     23  C   UNL     1      50.602   5.904  17.359  0.00  0.00    +0.000 C 
ATOM     24  C   UNL     1      51.129   5.473  18.354  0.00  0.00    +0.000 C 
BRANCH  24  25
ATOM     25  C   UNL     1      51.805   4.915  19.534  0.00  0.00    +0.000 C 
BRANCH  25  26
ATOM     26  N   UNL     1      52.738   3.851  19.144  0.00  0.00    +0.000 NA
ATOM     27  C   UNL     1      53.719   4.319  18.161  0.00  0.00    +0.000 C 
ATOM     28  C   UNL     1      54.855   4.906  18.982  0.00  0.00    +0.000 C 
ATOM     29  O   UNL     1      54.744   4.335  20.289  0.00  0.00    +0.000 OA
ATOM     30  C   UNL     1      53.603   3.478  20.263  0.00  0.00    +0.000 C 
ENDBRANCH  25  26
ENDBRANCH  24  25
ENDBRANCH  20  23
ENDBRANCH  16  17
ENDBRANCH   3  16
TORSDOF 6
ENDMDL
MODEL 5
REMARK VINA RESULT:    -5.526      4.460     10.557
REMARK INTER + INTRA:          -8.513
REMARK INTER:                  -7.743
REMARK INTRA:                  -0.771
REMARK UNBOUND:                -1.049
REMARK  Name = 
REMARK  6 active torsions:
REMARK  status: ('A' for Active; 'I' for Inactive)
REMARK    1  A    between atoms: C_2  and  C_19
REMARK    2  A    between atoms: N_3  and  C_4
REMARK    3  A    between atoms: C_4  and  C_5
REMARK    4  A    between atoms: C_8  and  C_9
REMARK    5  A    between atoms: C_10  and  C_11
REMARK    6  A    between atoms: C_11  and  N_12
REMARK                            x       y       z     vdW  Elec       q    Type
REMARK                         _______ _______ _______ _____ _____    ______ ____
ROOT
ATOM      1  O   UNL     1      44.660   7.570  11.691  0.00  0.00    +0.000 OA
ATOM      2  C   UNL     1      45.361   6.569  11.593  0.00  0.00    +0.000 C 
ATOM      3  N   UNL     1      46.728   6.594  11.709  0.00  0.00    +0.000 N 
ATOM      4  H   UNL     1      47.264   5.771  11.463  0.00  0.00    +0.000 HD
ENDROOT
BRANCH   2   5
ATOM      5  C   UNL     1      44.779   5.238  11.404  0.00  0.00    +0.000 A 
ATOM      6  C   UNL     1      44.011   4.641  12.392  0.00  0.00    +0.000 A 
ATOM      7  S   UNL     1      43.451   3.084  11.965  0.00  0.00    +0.000 S 
ATOM      8  C   UNL     1      44.188   3.178  10.433  0.00  0.00    +0.000 A 
ATOM      9  N   UNL     1      44.086   2.162   9.534  0.00  0.00    +0.000 NA
ATOM     10  C   UNL     1      44.668   2.390   8.404  0.00  0.00    +0.000 A 
ATOM     11  N   UNL     1      45.344   3.538   8.089  0.00  0.00    +0.000 N 
ATOM     12  C   UNL     1      45.538   4.555   8.983  0.00  0.00    +0.000 A 
ATOM     13  O   UNL     1      46.280   5.492   8.711  0.00  0.00    +0.000 OA
ATOM     14  C   UNL     1      44.868   4.367  10.257  0.00  0.00    +0.000 A 
ATOM     15  H   UNL     1      45.815   3.641   7.200  0.00  0.00    +0.000 HD
ENDBRANCH   2   5
BRANCH   3  16
ATOM     16  C   UNL     1      47.481   7.812  11.849  0.00  0.00    +0.000 C 
BRANCH  16  17
ATOM     17  C   UNL     1      48.518   7.732  12.943  0.00  0.00    +0.000 A 
ATOM     18  C   UNL     1      48.231   6.996  14.101  0.00  0.00    +0.000 A 
ATOM     19  C   UNL     1      49.188   6.846  15.104  0.00  0.00    +0.000 A 
ATOM     20  C   UNL     1      50.448   7.423  14.963  0.00  0.00    +0.000 A 
ATOM     21  C   UNL     1      50.733   8.201  13.838  0.00  0.00    +0.000 A 
ATOM     22  C   UNL     1      49.770   8.360  12.833  0.00  0.00    +0.000 A 
BRANCH  20  23
ATOM     23  C   UNL     1      51.441   7.186  15.962  0.00  0.00    +0.000 C 
ATOM     24  C   UNL     1      52.306   6.967  16.773  0.00  0.00    +0.000 C 
BRANCH  24  25
ATOM     25  C   UNL     1      53.338   6.650  17.770  0.00  0.00    +0.000 C 
BRANCH  25  26
ATOM     26  N   UNL     1      52.835   6.881  19.130  0.00  0.00    +0.000 NA
ATOM     27  C   UNL     1      51.459   6.402  19.292  0.00  0.00    +0.000 C 
ATOM     28  C   UNL     1      51.591   4.938  19.675  0.00  0.00    +0.000 C 
ATOM     29  O   UNL     1      52.916   4.773  20.188  0.00  0.00    +0.000 OA
ATOM     30  C   UNL     1      53.548   6.049  20.099  0.00  0.00    +0.000 C 
ENDBRANCH  25  26
ENDBRANCH  24  25
ENDBRANCH  20  23
ENDBRANCH  16  17
ENDBRANCH   3  16
TORSDOF 6
ENDMDL
MODEL 6
REMARK VINA RESULT:    -5.244      5.293     10.977
REMARK INTER + INTRA:          -8.132
REMARK INTER:                  -7.244
REMARK INTRA:                  -0.888
REMARK UNBOUND:                -1.049
REMARK  Name = 
REMARK  6 active torsions:
REMARK  status: ('A' for Active; 'I' for Inactive)
REMARK    1  A    between atoms: C_2  and  C_19
REMARK    2  A    between atoms: N_3  and  C_4
REMARK    3  A    between atoms: C_4  and  C_5
REMARK    4  A    between atoms: C_8  and  C_9
REMARK    5  A    between atoms: C_10  and  C_11
REMARK    6  A    between atoms: C_11  and  N_12
REMARK                            x       y       z     vdW  Elec       q    Type
REMARK                         _______ _______ _______ _____ _____    ______ ____
ROOT
ATOM      1  O   UNL     1      44.094   7.337  11.450  0.00  0.00    +0.000 OA
ATOM      2  C   UNL     1      44.911   6.423  11.466  0.00  0.00    +0.000 C 
ATOM      3  N   UNL     1      46.232   6.601  11.788  0.00  0.00    +0.000 N 
ATOM      4  H   UNL     1      46.889   5.847  11.632  0.00  0.00    +0.000 HD
ENDROOT
BRANCH   2   5
ATOM      5  C   UNL     1      44.518   5.037  11.198  0.00  0.00    +0.000 A 
ATOM      6  C   UNL     1      43.712   4.334  12.080  0.00  0.00    +0.000 A 
ATOM      7  S   UNL     1      43.397   2.731  11.578  0.00  0.00    +0.000 S 
ATOM      8  C   UNL     1      44.299   2.942  10.149  0.00  0.00    +0.000 A 
ATOM      9  N   UNL     1      44.430   1.940   9.239  0.00  0.00    +0.000 NA
ATOM     10  C   UNL     1      45.114   2.258   8.191  0.00  0.00    +0.000 A 
ATOM     11  N   UNL     1      45.683   3.484   7.969  0.00  0.00    +0.000 N 
ATOM     12  C   UNL     1      45.644   4.497   8.887  0.00  0.00    +0.000 A 
ATOM     13  O   UNL     1      46.296   5.521   8.713  0.00  0.00    +0.000 OA
ATOM     14  C   UNL     1      44.850   4.207  10.066  0.00  0.00    +0.000 A 
ATOM     15  H   UNL     1      46.244   3.659   7.146  0.00  0.00    +0.000 HD
ENDBRANCH   2   5
BRANCH   3  16
ATOM     16  C   UNL     1      46.812   7.894  12.035  0.00  0.00    +0.000 C 
BRANCH  16  17
ATOM     17  C   UNL     1      47.966   7.839  13.006  0.00  0.00    +0.000 A 
ATOM     18  C   UNL     1      47.965   6.861  14.010  0.00  0.00    +0.000 A 
ATOM     19  C   UNL     1      49.044   6.737  14.885  0.00  0.00    +0.000 A 
ATOM     20  C   UNL     1      50.143   7.585  14.767  0.00  0.00    +0.000 A 
ATOM     21  C   UNL     1      50.138   8.597  13.803  0.00  0.00    +0.000 A 
ATOM     22  C   UNL     1      49.051   8.728  12.929  0.00  0.00    +0.000 A 
BRANCH  20  23
ATOM     23  C   UNL     1      51.273   7.386  15.617  0.00  0.00    +0.000 C 
ATOM     24  C   UNL     1      52.203   7.187  16.357  0.00  0.00    +0.000 C 
BRANCH  24  25
ATOM     25  C   UNL     1      53.317   6.984  17.295  0.00  0.00    +0.000 C 
BRANCH  25  26
ATOM     26  N   UNL     1      54.542   7.616  16.792  0.00  0.00    +0.000 NA
ATOM     27  C   UNL     1      54.471   9.079  16.863  0.00  0.00    +0.000 C 
ATOM     28  C   UNL     1      54.956   9.433  18.258  0.00  0.00    +0.000 C 
ATOM     29  O   UNL     1      55.717   8.312  18.716  0.00  0.00    +0.000 OA
ATOM     30  C   UNL     1      55.675   7.338  17.675  0.00  0.00    +0.000 C 
ENDBRANCH  25  26
ENDBRANCH  24  25
ENDBRANCH  20  23
ENDBRANCH  16  17
ENDBRANCH   3  16
TORSDOF 6
ENDMDL
MODEL 7
REMARK VINA RESULT:    -5.096      3.790      5.178
REMARK INTER + INTRA:          -7.932
REMARK INTER:                  -6.791
REMARK INTRA:                  -1.141
REMARK UNBOUND:                -1.049
REMARK  Name = 
REMARK  6 active torsions:
REMARK  status: ('A' for Active; 'I' for Inactive)
REMARK    1  A    between atoms: C_2  and  C_19
REMARK    2  A    between atoms: N_3  and  C_4
REMARK    3  A    between atoms: C_4  and  C_5
REMARK    4  A    between atoms: C_8  and  C_9
REMARK    5  A    between atoms: C_10  and  C_11
REMARK    6  A    between atoms: C_11  and  N_12
REMARK                            x       y       z     vdW  Elec       q    Type
REMARK                         _______ _______ _______ _____ _____    ______ ____
ROOT
ATOM      1  O   UNL     1      49.950  10.142  16.620  0.00  0.00    +0.000 OA
ATOM      2  C   UNL     1      50.862   9.352  16.400  0.00  0.00    +0.000 C 
ATOM      3  N   UNL     1      51.440   9.196  15.167  0.00  0.00    +0.000 N 
ATOM      4  H   UNL     1      52.075   8.423  15.008  0.00  0.00    +0.000 HD
ENDROOT
BRANCH   2   5
ATOM      5  C   UNL     1      51.454   8.546  17.471  0.00  0.00    +0.000 A 
ATOM      6  C   UNL     1      52.198   9.131  18.485  0.00  0.00    +0.000 A 
ATOM      7  S   UNL     1      52.808   8.001  19.613  0.00  0.00    +0.000 S 
ATOM      8  C   UNL     1      52.067   6.702  18.799  0.00  0.00    +0.000 A 
ATOM      9  N   UNL     1      52.180   5.425  19.252  0.00  0.00    +0.000 NA
ATOM     10  C   UNL     1      51.536   4.552  18.550  0.00  0.00    +0.000 A 
ATOM     11  N   UNL     1      50.794   4.837  17.436  0.00  0.00    +0.000 N 
ATOM     12  C   UNL     1      50.712   6.092  16.899  0.00  0.00    +0.000 A 
ATOM     13  O   UNL     1      50.165   6.272  15.816  0.00  0.00    +0.000 OA
ATOM     14  C   UNL     1      51.383   7.119  17.673  0.00  0.00    +0.000 A 
ATOM     15  H   UNL     1      50.346   4.102  16.904  0.00  0.00    +0.000 HD
ENDBRANCH   2   5
BRANCH   3  16
ATOM     16  C   UNL     1      50.963   9.865  13.986  0.00  0.00    +0.000 C 
BRANCH  16  17
ATOM     17  C   UNL     1      49.851   9.112  13.299  0.00  0.00    +0.000 A 
ATOM     18  C   UNL     1      50.143   7.901  12.656  0.00  0.00    +0.000 A 
ATOM     19  C   UNL     1      49.130   7.145  12.067  0.00  0.00    +0.000 A 
ATOM     20  C   UNL     1      47.809   7.583  12.116  0.00  0.00    +0.000 A 
ATOM     21  C   UNL     1      47.507   8.812  12.710  0.00  0.00    +0.000 A 
ATOM     22  C   UNL     1      48.525   9.577  13.295  0.00  0.00    +0.000 A 
BRANCH  20  23
ATOM     23  C   UNL     1      46.776   6.753  11.582  0.00  0.00    +0.000 C 
ATOM     24  C   UNL     1      45.932   6.043  11.096  0.00  0.00    +0.000 C 
BRANCH  24  25
ATOM     25  C   UNL     1      44.883   5.222  10.475  0.00  0.00    +0.000 C 
BRANCH  25  26
ATOM     26  N   UNL     1      45.147   3.794  10.687  0.00  0.00    +0.000 NA
ATOM     27  C   UNL     1      45.161   3.447  12.111  0.00  0.00    +0.000 C 
ATOM     28  C   UNL     1      43.714   3.151  12.463  0.00  0.00    +0.000 C 
ATOM     29  O   UNL     1      43.053   2.850  11.230  0.00  0.00    +0.000 OA
ATOM     30  C   UNL     1      44.033   2.979  10.201  0.00  0.00    +0.000 C 
ENDBRANCH  25  26
ENDBRANCH  24  25
ENDBRANCH  20  23
ENDBRANCH  16  17
ENDBRANCH   3  16
TORSDOF 6
ENDMDL
MODEL 8
REMARK VINA RESULT:    -5.088      4.618      9.769
REMARK INTER + INTRA:          -7.922
REMARK INTER:                  -8.092
REMARK INTRA:                   0.171
REMARK UNBOUND:                -1.049
REMARK  Name = 
REMARK  6 active torsions:
REMARK  status: ('A' for Active; 'I' for Inactive)
REMARK    1  A    between atoms: C_2  and  C_19
REMARK    2  A    between atoms: N_3  and  C_4
REMARK    3  A    between atoms: C_4  and  C_5
REMARK    4  A    between atoms: C_8  and  C_9
REMARK    5  A    between atoms: C_10  and  C_11
REMARK    6  A    between atoms: C_11  and  N_12
REMARK                            x       y       z     vdW  Elec       q    Type
REMARK                         _______ _______ _______ _____ _____    ______ ____
ROOT
ATOM      1  O   UNL     1      45.342   7.719  12.114  0.00  0.00    +0.000 OA
ATOM      2  C   UNL     1      46.084   6.939  11.528  0.00  0.00    +0.000 C 
ATOM      3  N   UNL     1      47.450   7.062  11.522  0.00  0.00    +0.000 N 
ATOM      4  H   UNL     1      48.000   6.486  10.896  0.00  0.00    +0.000 HD
ENDROOT
BRANCH   2   5
ATOM      5  C   UNL     1      45.564   5.760  10.829  0.00  0.00    +0.000 A 
ATOM      6  C   UNL     1      45.812   5.557   9.480  0.00  0.00    +0.000 A 
ATOM      7  S   UNL     1      45.094   4.130   8.870  0.00  0.00    +0.000 S 
ATOM      8  C   UNL     1      44.463   3.726  10.399  0.00  0.00    +0.000 A 
ATOM      9  N   UNL     1      43.738   2.591  10.588  0.00  0.00    +0.000 NA
ATOM     10  C   UNL     1      43.354   2.402  11.807  0.00  0.00    +0.000 A 
ATOM     11  N   UNL     1      43.625   3.242  12.853  0.00  0.00    +0.000 N 
ATOM     12  C   UNL     1      44.284   4.431  12.699  0.00  0.00    +0.000 A 
ATOM     13  O   UNL     1      44.369   5.223  13.631  0.00  0.00    +0.000 OA
ATOM     14  C   UNL     1      44.775   4.673  11.355  0.00  0.00    +0.000 A 
ATOM     15  H   UNL     1      43.261   3.060  13.778  0.00  0.00    +0.000 HD
ENDBRANCH   2   5
BRANCH   3  16
ATOM     16  C   UNL     1      48.140   8.178  12.113  0.00  0.00    +0.000 C 
BRANCH  16  17
ATOM     17  C   UNL     1      48.412   7.982  13.584  0.00  0.00    +0.000 A 
ATOM     18  C   UNL     1      48.371   9.092  14.438  0.00  0.00    +0.000 A 
ATOM     19  C   UNL     1      48.553   8.940  15.813  0.00  0.00    +0.000 A 
ATOM     20  C   UNL     1      48.773   7.676  16.355  0.00  0.00    +0.000 A 
ATOM     21  C   UNL     1      48.867   6.565  15.511  0.00  0.00    +0.000 A 
ATOM     22  C   UNL     1      48.693   6.718  14.130  0.00  0.00    +0.000 A 
BRANCH  20  23
ATOM     23  C   UNL     1      48.872   7.531  17.773  0.00  0.00    +0.000 C 
ATOM     24  C   UNL     1      48.970   7.367  18.962  0.00  0.00    +0.000 C 
BRANCH  24  25
ATOM     25  C   UNL     1      49.037   7.146  20.414  0.00  0.00    +0.000 C 
BRANCH  25  26
ATOM     26  N   UNL     1      49.881   5.987  20.725  0.00  0.00    +0.000 NA
ATOM     27  C   UNL     1      49.085   4.827  21.138  0.00  0.00    +0.000 C 
ATOM     28  C   UNL     1      48.721   4.114  19.847  0.00  0.00    +0.000 C 
ATOM     29  O   UNL     1      49.669   4.548  18.867  0.00  0.00    +0.000 OA
ATOM     30  C   UNL     1      50.534   5.476  19.519  0.00  0.00    +0.000 C 
ENDBRANCH  25  26
ENDBRANCH  24  25
ENDBRANCH  20  23
ENDBRANCH  16  17
ENDBRANCH   3  16
TORSDOF 6
ENDMDL
MODEL 9
REMARK VINA RESULT:    -4.759     10.516     13.844
REMARK INTER + INTRA:          -7.477
REMARK INTER:                  -6.754
REMARK INTRA:                  -0.723
REMARK UNBOUND:                -1.049
REMARK  Name = 
REMARK  6 active torsions:
REMARK  status: ('A' for Active; 'I' for Inactive)
REMARK    1  A    between atoms: C_2  and  C_19
REMARK    2  A    between atoms: N_3  and  C_4
REMARK    3  A    between atoms: C_4  and  C_5
REMARK    4  A    between atoms: C_8  and  C_9
REMARK    5  A    between atoms: C_10  and  C_11
REMARK    6  A    between atoms: C_11  and  N_12
REMARK                            x       y       z     vdW  Elec       q    Type
REMARK                         _______ _______ _______ _____ _____    ______ ____
ROOT
ATOM      1  O   UNL     1      37.443  -1.357  16.774  0.00  0.00    +0.000 OA
ATOM      2  C   UNL     1      38.488  -0.803  17.096  0.00  0.00    +0.000 C 
ATOM      3  N   UNL     1      39.686  -1.035  16.470  0.00  0.00    +0.000 N 
ATOM      4  H   UNL     1      40.540  -0.672  16.877  0.00  0.00    +0.000 HD
ENDROOT
BRANCH   2   5
ATOM      5  C   UNL     1      38.526   0.213  18.152  0.00  0.00    +0.000 A 
ATOM      6  C   UNL     1      38.842  -0.120  19.460  0.00  0.00    +0.000 A 
ATOM      7  S   UNL     1      38.807   1.216  20.525  0.00  0.00    +0.000 S 
ATOM      8  C   UNL     1      38.405   2.284  19.262  0.00  0.00    +0.000 A 
ATOM      9  N   UNL     1      38.236   3.615  19.486  0.00  0.00    +0.000 NA
ATOM     10  C   UNL     1      37.966   4.304  18.427  0.00  0.00    +0.000 A 
ATOM     11  N   UNL     1      37.847   3.785  17.165  0.00  0.00    +0.000 N 
ATOM     12  C   UNL     1      37.933   2.446  16.901  0.00  0.00    +0.000 A 
ATOM     13  O   UNL     1      37.667   2.011  15.786  0.00  0.00    +0.000 OA
ATOM     14  C   UNL     1      38.278   1.631  18.051  0.00  0.00    +0.000 A 
ATOM     15  H   UNL     1      37.593   4.371  16.381  0.00  0.00    +0.000 HD
ENDBRANCH   2   5
BRANCH   3  16
ATOM     16  C   UNL     1      39.856  -2.030  15.445  0.00  0.00    +0.000 C 
BRANCH  16  17
ATOM     17  C   UNL     1      40.773  -3.151  15.869  0.00  0.00    +0.000 A 
ATOM     18  C   UNL     1      41.012  -4.208  14.980  0.00  0.00    +0.000 A 
ATOM     19  C   UNL     1      41.904  -5.229  15.311  0.00  0.00    +0.000 A 
ATOM     20  C   UNL     1      42.574  -5.206  16.532  0.00  0.00    +0.000 A 
ATOM     21  C   UNL     1      42.308  -4.186  17.450  0.00  0.00    +0.000 A 
ATOM     22  C   UNL     1      41.407  -3.165  17.122  0.00  0.00    +0.000 A 
BRANCH  20  23
ATOM     23  C   UNL     1      43.545  -6.214  16.815  0.00  0.00    +0.000 C 
ATOM     24  C   UNL     1      44.380  -7.061  17.012  0.00  0.00    +0.000 C 
BRANCH  24  25
ATOM     25  C   UNL     1      45.362  -8.132  17.233  0.00  0.00    +0.000 C 
BRANCH  25  26
ATOM     26  N   UNL     1      46.615  -7.587  17.767  0.00  0.00    +0.000 NA
ATOM     27  C   UNL     1      47.737  -8.511  17.577  0.00  0.00    +0.000 C 
ATOM     28  C   UNL     1      48.282  -8.197  16.195  0.00  0.00    +0.000 C 
ATOM     29  O   UNL     1      47.837  -6.874  15.878  0.00  0.00    +0.000 OA
ATOM     30  C   UNL     1      47.057  -6.431  16.987  0.00  0.00    +0.000 C 
ENDBRANCH  25  26
ENDBRANCH  24  25
ENDBRANCH  20  23
ENDBRANCH  16  17
ENDBRANCH   3  16
TORSDOF 6
ENDMDL
