MODEL 1
REMARK VINA RESULT:    -7.024      0.000      0.000
REMARK INTER + INTRA:         -10.969
REMARK INTER:                  -9.898
REMARK INTRA:                  -1.071
REMARK UNBOUND:                -1.071
REMARK  Name = 
REMARK  9 active torsions:
REMARK  status: ('A' for Active; 'I' for Inactive)
REMARK    1  A    between atoms: C_1  and  O_2
REMARK    2  A    between atoms: O_2  and  C_3
REMARK    3  A    between atoms: C_10  and  C_11
REMARK    4  A    between atoms: N_13  and  C_14
REMARK    5  A    between atoms: C_14  and  C_15
REMARK    6  A    between atoms: C_18  and  N_19
REMARK    7  A    between atoms: N_19  and  C_20
REMARK    8  A    between atoms: C_20  and  C_21
REMARK    9  A    between atoms: N_24  and  C_25
REMARK                            x       y       z     vdW  Elec       q    Type
REMARK                         _______ _______ _______ _____ _____    ______ ____
ROOT
ATOM      1  C   UNL     1      48.886   7.335  15.021  0.00  0.00    +0.000 C 
ENDROOT
BRANCH   1   2
ATOM      2  C   UNL     1      47.816   6.609  14.258  0.00  0.00    +0.000 A 
ATOM      3  C   UNL     1      47.113   7.237  13.224  0.00  0.00    +0.000 A 
ATOM      4  C   UNL     1      46.172   6.526  12.470  0.00  0.00    +0.000 A 
ATOM      5  C   UNL     1      45.906   5.179  12.715  0.00  0.00    +0.000 A 
ATOM      6  C   UNL     1      46.549   4.588  13.812  0.00  0.00    +0.000 A 
ATOM      7  C   UNL     1      47.496   5.284  14.574  0.00  0.00    +0.000 A 
BRANCH   5   8
ATOM      8  N   UNL     1      44.985   4.410  12.015  0.00  0.00    +0.000 N 
ATOM      9  H   UNL     1      44.090   4.350  12.491  0.00  0.00    +0.000 HD
BRANCH   8  10
ATOM     10  C   UNL     1      45.314   3.231  11.210  0.00  0.00    +0.000 C 
BRANCH  10  11
ATOM     11  C   UNL     1      44.304   3.072  10.060  0.00  0.00    +0.000 C 
ATOM     12  C   UNL     1      44.559   1.813   9.215  0.00  0.00    +0.000 C 
ATOM     13  C   UNL     1      45.805   1.914   8.318  0.00  0.00    +0.000 C 
ATOM     14  N   UNL     1      45.978   3.182   7.609  0.00  0.00    +0.000 NA
ATOM     15  C   UNL     1      47.358   3.304   7.114  0.00  0.00    +0.000 C 
ATOM     16  C   UNL     1      45.610   4.395   8.348  0.00  0.00    +0.000 C 
ATOM     17  C   UNL     1      44.291   4.268   9.104  0.00  0.00    +0.000 C 
ENDBRANCH  10  11
ENDBRANCH   8  10
ENDBRANCH   5   8
ENDBRANCH   1   2
BRANCH   1  20
ATOM     18  C   UNL     1      49.847   6.064  16.909  0.00  0.00    +0.000 C 
ATOM     19  O   UNL     1      48.974   6.442  17.692  0.00  0.00    +0.000 OA
ATOM     20  N   UNL     1      49.845   6.433  15.596  0.00  0.00    +0.000 N 
ATOM     21  H   UNL     1      50.638   6.196  15.019  0.00  0.00    +0.000 HD
BRANCH  18  29
ATOM     22  C   UNL     1      50.180   2.638  17.009  0.00  0.00    +0.000 A 
ATOM     23  N   UNL     1      50.567   1.357  17.162  0.00  0.00    +0.000 NA
ATOM     24  C   UNL     1      51.779   1.124  17.683  0.00  0.00    +0.000 A 
ATOM     25  N   UNL     1      52.664   2.033  18.077  0.00  0.00    +0.000 NA
ATOM     26  C   UNL     1      52.243   3.296  17.899  0.00  0.00    +0.000 A 
ATOM     27  S   UNL     1      53.255   4.586  18.338  0.00  0.00    +0.000 S 
ATOM     28  C   UNL     1      52.099   5.728  17.843  0.00  0.00    +0.000 A 
ATOM     29  C   UNL     1      50.929   5.165  17.346  0.00  0.00    +0.000 A 
ATOM     30  C   UNL     1      51.022   3.705  17.371  0.00  0.00    +0.000 A 
BRANCH  22  32
ATOM     31  C   UNL     1      47.888   2.885  17.390  0.00  0.00    +0.000 C 
ATOM     32  O   UNL     1      48.946   2.870  16.433  0.00  0.00    +0.000 OA
ENDBRANCH  22  32
ENDBRANCH  18  29
ENDBRANCH   1  20
TORSDOF 7
ENDMDL
MODEL 2
REMARK VINA RESULT:    -6.937      2.406      2.792
REMARK INTER + INTRA:         -10.847
REMARK INTER:                  -9.803
REMARK INTRA:                  -1.044
REMARK UNBOUND:                -1.071
REMARK  Name = 
REMARK  9 active torsions:
REMARK  status: ('A' for Active; 'I' for Inactive)
REMARK    1  A    between atoms: C_1  and  O_2
REMARK    2  A    between atoms: O_2  and  C_3
REMARK    3  A    between atoms: C_10  and  C_11
REMARK    4  A    between atoms: N_13  and  C_14
REMARK    5  A    between atoms: C_14  and  C_15
REMARK    6  A    between atoms: C_18  and  N_19
REMARK    7  A    between atoms: N_19  and  C_20
REMARK    8  A    between atoms: C_20  and  C_21
REMARK    9  A    between atoms: N_24  and  C_25
REMARK                            x       y       z     vdW  Elec       q    Type
REMARK                         _______ _______ _______ _____ _____    ______ ____
ROOT
ATOM      1  C   UNL     1      47.248   8.997  13.780  0.00  0.00    +0.000 C 
ENDROOT
BRANCH   1   2
ATOM      2  C   UNL     1      46.551   7.994  12.905  0.00  0.00    +0.000 A 
ATOM      3  C   UNL     1      45.297   8.267  12.350  0.00  0.00    +0.000 A 
ATOM      4  C   UNL     1      44.693   7.356  11.476  0.00  0.00    +0.000 A 
ATOM      5  C   UNL     1      45.315   6.157  11.125  0.00  0.00    +0.000 A 
ATOM      6  C   UNL     1      46.528   5.855  11.760  0.00  0.00    +0.000 A 
ATOM      7  C   UNL     1      47.147   6.758  12.634  0.00  0.00    +0.000 A 
BRANCH   5   8
ATOM      8  N   UNL     1      44.778   5.203  10.270  0.00  0.00    +0.000 N 
ATOM      9  H   UNL     1      43.775   5.312  10.151  0.00  0.00    +0.000 HD
BRANCH   8  10
ATOM     10  C   UNL     1      45.248   3.821  10.152  0.00  0.00    +0.000 C 
BRANCH  10  11
ATOM     11  C   UNL     1      44.462   3.082   9.054  0.00  0.00    +0.000 C 
ATOM     12  C   UNL     1      44.873   1.607   8.918  0.00  0.00    +0.000 C 
ATOM     13  C   UNL     1      46.260   1.410   8.281  0.00  0.00    +0.000 C 
ATOM     14  N   UNL     1      46.549   2.244   7.114  0.00  0.00    +0.000 NA
ATOM     15  C   UNL     1      47.995   2.254   6.842  0.00  0.00    +0.000 C 
ATOM     16  C   UNL     1      46.046   3.622   7.160  0.00  0.00    +0.000 C 
ATOM     17  C   UNL     1      44.614   3.727   7.673  0.00  0.00    +0.000 C 
ENDBRANCH  10  11
ENDBRANCH   8  10
ENDBRANCH   5   8
ENDBRANCH   1   2
BRANCH   1  20
ATOM     18  C   UNL     1      48.868   8.142  15.437  0.00  0.00    +0.000 C 
ATOM     19  O   UNL     1      49.834   8.376  14.709  0.00  0.00    +0.000 OA
ATOM     20  N   UNL     1      47.593   8.448  15.061  0.00  0.00    +0.000 N 
ATOM     21  H   UNL     1      46.825   8.136  15.636  0.00  0.00    +0.000 HD
BRANCH  18  29
ATOM     22  C   UNL     1      48.396   4.966  16.683  0.00  0.00    +0.000 A 
ATOM     23  N   UNL     1      48.292   3.843  17.419  0.00  0.00    +0.000 NA
ATOM     24  C   UNL     1      48.599   3.914  18.721  0.00  0.00    +0.000 A 
ATOM     25  N   UNL     1      49.001   4.991  19.387  0.00  0.00    +0.000 NA
ATOM     26  C   UNL     1      49.100   6.086  18.615  0.00  0.00    +0.000 A 
ATOM     27  S   UNL     1      49.613   7.551  19.302  0.00  0.00    +0.000 S 
ATOM     28  C   UNL     1      49.480   8.355  17.811  0.00  0.00    +0.000 A 
ATOM     29  C   UNL     1      49.043   7.542  16.771  0.00  0.00    +0.000 A 
ATOM     30  C   UNL     1      48.824   6.179  17.254  0.00  0.00    +0.000 A 
BRANCH  22  32
ATOM     31  C   UNL     1      46.979   4.061  15.061  0.00  0.00    +0.000 C 
ATOM     32  O   UNL     1      48.118   4.875  15.333  0.00  0.00    +0.000 OA
ENDBRANCH  22  32
ENDBRANCH  18  29
ENDBRANCH   1  20
TORSDOF 7
ENDMDL
MODEL 3
REMARK VINA RESULT:    -6.929      3.243      9.601
REMARK INTER + INTRA:         -10.835
REMARK INTER:                  -9.832
REMARK INTRA:                  -1.003
REMARK UNBOUND:                -1.071
REMARK  Name = 
REMARK  9 active torsions:
REMARK  status: ('A' for Active; 'I' for Inactive)
REMARK    1  A    between atoms: C_1  and  O_2
REMARK    2  A    between atoms: O_2  and  C_3
REMARK    3  A    between atoms: C_10  and  C_11
REMARK    4  A    between atoms: N_13  and  C_14
REMARK    5  A    between atoms: C_14  and  C_15
REMARK    6  A    between atoms: C_18  and  N_19
REMARK    7  A    between atoms: N_19  and  C_20
REMARK    8  A    between atoms: C_20  and  C_21
REMARK    9  A    between atoms: N_24  and  C_25
REMARK                            x       y       z     vdW  Elec       q    Type
REMARK                         _______ _______ _______ _____ _____    ______ ____
ROOT
ATOM      1  C   UNL     1      47.247   3.376  16.818  0.00  0.00    +0.000 C 
ENDROOT
BRANCH   1   2
ATOM      2  C   UNL     1      48.723   3.445  17.089  0.00  0.00    +0.000 A 
ATOM      3  C   UNL     1      49.349   4.661  17.383  0.00  0.00    +0.000 A 
ATOM      4  C   UNL     1      50.709   4.700  17.708  0.00  0.00    +0.000 A 
ATOM      5  C   UNL     1      51.484   3.541  17.755  0.00  0.00    +0.000 A 
ATOM      6  C   UNL     1      50.866   2.343  17.369  0.00  0.00    +0.000 A 
ATOM      7  C   UNL     1      49.505   2.286  17.045  0.00  0.00    +0.000 A 
BRANCH   5   8
ATOM      8  N   UNL     1      52.837   3.500  18.064  0.00  0.00    +0.000 N 
ATOM      9  H   UNL     1      53.415   3.880  17.319  0.00  0.00    +0.000 HD
BRANCH   8  10
ATOM     10  C   UNL     1      53.489   2.450  18.851  0.00  0.00    +0.000 C 
BRANCH  10  11
ATOM     11  C   UNL     1      54.850   2.086  18.231  0.00  0.00    +0.000 C 
ATOM     12  C   UNL     1      54.716   1.209  16.975  0.00  0.00    +0.000 C 
ATOM     13  C   UNL     1      54.286  -0.237  17.276  0.00  0.00    +0.000 C 
ATOM     14  N   UNL     1      54.954  -0.876  18.410  0.00  0.00    +0.000 NA
ATOM     15  C   UNL     1      54.207  -2.071  18.833  0.00  0.00    +0.000 C 
ATOM     16  C   UNL     1      55.219  -0.023  19.574  0.00  0.00    +0.000 C 
ATOM     17  C   UNL     1      55.773   1.349  19.206  0.00  0.00    +0.000 C 
ENDBRANCH  10  11
ENDBRANCH   8  10
ENDBRANCH   5   8
ENDBRANCH   1   2
BRANCH   1  20
ATOM     18  C   UNL     1      46.864   4.220  14.529  0.00  0.00    +0.000 C 
ATOM     19  O   UNL     1      47.218   3.160  14.010  0.00  0.00    +0.000 OA
ATOM     20  N   UNL     1      46.823   4.380  15.883  0.00  0.00    +0.000 N 
ATOM     21  H   UNL     1      46.637   5.296  16.262  0.00  0.00    +0.000 HD
BRANCH  18  29
ATOM     22  C   UNL     1      44.097   4.821  12.569  0.00  0.00    +0.000 A 
ATOM     23  N   UNL     1      43.145   5.307  11.749  0.00  0.00    +0.000 NA
ATOM     24  C   UNL     1      43.323   6.530  11.233  0.00  0.00    +0.000 A 
ATOM     25  N   UNL     1      44.357   7.338  11.439  0.00  0.00    +0.000 NA
ATOM     26  C   UNL     1      45.278   6.820  12.268  0.00  0.00    +0.000 A 
ATOM     27  S   UNL     1      46.662   7.724  12.652  0.00  0.00    +0.000 S 
ATOM     28  C   UNL     1      47.258   6.485  13.651  0.00  0.00    +0.000 A 
ATOM     29  C   UNL     1      46.433   5.367  13.710  0.00  0.00    +0.000 A 
ATOM     30  C   UNL     1      45.242   5.574  12.887  0.00  0.00    +0.000 A 
BRANCH  22  32
ATOM     31  C   UNL     1      43.439   2.614  12.176  0.00  0.00    +0.000 C 
ATOM     32  O   UNL     1      43.885   3.577  13.129  0.00  0.00    +0.000 OA
ENDBRANCH  22  32
ENDBRANCH  18  29
ENDBRANCH   1  20
TORSDOF 7
ENDMDL
MODEL 4
REMARK VINA RESULT:    -6.691      3.252      9.802
REMARK INTER + INTRA:         -10.500
REMARK INTER:                  -9.377
REMARK INTRA:                  -1.123
REMARK UNBOUND:                -1.071
REMARK  Name = 
REMARK  9 active torsions:
REMARK  status: ('A' for Active; 'I' for Inactive)
REMARK    1  A    between atoms: C_1  and  O_2
REMARK    2  A    between atoms: O_2  and  C_3
REMARK    3  A    between atoms: C_10  and  C_11
REMARK    4  A    between atoms: N_13  and  C_14
REMARK    5  A    between atoms: C_14  and  C_15
REMARK    6  A    between atoms: C_18  and  N_19
REMARK    7  A    between atoms: N_19  and  C_20
REMARK    8  A    between atoms: C_20  and  C_21
REMARK    9  A    between atoms: N_24  and  C_25
REMARK                            x       y       z     vdW  Elec       q    Type
REMARK                         _______ _______ _______ _____ _____    ______ ____
ROOT
ATOM      1  C   UNL     1      47.157   3.446  16.857  0.00  0.00    +0.000 C 
ENDROOT
BRANCH   1   2
ATOM      2  C   UNL     1      48.637   3.326  17.087  0.00  0.00    +0.000 A 
ATOM      3  C   UNL     1      49.385   4.407  17.564  0.00  0.00    +0.000 A 
ATOM      4  C   UNL     1      50.748   4.260  17.846  0.00  0.00    +0.000 A 
ATOM      5  C   UNL     1      51.403   3.040  17.669  0.00  0.00    +0.000 A 
ATOM      6  C   UNL     1      50.664   1.992  17.105  0.00  0.00    +0.000 A 
ATOM      7  C   UNL     1      49.298   2.122  16.820  0.00  0.00    +0.000 A 
BRANCH   5   8
ATOM      8  N   UNL     1      52.751   2.818  17.923  0.00  0.00    +0.000 N 
ATOM      9  H   UNL     1      52.902   2.031  18.547  0.00  0.00    +0.000 HD
BRANCH   8  10
ATOM     10  C   UNL     1      53.771   3.864  18.022  0.00  0.00    +0.000 C 
BRANCH  10  11
ATOM     11  C   UNL     1      54.505   3.767  19.371  0.00  0.00    +0.000 C 
ATOM     12  C   UNL     1      53.542   3.663  20.566  0.00  0.00    +0.000 C 
ATOM     13  C   UNL     1      52.805   4.977  20.880  0.00  0.00    +0.000 C 
ATOM     14  N   UNL     1      53.625   6.189  20.847  0.00  0.00    +0.000 NA
ATOM     15  C   UNL     1      52.766   7.382  20.774  0.00  0.00    +0.000 C 
ATOM     16  C   UNL     1      54.648   6.255  19.797  0.00  0.00    +0.000 C 
ATOM     17  C   UNL     1      55.433   4.957  19.635  0.00  0.00    +0.000 C 
ENDBRANCH  10  11
ENDBRANCH   8  10
ENDBRANCH   5   8
ENDBRANCH   1   2
BRANCH   1  20
ATOM     18  C   UNL     1      46.915   4.224  14.525  0.00  0.00    +0.000 C 
ATOM     19  O   UNL     1      47.200   3.120  14.059  0.00  0.00    +0.000 OA
ATOM     20  N   UNL     1      46.844   4.441  15.870  0.00  0.00    +0.000 N 
ATOM     21  H   UNL     1      46.720   5.383  16.208  0.00  0.00    +0.000 HD
BRANCH  18  29
ATOM     22  C   UNL     1      44.145   5.102  12.678  0.00  0.00    +0.000 A 
ATOM     23  N   UNL     1      43.222   5.670  11.877  0.00  0.00    +0.000 NA
ATOM     24  C   UNL     1      43.542   6.817  11.265  0.00  0.00    +0.000 A 
ATOM     25  N   UNL     1      44.693   7.475  11.355  0.00  0.00    +0.000 NA
ATOM     26  C   UNL     1      45.581   6.880  12.169  0.00  0.00    +0.000 A 
ATOM     27  S   UNL     1      47.103   7.591  12.412  0.00  0.00    +0.000 S 
ATOM     28  C   UNL     1      47.575   6.344  13.465  0.00  0.00    +0.000 A 
ATOM     29  C   UNL     1      46.604   5.367  13.650  0.00  0.00    +0.000 A 
ATOM     30  C   UNL     1      45.404   5.695  12.879  0.00  0.00    +0.000 A 
BRANCH  22  32
ATOM     31  C   UNL     1      43.676   2.824  12.460  0.00  0.00    +0.000 C 
ATOM     32  O   UNL     1      43.792   3.942  13.338  0.00  0.00    +0.000 OA
ENDBRANCH  22  32
ENDBRANCH  18  29
ENDBRANCH   1  20
TORSDOF 7
ENDMDL
MODEL 5
REMARK VINA RESULT:    -6.563      2.310      4.220
REMARK INTER + INTRA:         -10.319
REMARK INTER:                  -9.010
REMARK INTRA:                  -1.309
REMARK UNBOUND:                -1.071
REMARK  Name = 
REMARK  9 active torsions:
REMARK  status: ('A' for Active; 'I' for Inactive)
REMARK    1  A    between atoms: C_1  and  O_2
REMARK    2  A    between atoms: O_2  and  C_3
REMARK    3  A    between atoms: C_10  and  C_11
REMARK    4  A    between atoms: N_13  and  C_14
REMARK    5  A    between atoms: C_14  and  C_15
REMARK    6  A    between atoms: C_18  and  N_19
REMARK    7  A    between atoms: N_19  and  C_20
REMARK    8  A    between atoms: C_20  and  C_21
REMARK    9  A    between atoms: N_24  and  C_25
REMARK                            x       y       z     vdW  Elec       q    Type
REMARK                         _______ _______ _______ _____ _____    ______ ____
ROOT
ATOM      1  C   UNL     1      48.587   3.187  18.237  0.00  0.00    +0.000 C 
ENDROOT
BRANCH   1   2
ATOM      2  C   UNL     1      48.224   4.096  17.098  0.00  0.00    +0.000 A 
ATOM      3  C   UNL     1      48.785   5.372  16.985  0.00  0.00    +0.000 A 
ATOM      4  C   UNL     1      48.497   6.180  15.878  0.00  0.00    +0.000 A 
ATOM      5  C   UNL     1      47.653   5.745  14.856  0.00  0.00    +0.000 A 
ATOM      6  C   UNL     1      47.026   4.502  15.028  0.00  0.00    +0.000 A 
ATOM      7  C   UNL     1      47.307   3.681  16.127  0.00  0.00    +0.000 A 
BRANCH   5   8
ATOM      8  N   UNL     1      47.317   6.488  13.732  0.00  0.00    +0.000 N 
ATOM      9  H   UNL     1      46.739   7.293  13.959  0.00  0.00    +0.000 HD
BRANCH   8  10
ATOM     10  C   UNL     1      47.071   5.933  12.399  0.00  0.00    +0.000 C 
BRANCH  10  11
ATOM     11  C   UNL     1      45.831   6.590  11.767  0.00  0.00    +0.000 C 
ATOM     12  C   UNL     1      44.622   6.612  12.716  0.00  0.00    +0.000 C 
ATOM     13  C   UNL     1      43.978   5.231  12.928  0.00  0.00    +0.000 C 
ATOM     14  N   UNL     1      43.807   4.418  11.724  0.00  0.00    +0.000 NA
ATOM     15  C   UNL     1      43.558   3.014  12.089  0.00  0.00    +0.000 C 
ATOM     16  C   UNL     1      44.888   4.485  10.734  0.00  0.00    +0.000 C 
ATOM     17  C   UNL     1      45.383   5.904  10.473  0.00  0.00    +0.000 C 
ENDBRANCH  10  11
ENDBRANCH   8  10
ENDBRANCH   5   8
ENDBRANCH   1   2
BRANCH   1  20
ATOM     18  C   UNL     1      50.669   2.160  17.393  0.00  0.00    +0.000 C 
ATOM     19  O   UNL     1      50.105   1.668  16.414  0.00  0.00    +0.000 OA
ATOM     20  N   UNL     1      49.999   2.932  18.296  0.00  0.00    +0.000 N 
ATOM     21  H   UNL     1      50.471   3.219  19.140  0.00  0.00    +0.000 HD
BRANCH  18  29
ATOM     22  C   UNL     1      53.324   4.324  17.740  0.00  0.00    +0.000 A 
ATOM     23  N   UNL     1      54.517   4.930  17.899  0.00  0.00    +0.000 NA
ATOM     24  C   UNL     1      55.597   4.156  18.072  0.00  0.00    +0.000 A 
ATOM     25  N   UNL     1      55.629   2.828  18.100  0.00  0.00    +0.000 NA
ATOM     26  C   UNL     1      54.419   2.265  17.946  0.00  0.00    +0.000 A 
ATOM     27  S   UNL     1      54.273   0.574  17.970  0.00  0.00    +0.000 S 
ATOM     28  C   UNL     1      52.593   0.664  17.733  0.00  0.00    +0.000 A 
ATOM     29  C   UNL     1      52.110   1.964  17.624  0.00  0.00    +0.000 A 
ATOM     30  C   UNL     1      53.206   2.923  17.762  0.00  0.00    +0.000 A 
BRANCH  22  32
ATOM     31  C   UNL     1      52.422   6.212  16.699  0.00  0.00    +0.000 C 
ATOM     32  O   UNL     1      52.211   5.130  17.605  0.00  0.00    +0.000 OA
ENDBRANCH  22  32
ENDBRANCH  18  29
ENDBRANCH   1  20
TORSDOF 7
ENDMDL
MODEL 6
REMARK VINA RESULT:    -6.523      1.692      2.442
REMARK INTER + INTRA:         -10.263
REMARK INTER:                  -9.034
REMARK INTRA:                  -1.229
REMARK UNBOUND:                -1.071
REMARK  Name = 
REMARK  9 active torsions:
REMARK  status: ('A' for Active; 'I' for Inactive)
REMARK    1  A    between atoms: C_1  and  O_2
REMARK    2  A    between atoms: O_2  and  C_3
REMARK    3  A    between atoms: C_10  and  C_11
REMARK    4  A    between atoms: N_13  and  C_14
REMARK    5  A    between atoms: C_14  and  C_15
REMARK    6  A    between atoms: C_18  and  N_19
REMARK    7  A    between atoms: N_19  and  C_20
REMARK    8  A    between atoms: C_20  and  C_21
REMARK    9  A    between atoms: N_24  and  C_25
REMARK                            x       y       z     vdW  Elec       q    Type
REMARK                         _______ _______ _______ _____ _____    ______ ____
ROOT
ATOM      1  C   UNL     1      50.820   7.283  16.497  0.00  0.00    +0.000 C 
ENDROOT
BRANCH   1   2
ATOM      2  C   UNL     1      49.734   6.947  15.515  0.00  0.00    +0.000 A 
ATOM      3  C   UNL     1      49.766   7.437  14.206  0.00  0.00    +0.000 A 
ATOM      4  C   UNL     1      48.789   7.056  13.279  0.00  0.00    +0.000 A 
ATOM      5  C   UNL     1      47.760   6.178  13.621  0.00  0.00    +0.000 A 
ATOM      6  C   UNL     1      47.688   5.767  14.960  0.00  0.00    +0.000 A 
ATOM      7  C   UNL     1      48.659   6.137  15.898  0.00  0.00    +0.000 A 
BRANCH   5   8
ATOM      8  N   UNL     1      46.755   5.757  12.760  0.00  0.00    +0.000 N 
ATOM      9  H   UNL     1      46.386   6.517  12.197  0.00  0.00    +0.000 HD
BRANCH   8  10
ATOM     10  C   UNL     1      45.780   4.705  13.057  0.00  0.00    +0.000 C 
BRANCH  10  11
ATOM     11  C   UNL     1      44.377   5.130  12.588  0.00  0.00    +0.000 C 
ATOM     12  C   UNL     1      43.351   3.988  12.671  0.00  0.00    +0.000 C 
ATOM     13  C   UNL     1      43.552   2.898  11.604  0.00  0.00    +0.000 C 
ATOM     14  N   UNL     1      43.838   3.378  10.251  0.00  0.00    +0.000 NA
ATOM     15  C   UNL     1      44.384   2.287   9.429  0.00  0.00    +0.000 C 
ATOM     16  C   UNL     1      44.707   4.555  10.149  0.00  0.00    +0.000 C 
ATOM     17  C   UNL     1      44.360   5.654  11.149  0.00  0.00    +0.000 C 
ENDBRANCH  10  11
ENDBRANCH   8  10
ENDBRANCH   5   8
ENDBRANCH   1   2
BRANCH   1  20
ATOM     18  C   UNL     1      51.693   5.778  18.251  0.00  0.00    +0.000 C 
ATOM     19  O   UNL     1      51.185   6.437  19.159  0.00  0.00    +0.000 OA
ATOM     20  N   UNL     1      51.528   6.114  16.939  0.00  0.00    +0.000 N 
ATOM     21  H   UNL     1      52.053   5.616  16.236  0.00  0.00    +0.000 HD
BRANCH  18  29
ATOM     22  C   UNL     1      51.303   2.453  17.444  0.00  0.00    +0.000 A 
ATOM     23  N   UNL     1      51.392   1.119  17.280  0.00  0.00    +0.000 NA
ATOM     24  C   UNL     1      52.431   0.485  17.837  0.00  0.00    +0.000 A 
ATOM     25  N   UNL     1      53.408   1.032  18.553  0.00  0.00    +0.000 NA
ATOM     26  C   UNL     1      53.286   2.364  18.685  0.00  0.00    +0.000 A 
ATOM     27  S   UNL     1      54.455   3.229  19.560  0.00  0.00    +0.000 S 
ATOM     28  C   UNL     1      53.650   4.699  19.281  0.00  0.00    +0.000 A 
ATOM     29  C   UNL     1      52.486   4.569  18.533  0.00  0.00    +0.000 A 
ATOM     30  C   UNL     1      52.274   3.168  18.168  0.00  0.00    +0.000 A 
BRANCH  22  32
ATOM     31  C   UNL     1      49.030   2.980  17.557  0.00  0.00    +0.000 C 
ATOM     32  O   UNL     1      50.251   3.105  16.831  0.00  0.00    +0.000 OA
ENDBRANCH  22  32
ENDBRANCH  18  29
ENDBRANCH   1  20
TORSDOF 7
ENDMDL
MODEL 7
REMARK VINA RESULT:    -6.373      5.691      7.455
REMARK INTER + INTRA:         -10.051
REMARK INTER:                  -8.889
REMARK INTRA:                  -1.162
REMARK UNBOUND:                -1.071
REMARK  Name = 
REMARK  9 active torsions:
REMARK  status: ('A' for Active; 'I' for Inactive)
REMARK    1  A    between atoms: C_1  and  O_2
REMARK    2  A    between atoms: O_2  and  C_3
REMARK    3  A    between atoms: C_10  and  C_11
REMARK    4  A    between atoms: N_13  and  C_14
REMARK    5  A    between atoms: C_14  and  C_15
REMARK    6  A    between atoms: C_18  and  N_19
REMARK    7  A    between atoms: N_19  and  C_20
REMARK    8  A    between atoms: C_20  and  C_21
REMARK    9  A    between atoms: N_24  and  C_25
REMARK                            x       y       z     vdW  Elec       q    Type
REMARK                         _______ _______ _______ _____ _____    ______ ____
ROOT
ATOM      1  C   UNL     1      51.360   8.341  12.102  0.00  0.00    +0.000 C 
ENDROOT
BRANCH   1   2
ATOM      2  C   UNL     1      49.982   7.846  12.436  0.00  0.00    +0.000 A 
ATOM      3  C   UNL     1      49.653   7.440  13.734  0.00  0.00    +0.000 A 
ATOM      4  C   UNL     1      48.346   7.054  14.049  0.00  0.00    +0.000 A 
ATOM      5  C   UNL     1      47.330   7.062  13.092  0.00  0.00    +0.000 A 
ATOM      6  C   UNL     1      47.693   7.382  11.776  0.00  0.00    +0.000 A 
ATOM      7  C   UNL     1      48.996   7.775  11.445  0.00  0.00    +0.000 A 
BRANCH   5   8
ATOM      8  N   UNL     1      46.013   6.689  13.327  0.00  0.00    +0.000 N 
ATOM      9  H   UNL     1      45.597   7.205  14.097  0.00  0.00    +0.000 HD
BRANCH   8  10
ATOM     10  C   UNL     1      45.480   5.335  13.157  0.00  0.00    +0.000 C 
BRANCH  10  11
ATOM     11  C   UNL     1      43.980   5.392  12.819  0.00  0.00    +0.000 C 
ATOM     12  C   UNL     1      43.277   4.038  13.008  0.00  0.00    +0.000 C 
ATOM     13  C   UNL     1      43.642   2.998  11.935  0.00  0.00    +0.000 C 
ATOM     14  N   UNL     1      43.678   3.491  10.558  0.00  0.00    +0.000 NA
ATOM     15  C   UNL     1      44.399   2.540   9.696  0.00  0.00    +0.000 C 
ATOM     16  C   UNL     1      44.220   4.840  10.364  0.00  0.00    +0.000 C 
ATOM     17  C   UNL     1      43.706   5.851  11.384  0.00  0.00    +0.000 C 
ENDBRANCH  10  11
ENDBRANCH   8  10
ENDBRANCH   5   8
ENDBRANCH   1   2
BRANCH   1  20
ATOM     18  C   UNL     1      52.700   8.708  10.059  0.00  0.00    +0.000 C 
ATOM     19  O   UNL     1      53.383   9.585  10.588  0.00  0.00    +0.000 OA
ATOM     20  N   UNL     1      51.726   8.043  10.746  0.00  0.00    +0.000 N 
ATOM     21  H   UNL     1      51.116   7.415  10.245  0.00  0.00    +0.000 HD
BRANCH  18  29
ATOM     22  C   UNL     1      53.582   5.735   8.562  0.00  0.00    +0.000 A 
ATOM     23  N   UNL     1      53.916   4.726   7.734  0.00  0.00    +0.000 NA
ATOM     24  C   UNL     1      53.981   4.985   6.422  0.00  0.00    +0.000 A 
ATOM     25  N   UNL     1      53.752   6.151   5.828  0.00  0.00    +0.000 NA
ATOM     26  C   UNL     1      53.414   7.127   6.687  0.00  0.00    +0.000 A 
ATOM     27  S   UNL     1      53.074   8.682   6.097  0.00  0.00    +0.000 S 
ATOM     28  C   UNL     1      52.766   9.264   7.663  0.00  0.00    +0.000 A 
ATOM     29  C   UNL     1      52.919   8.306   8.659  0.00  0.00    +0.000 A 
ATOM     30  C   UNL     1      53.298   7.022   8.070  0.00  0.00    +0.000 A 
BRANCH  22  32
ATOM     31  C   UNL     1      54.726   5.545  10.590  0.00  0.00    +0.000 C 
ATOM     32  O   UNL     1      53.476   5.449   9.909  0.00  0.00    +0.000 OA
ENDBRANCH  22  32
ENDBRANCH  18  29
ENDBRANCH   1  20
TORSDOF 7
ENDMDL
MODEL 8
REMARK VINA RESULT:    -6.078      3.267      4.025
REMARK INTER + INTRA:          -9.635
REMARK INTER:                  -8.881
REMARK INTRA:                  -0.754
REMARK UNBOUND:                -1.071
REMARK  Name = 
REMARK  9 active torsions:
REMARK  status: ('A' for Active; 'I' for Inactive)
REMARK    1  A    between atoms: C_1  and  O_2
REMARK    2  A    between atoms: O_2  and  C_3
REMARK    3  A    between atoms: C_10  and  C_11
REMARK    4  A    between atoms: N_13  and  C_14
REMARK    5  A    between atoms: C_14  and  C_15
REMARK    6  A    between atoms: C_18  and  N_19
REMARK    7  A    between atoms: N_19  and  C_20
REMARK    8  A    between atoms: C_20  and  C_21
REMARK    9  A    between atoms: N_24  and  C_25
REMARK                            x       y       z     vdW  Elec       q    Type
REMARK                         _______ _______ _______ _____ _____    ______ ____
ROOT
ATOM      1  C   UNL     1      48.892   8.627  13.234  0.00  0.00    +0.000 C 
ENDROOT
BRANCH   1   2
ATOM      2  C   UNL     1      47.575   8.118  12.721  0.00  0.00    +0.000 A 
ATOM      3  C   UNL     1      46.368   8.697  13.128  0.00  0.00    +0.000 A 
ATOM      4  C   UNL     1      45.153   8.265  12.585  0.00  0.00    +0.000 A 
ATOM      5  C   UNL     1      45.100   7.254  11.625  0.00  0.00    +0.000 A 
ATOM      6  C   UNL     1      46.306   6.621  11.295  0.00  0.00    +0.000 A 
ATOM      7  C   UNL     1      47.531   7.044  11.826  0.00  0.00    +0.000 A 
BRANCH   5   8
ATOM      8  N   UNL     1      43.935   6.769  11.044  0.00  0.00    +0.000 N 
ATOM      9  H   UNL     1      43.100   7.107  11.514  0.00  0.00    +0.000 HD
BRANCH   8  10
ATOM     10  C   UNL     1      43.786   5.444  10.440  0.00  0.00    +0.000 C 
BRANCH  10  11
ATOM     11  C   UNL     1      43.059   4.494  11.409  0.00  0.00    +0.000 C 
ATOM     12  C   UNL     1      43.189   4.930  12.877  0.00  0.00    +0.000 C 
ATOM     13  C   UNL     1      44.594   4.710  13.464  0.00  0.00    +0.000 C 
ATOM     14  N   UNL     1      45.227   3.432  13.139  0.00  0.00    +0.000 NA
ATOM     15  C   UNL     1      46.671   3.494  13.412  0.00  0.00    +0.000 C 
ATOM     16  C   UNL     1      45.004   2.923  11.780  0.00  0.00    +0.000 C 
ATOM     17  C   UNL     1      43.556   3.048  11.316  0.00  0.00    +0.000 C 
ENDBRANCH  10  11
ENDBRANCH   8  10
ENDBRANCH   5   8
ENDBRANCH   1   2
BRANCH   1  20
ATOM     18  C   UNL     1      49.361   7.657  15.457  0.00  0.00    +0.000 C 
ATOM     19  O   UNL     1      49.815   6.616  14.978  0.00  0.00    +0.000 OA
ATOM     20  N   UNL     1      48.928   8.682  14.668  0.00  0.00    +0.000 N 
ATOM     21  H   UNL     1      48.460   9.466  15.097  0.00  0.00    +0.000 HD
BRANCH  18  29
ATOM     22  C   UNL     1      48.291   5.688  18.072  0.00  0.00    +0.000 A 
ATOM     23  N   UNL     1      47.940   5.148  19.254  0.00  0.00    +0.000 NA
ATOM     24  C   UNL     1      48.099   5.890  20.357  0.00  0.00    +0.000 A 
ATOM     25  N   UNL     1      48.571   7.130  20.421  0.00  0.00    +0.000 NA
ATOM     26  C   UNL     1      48.918   7.628  19.223  0.00  0.00    +0.000 A 
ATOM     27  S   UNL     1      49.553   9.199  19.121  0.00  0.00    +0.000 S 
ATOM     28  C   UNL     1      49.715   9.079  17.434  0.00  0.00    +0.000 A 
ATOM     29  C   UNL     1      49.289   7.862  16.914  0.00  0.00    +0.000 A 
ATOM     30  C   UNL     1      48.820   6.989  17.990  0.00  0.00    +0.000 A 
BRANCH  22  32
ATOM     31  C   UNL     1      47.125   3.931  17.067  0.00  0.00    +0.000 C 
ATOM     32  O   UNL     1      48.163   4.901  16.944  0.00  0.00    +0.000 OA
ENDBRANCH  22  32
ENDBRANCH  18  29
ENDBRANCH   1  20
TORSDOF 7
ENDMDL
MODEL 9
REMARK VINA RESULT:    -6.038      2.535      3.380
REMARK INTER + INTRA:          -9.579
REMARK INTER:                  -8.222
REMARK INTRA:                  -1.358
REMARK UNBOUND:                -1.071
REMARK  Name = 
REMARK  9 active torsions:
REMARK  status: ('A' for Active; 'I' for Inactive)
REMARK    1  A    between atoms: C_1  and  O_2
REMARK    2  A    between atoms: O_2  and  C_3
REMARK    3  A    between atoms: C_10  and  C_11
REMARK    4  A    between atoms: N_13  and  C_14
REMARK    5  A    between atoms: C_14  and  C_15
REMARK    6  A    between atoms: C_18  and  N_19
REMARK    7  A    between atoms: N_19  and  C_20
REMARK    8  A    between atoms: C_20  and  C_21
REMARK    9  A    between atoms: N_24  and  C_25
REMARK                            x       y       z     vdW  Elec       q    Type
REMARK                         _______ _______ _______ _____ _____    ______ ____
ROOT
ATOM      1  C   UNL     1      50.741   7.833  14.220  0.00  0.00    +0.000 C 
ENDROOT
BRANCH   1   2
ATOM      2  C   UNL     1      49.377   7.915  13.596  0.00  0.00    +0.000 A 
ATOM      3  C   UNL     1      49.127   7.374  12.331  0.00  0.00    +0.000 A 
ATOM      4  C   UNL     1      47.834   7.390  11.794  0.00  0.00    +0.000 A 
ATOM      5  C   UNL     1      46.758   7.935  12.495  0.00  0.00    +0.000 A 
ATOM      6  C   UNL     1      47.040   8.555  13.720  0.00  0.00    +0.000 A 
ATOM      7  C   UNL     1      48.327   8.544  14.273  0.00  0.00    +0.000 A 
BRANCH   5   8
ATOM      8  N   UNL     1      45.451   7.991  12.027  0.00  0.00    +0.000 N 
ATOM      9  H   UNL     1      44.907   8.714  12.488  0.00  0.00    +0.000 HD
BRANCH   8  10
ATOM     10  C   UNL     1      44.664   6.835  11.593  0.00  0.00    +0.000 C 
BRANCH  10  11
ATOM     11  C   UNL     1      44.331   5.934  12.796  0.00  0.00    +0.000 C 
ATOM     12  C   UNL     1      45.389   4.845  13.035  0.00  0.00    +0.000 C 
ATOM     13  C   UNL     1      45.367   3.722  11.984  0.00  0.00    +0.000 C 
ATOM     14  N   UNL     1      44.041   3.226  11.611  0.00  0.00    +0.000 NA
ATOM     15  C   UNL     1      44.119   2.461  10.357  0.00  0.00    +0.000 C 
ATOM     16  C   UNL     1      42.976   4.231  11.510  0.00  0.00    +0.000 C 
ATOM     17  C   UNL     1      42.976   5.232  12.661  0.00  0.00    +0.000 C 
ENDBRANCH  10  11
ENDBRANCH   8  10
ENDBRANCH   5   8
ENDBRANCH   1   2
BRANCH   1  20
ATOM     18  C   UNL     1      51.740   6.861  16.260  0.00  0.00    +0.000 C 
ATOM     19  O   UNL     1      52.852   6.752  15.741  0.00  0.00    +0.000 OA
ATOM     20  N   UNL     1      50.683   7.406  15.590  0.00  0.00    +0.000 N 
ATOM     21  H   UNL     1      49.767   7.371  16.010  0.00  0.00    +0.000 HD
BRANCH  18  29
ATOM     22  C   UNL     1      49.230   5.054  17.775  0.00  0.00    +0.000 A 
ATOM     23  N   UNL     1      48.398   4.398  18.607  0.00  0.00    +0.000 NA
ATOM     24  C   UNL     1      48.718   4.350  19.906  0.00  0.00    +0.000 A 
ATOM     25  N   UNL     1      49.785   4.890  20.484  0.00  0.00    +0.000 NA
ATOM     26  C   UNL     1      50.591   5.527  19.619  0.00  0.00    +0.000 A 
ATOM     27  S   UNL     1      52.010   6.267  20.186  0.00  0.00    +0.000 S 
ATOM     28  C   UNL     1      52.419   6.796  18.624  0.00  0.00    +0.000 A 
ATOM     29  C   UNL     1      51.497   6.433  17.649  0.00  0.00    +0.000 A 
ATOM     30  C   UNL     1      50.406   5.664  18.247  0.00  0.00    +0.000 A 
BRANCH  22  32
ATOM     31  C   UNL     1      47.649   4.462  16.159  0.00  0.00    +0.000 C 
ATOM     32  O   UNL     1      48.914   5.063  16.430  0.00  0.00    +0.000 OA
ENDBRANCH  22  32
ENDBRANCH  18  29
ENDBRANCH   1  20
TORSDOF 7
ENDMDL
