MODEL 1
REMARK VINA RESULT:    -6.976      0.000      0.000
REMARK INTER + INTRA:          -9.918
REMARK INTER:                  -9.218
REMARK INTRA:                  -0.700
REMARK UNBOUND:                -0.700
REMARK  Name = 
REMARK  6 active torsions:
REMARK  status: ('A' for Active; 'I' for Inactive)
REMARK    1  A    between atoms: N_1  and  C_2
REMARK    2  A    between atoms: C_2  and  C_3
REMARK    3  A    between atoms: C_3  and  C_4
REMARK    4  A    between atoms: C_7  and  O_8
REMARK    5  A    between atoms: O_8  and  C_9
REMARK    6  A    between atoms: C_9  and  C_10
REMARK                            x       y       z     vdW  Elec       q    Type
REMARK                         _______ _______ _______ _____ _____    ______ ____
ROOT
ATOM      1  C   UNL     1      46.141   2.219   7.884  0.00  0.00    +0.000 A 
ATOM      2  C   UNL     1      46.099   3.614   7.866  0.00  0.00    +0.000 A 
ATOM      3  C   UNL     1      45.230   4.315   8.709  0.00  0.00    +0.000 A 
ATOM      4  C   UNL     1      44.394   3.622   9.587  0.00  0.00    +0.000 A 
ATOM      5  C   UNL     1      44.441   2.234   9.624  0.00  0.00    +0.000 A 
ATOM      6  C   UNL     1      45.309   1.531   8.776  0.00  0.00    +0.000 A 
ENDROOT
BRANCH   1   7
ATOM      7  C   UNL     1      47.061   1.496   6.919  0.00  0.00    +0.000 C 
BRANCH   7   8
ATOM      8  C   UNL     1      48.268   2.327   6.468  0.00  0.00    +0.000 C 
BRANCH   8   9
ATOM      9  N   UNL     1      48.260   2.537   5.018  0.00  0.00    +0.000 NA
ATOM     10  H   UNL     1      47.665   1.833   4.578  0.00  0.00    +0.000 HD
ATOM     11  H   UNL     1      49.198   2.385   4.640  0.00  0.00    +0.000 HD
ENDBRANCH   8   9
ENDBRANCH   7   8
ENDBRANCH   1   7
BRANCH   4  12
ATOM     12  O   UNL     1      43.545   4.213  10.484  0.00  0.00    +0.000 OA
BRANCH  12  13
ATOM     13  C   UNL     1      43.887   5.552  10.844  0.00  0.00    +0.000 C 
BRANCH  13  14
ATOM     14  C   UNL     1      43.789   5.719  12.371  0.00  0.00    +0.000 C 
ATOM     15  C   UNL     1      44.976   6.528  12.914  0.00  0.00    +0.000 C 
ATOM     16  C   UNL     1      46.274   5.732  12.785  0.00  0.00    +0.000 C 
ATOM     17  C   UNL     1      46.139   4.349  13.423  0.00  0.00    +0.000 C 
ATOM     18  N   UNL     1      44.992   3.605  12.903  0.00  0.00    +0.000 NA
ATOM     19  C   UNL     1      43.739   4.349  13.071  0.00  0.00    +0.000 C 
ATOM     20  H   UNL     1      44.920   2.712  13.394  0.00  0.00    +0.000 HD
ENDBRANCH  13  14
ENDBRANCH  12  13
ENDBRANCH   4  12
TORSDOF 6
ENDMDL
MODEL 2
REMARK VINA RESULT:    -6.521      1.339      1.719
REMARK INTER + INTRA:          -9.317
REMARK INTER:                  -8.808
REMARK INTRA:                  -0.509
REMARK UNBOUND:                -0.700
REMARK  Name = 
REMARK  6 active torsions:
REMARK  status: ('A' for Active; 'I' for Inactive)
REMARK    1  A    between atoms: N_1  and  C_2
REMARK    2  A    between atoms: C_2  and  C_3
REMARK    3  A    between atoms: C_3  and  C_4
REMARK    4  A    between atoms: C_7  and  O_8
REMARK    5  A    between atoms: O_8  and  C_9
REMARK    6  A    between atoms: C_9  and  C_10
REMARK                            x       y       z     vdW  Elec       q    Type
REMARK                         _______ _______ _______ _____ _____    ______ ____
ROOT
ATOM      1  C   UNL     1      45.969   3.143   7.656  0.00  0.00    +0.000 A 
ATOM      2  C   UNL     1      45.859   4.481   8.040  0.00  0.00    +0.000 A 
ATOM      3  C   UNL     1      45.319   4.826   9.284  0.00  0.00    +0.000 A 
ATOM      4  C   UNL     1      44.886   3.830  10.161  0.00  0.00    +0.000 A 
ATOM      5  C   UNL     1      45.007   2.495   9.794  0.00  0.00    +0.000 A 
ATOM      6  C   UNL     1      45.545   2.149   8.546  0.00  0.00    +0.000 A 
ENDROOT
BRANCH   1   7
ATOM      7  C   UNL     1      46.514   2.813   6.279  0.00  0.00    +0.000 C 
BRANCH   7   8
ATOM      8  C   UNL     1      47.341   1.524   6.229  0.00  0.00    +0.000 C 
BRANCH   8   9
ATOM      9  N   UNL     1      48.606   1.728   5.517  0.00  0.00    +0.000 NA
ATOM     10  H   UNL     1      48.904   2.699   5.629  0.00  0.00    +0.000 HD
ATOM     11  H   UNL     1      48.465   1.594   4.514  0.00  0.00    +0.000 HD
ENDBRANCH   8   9
ENDBRANCH   7   8
ENDBRANCH   1   7
BRANCH   4  12
ATOM     12  O   UNL     1      44.388   4.059  11.416  0.00  0.00    +0.000 OA
BRANCH  12  13
ATOM     13  C   UNL     1      45.268   3.711  12.485  0.00  0.00    +0.000 C 
BRANCH  13  14
ATOM     14  C   UNL     1      45.292   4.842  13.528  0.00  0.00    +0.000 C 
ATOM     15  C   UNL     1      45.354   6.217  12.847  0.00  0.00    +0.000 C 
ATOM     16  C   UNL     1      46.704   6.418  12.162  0.00  0.00    +0.000 C 
ATOM     17  C   UNL     1      47.859   6.167  13.133  0.00  0.00    +0.000 C 
ATOM     18  N   UNL     1      47.768   4.859  13.782  0.00  0.00    +0.000 NA
ATOM     19  C   UNL     1      46.490   4.686  14.481  0.00  0.00    +0.000 C 
ATOM     20  H   UNL     1      48.533   4.762  14.452  0.00  0.00    +0.000 HD
ENDBRANCH  13  14
ENDBRANCH  12  13
ENDBRANCH   4  12
TORSDOF 6
ENDMDL
MODEL 3
REMARK VINA RESULT:    -5.639      1.795      2.500
REMARK INTER + INTRA:          -8.152
REMARK INTER:                  -7.958
REMARK INTRA:                  -0.194
REMARK UNBOUND:                -0.700
REMARK  Name = 
REMARK  6 active torsions:
REMARK  status: ('A' for Active; 'I' for Inactive)
REMARK    1  A    between atoms: N_1  and  C_2
REMARK    2  A    between atoms: C_2  and  C_3
REMARK    3  A    between atoms: C_3  and  C_4
REMARK    4  A    between atoms: C_7  and  O_8
REMARK    5  A    between atoms: O_8  and  C_9
REMARK    6  A    between atoms: C_9  and  C_10
REMARK                            x       y       z     vdW  Elec       q    Type
REMARK                         _______ _______ _______ _____ _____    ______ ____
ROOT
ATOM      1  C   UNL     1      45.606   3.436   8.436  0.00  0.00    +0.000 A 
ATOM      2  C   UNL     1      45.735   4.766   8.841  0.00  0.00    +0.000 A 
ATOM      3  C   UNL     1      45.301   5.173  10.108  0.00  0.00    +0.000 A 
ATOM      4  C   UNL     1      44.736   4.247  10.987  0.00  0.00    +0.000 A 
ATOM      5  C   UNL     1      44.619   2.918  10.598  0.00  0.00    +0.000 A 
ATOM      6  C   UNL     1      45.050   2.511   9.327  0.00  0.00    +0.000 A 
ENDROOT
BRANCH   1   7
ATOM      7  C   UNL     1      46.043   3.047   7.036  0.00  0.00    +0.000 C 
BRANCH   7   8
ATOM      8  C   UNL     1      47.561   2.913   6.872  0.00  0.00    +0.000 C 
BRANCH   8   9
ATOM      9  N   UNL     1      47.968   1.507   6.798  0.00  0.00    +0.000 NA
ATOM     10  H   UNL     1      47.626   1.102   5.925  0.00  0.00    +0.000 HD
ATOM     11  H   UNL     1      47.520   0.976   7.547  0.00  0.00    +0.000 HD
ENDBRANCH   8   9
ENDBRANCH   7   8
ENDBRANCH   1   7
BRANCH   4  12
ATOM     12  O   UNL     1      44.325   4.533  12.261  0.00  0.00    +0.000 OA
BRANCH  12  13
ATOM     13  C   UNL     1      45.195   5.395  12.995  0.00  0.00    +0.000 C 
BRANCH  13  14
ATOM     14  C   UNL     1      46.650   4.918  12.838  0.00  0.00    +0.000 C 
ATOM     15  C   UNL     1      46.987   3.830  13.868  0.00  0.00    +0.000 C 
ATOM     16  C   UNL     1      47.017   4.415  15.279  0.00  0.00    +0.000 C 
ATOM     17  C   UNL     1      47.943   5.629  15.353  0.00  0.00    +0.000 C 
ATOM     18  N   UNL     1      47.614   6.644  14.352  0.00  0.00    +0.000 NA
ATOM     19  C   UNL     1      47.632   6.093  12.992  0.00  0.00    +0.000 C 
ATOM     20  H   UNL     1      48.288   7.409  14.414  0.00  0.00    +0.000 HD
ENDBRANCH  13  14
ENDBRANCH  12  13
ENDBRANCH   4  12
TORSDOF 6
ENDMDL
MODEL 4
REMARK VINA RESULT:    -5.558      2.404      6.518
REMARK INTER + INTRA:          -8.045
REMARK INTER:                  -7.463
REMARK INTRA:                  -0.582
REMARK UNBOUND:                -0.700
REMARK  Name = 
REMARK  6 active torsions:
REMARK  status: ('A' for Active; 'I' for Inactive)
REMARK    1  A    between atoms: N_1  and  C_2
REMARK    2  A    between atoms: C_2  and  C_3
REMARK    3  A    between atoms: C_3  and  C_4
REMARK    4  A    between atoms: C_7  and  O_8
REMARK    5  A    between atoms: O_8  and  C_9
REMARK    6  A    between atoms: C_9  and  C_10
REMARK                            x       y       z     vdW  Elec       q    Type
REMARK                         _______ _______ _______ _____ _____    ______ ____
ROOT
ATOM      1  C   UNL     1      47.312   6.276  13.498  0.00  0.00    +0.000 A 
ATOM      2  C   UNL     1      46.914   4.985  13.853  0.00  0.00    +0.000 A 
ATOM      3  C   UNL     1      46.001   4.276  13.064  0.00  0.00    +0.000 A 
ATOM      4  C   UNL     1      45.481   4.852  11.903  0.00  0.00    +0.000 A 
ATOM      5  C   UNL     1      45.885   6.130  11.534  0.00  0.00    +0.000 A 
ATOM      6  C   UNL     1      46.796   6.842  12.326  0.00  0.00    +0.000 A 
ENDROOT
BRANCH   1   7
ATOM      7  C   UNL     1      48.264   7.029  14.407  0.00  0.00    +0.000 C 
BRANCH   7   8
ATOM      8  C   UNL     1      48.132   8.554  14.320  0.00  0.00    +0.000 C 
BRANCH   8   9
ATOM      9  N   UNL     1      47.553   9.110  15.547  0.00  0.00    +0.000 NA
ATOM     10  H   UNL     1      47.588  10.130  15.505  0.00  0.00    +0.000 HD
ATOM     11  H   UNL     1      48.123   8.843  16.351  0.00  0.00    +0.000 HD
ENDBRANCH   8   9
ENDBRANCH   7   8
ENDBRANCH   1   7
BRANCH   4  12
ATOM     12  O   UNL     1      44.622   4.226  11.040  0.00  0.00    +0.000 OA
BRANCH  12  13
ATOM     13  C   UNL     1      45.079   2.968  10.543  0.00  0.00    +0.000 C 
BRANCH  13  14
ATOM     14  C   UNL     1      44.452   2.696   9.165  0.00  0.00    +0.000 C 
ATOM     15  C   UNL     1      45.183   1.555   8.443  0.00  0.00    +0.000 C 
ATOM     16  C   UNL     1      46.594   1.985   8.046  0.00  0.00    +0.000 C 
ATOM     17  C   UNL     1      46.569   3.291   7.250  0.00  0.00    +0.000 C 
ATOM     18  N   UNL     1      45.853   4.357   7.950  0.00  0.00    +0.000 NA
ATOM     19  C   UNL     1      44.482   3.961   8.288  0.00  0.00    +0.000 C 
ATOM     20  H   UNL     1      45.826   5.189   7.358  0.00  0.00    +0.000 HD
ENDBRANCH  13  14
ENDBRANCH  12  13
ENDBRANCH   4  12
TORSDOF 6
ENDMDL
MODEL 5
REMARK VINA RESULT:    -5.514      2.501      3.485
REMARK INTER + INTRA:          -7.986
REMARK INTER:                  -7.555
REMARK INTRA:                  -0.432
REMARK UNBOUND:                -0.700
REMARK  Name = 
REMARK  6 active torsions:
REMARK  status: ('A' for Active; 'I' for Inactive)
REMARK    1  A    between atoms: N_1  and  C_2
REMARK    2  A    between atoms: C_2  and  C_3
REMARK    3  A    between atoms: C_3  and  C_4
REMARK    4  A    between atoms: C_7  and  O_8
REMARK    5  A    between atoms: O_8  and  C_9
REMARK    6  A    between atoms: C_9  and  C_10
REMARK                            x       y       z     vdW  Elec       q    Type
REMARK                         _______ _______ _______ _____ _____    ______ ____
ROOT
ATOM      1  C   UNL     1      44.936   2.860   9.470  0.00  0.00    +0.000 A 
ATOM      2  C   UNL     1      44.380   2.852  10.750  0.00  0.00    +0.000 A 
ATOM      3  C   UNL     1      44.299   4.029  11.503  0.00  0.00    +0.000 A 
ATOM      4  C   UNL     1      44.772   5.232  10.976  0.00  0.00    +0.000 A 
ATOM      5  C   UNL     1      45.312   5.252   9.695  0.00  0.00    +0.000 A 
ATOM      6  C   UNL     1      45.396   4.072   8.943  0.00  0.00    +0.000 A 
ENDROOT
BRANCH   1   7
ATOM      7  C   UNL     1      45.050   1.554   8.707  0.00  0.00    +0.000 C 
BRANCH   7   8
ATOM      8  C   UNL     1      46.392   1.366   7.990  0.00  0.00    +0.000 C 
BRANCH   8   9
ATOM      9  N   UNL     1      46.751  -0.052   7.893  0.00  0.00    +0.000 NA
ATOM     10  H   UNL     1      46.843  -0.311   6.909  0.00  0.00    +0.000 HD
ATOM     11  H   UNL     1      45.994  -0.628   8.264  0.00  0.00    +0.000 HD
ENDBRANCH   8   9
ENDBRANCH   7   8
ENDBRANCH   1   7
BRANCH   4  12
ATOM     12  O   UNL     1      44.697   6.443  11.610  0.00  0.00    +0.000 OA
BRANCH  12  13
ATOM     13  C   UNL     1      45.653   6.637  12.653  0.00  0.00    +0.000 C 
BRANCH  13  14
ATOM     14  C   UNL     1      46.752   7.602  12.176  0.00  0.00    +0.000 C 
ATOM     15  C   UNL     1      48.147   6.999  12.396  0.00  0.00    +0.000 C 
ATOM     16  C   UNL     1      48.463   6.904  13.888  0.00  0.00    +0.000 C 
ATOM     17  C   UNL     1      48.267   8.253  14.581  0.00  0.00    +0.000 C 
ATOM     18  N   UNL     1      46.938   8.815  14.342  0.00  0.00    +0.000 NA
ATOM     19  C   UNL     1      46.654   8.951  12.909  0.00  0.00    +0.000 C 
ATOM     20  H   UNL     1      46.876   9.733  14.785  0.00  0.00    +0.000 HD
ENDBRANCH  13  14
ENDBRANCH  12  13
ENDBRANCH   4  12
TORSDOF 6
ENDMDL
MODEL 6
REMARK VINA RESULT:    -5.400      2.698      3.764
REMARK INTER + INTRA:          -7.835
REMARK INTER:                  -7.022
REMARK INTRA:                  -0.814
REMARK UNBOUND:                -0.700
REMARK  Name = 
REMARK  6 active torsions:
REMARK  status: ('A' for Active; 'I' for Inactive)
REMARK    1  A    between atoms: N_1  and  C_2
REMARK    2  A    between atoms: C_2  and  C_3
REMARK    3  A    between atoms: C_3  and  C_4
REMARK    4  A    between atoms: C_7  and  O_8
REMARK    5  A    between atoms: O_8  and  C_9
REMARK    6  A    between atoms: C_9  and  C_10
REMARK                            x       y       z     vdW  Elec       q    Type
REMARK                         _______ _______ _______ _____ _____    ______ ____
ROOT
ATOM      1  C   UNL     1      45.087   3.726   9.619  0.00  0.00    +0.000 A 
ATOM      2  C   UNL     1      44.873   3.185  10.888  0.00  0.00    +0.000 A 
ATOM      3  C   UNL     1      45.091   3.951  12.039  0.00  0.00    +0.000 A 
ATOM      4  C   UNL     1      45.522   5.275  11.928  0.00  0.00    +0.000 A 
ATOM      5  C   UNL     1      45.721   5.827  10.668  0.00  0.00    +0.000 A 
ATOM      6  C   UNL     1      45.506   5.057   9.516  0.00  0.00    +0.000 A 
ENDROOT
BRANCH   1   7
ATOM      7  C   UNL     1      44.887   2.846   8.399  0.00  0.00    +0.000 C 
BRANCH   7   8
ATOM      8  C   UNL     1      46.178   2.210   7.872  0.00  0.00    +0.000 C 
BRANCH   8   9
ATOM      9  N   UNL     1      46.241   0.782   8.199  0.00  0.00    +0.000 NA
ATOM     10  H   UNL     1      45.535   0.280   7.657  0.00  0.00    +0.000 HD
ATOM     11  H   UNL     1      45.993   0.639   9.180  0.00  0.00    +0.000 HD
ENDBRANCH   8   9
ENDBRANCH   7   8
ENDBRANCH   1   7
BRANCH   4  12
ATOM     12  O   UNL     1      45.718   6.121  12.987  0.00  0.00    +0.000 OA
BRANCH  12  13
ATOM     13  C   UNL     1      45.949   7.485  12.631  0.00  0.00    +0.000 C 
BRANCH  13  14
ATOM     14  C   UNL     1      47.060   8.071  13.520  0.00  0.00    +0.000 C 
ATOM     15  C   UNL     1      47.893   9.106  12.750  0.00  0.00    +0.000 C 
ATOM     16  C   UNL     1      48.716   8.427  11.657  0.00  0.00    +0.000 C 
ATOM     17  C   UNL     1      49.549   7.277  12.225  0.00  0.00    +0.000 C 
ATOM     18  N   UNL     1      48.736   6.315  12.969  0.00  0.00    +0.000 NA
ATOM     19  C   UNL     1      47.983   6.959  14.050  0.00  0.00    +0.000 C 
ATOM     20  H   UNL     1      49.344   5.596  13.365  0.00  0.00    +0.000 HD
ENDBRANCH  13  14
ENDBRANCH  12  13
ENDBRANCH   4  12
TORSDOF 6
ENDMDL
MODEL 7
REMARK VINA RESULT:    -5.340      1.620      6.017
REMARK INTER + INTRA:          -7.757
REMARK INTER:                  -7.351
REMARK INTRA:                  -0.406
REMARK UNBOUND:                -0.700
REMARK  Name = 
REMARK  6 active torsions:
REMARK  status: ('A' for Active; 'I' for Inactive)
REMARK    1  A    between atoms: N_1  and  C_2
REMARK    2  A    between atoms: C_2  and  C_3
REMARK    3  A    between atoms: C_3  and  C_4
REMARK    4  A    between atoms: C_7  and  O_8
REMARK    5  A    between atoms: O_8  and  C_9
REMARK    6  A    between atoms: C_9  and  C_10
REMARK                            x       y       z     vdW  Elec       q    Type
REMARK                         _______ _______ _______ _____ _____    ______ ____
ROOT
ATOM      1  C   UNL     1      45.331   4.598  12.401  0.00  0.00    +0.000 A 
ATOM      2  C   UNL     1      45.598   5.597  11.462  0.00  0.00    +0.000 A 
ATOM      3  C   UNL     1      45.294   5.407  10.109  0.00  0.00    +0.000 A 
ATOM      4  C   UNL     1      44.711   4.212   9.682  0.00  0.00    +0.000 A 
ATOM      5  C   UNL     1      44.427   3.219  10.612  0.00  0.00    +0.000 A 
ATOM      6  C   UNL     1      44.735   3.408  11.967  0.00  0.00    +0.000 A 
ENDROOT
BRANCH   1   7
ATOM      7  C   UNL     1      45.721   4.824  13.849  0.00  0.00    +0.000 C 
BRANCH   7   8
ATOM      8  C   UNL     1      47.203   4.561  14.143  0.00  0.00    +0.000 C 
BRANCH   8   9
ATOM      9  N   UNL     1      47.441   3.151  14.467  0.00  0.00    +0.000 NA
ATOM     10  H   UNL     1      47.997   2.723  13.725  0.00  0.00    +0.000 HD
ATOM     11  H   UNL     1      46.554   2.644  14.480  0.00  0.00    +0.000 HD
ENDBRANCH   8   9
ENDBRANCH   7   8
ENDBRANCH   1   7
BRANCH   4  12
ATOM     12  O   UNL     1      44.333   3.947   8.393  0.00  0.00    +0.000 OA
BRANCH  12  13
ATOM     13  C   UNL     1      44.928   2.783   7.820  0.00  0.00    +0.000 C 
BRANCH  13  14
ATOM     14  C   UNL     1      46.458   2.856   7.968  0.00  0.00    +0.000 C 
ATOM     15  C   UNL     1      47.054   3.904   7.018  0.00  0.00    +0.000 C 
ATOM     16  C   UNL     1      46.919   3.451   5.565  0.00  0.00    +0.000 C 
ATOM     17  C   UNL     1      47.500   2.051   5.366  0.00  0.00    +0.000 C 
ATOM     18  N   UNL     1      46.929   1.074   6.294  0.00  0.00    +0.000 NA
ATOM     19  C   UNL     1      47.102   1.485   7.692  0.00  0.00    +0.000 C 
ATOM     20  H   UNL     1      47.382   0.170   6.152  0.00  0.00    +0.000 HD
ENDBRANCH  13  14
ENDBRANCH  12  13
ENDBRANCH   4  12
TORSDOF 6
ENDMDL
MODEL 8
REMARK VINA RESULT:    -5.312      3.702      5.455
REMARK INTER + INTRA:          -7.719
REMARK INTER:                  -7.039
REMARK INTRA:                  -0.680
REMARK UNBOUND:                -0.700
REMARK  Name = 
REMARK  6 active torsions:
REMARK  status: ('A' for Active; 'I' for Inactive)
REMARK    1  A    between atoms: N_1  and  C_2
REMARK    2  A    between atoms: C_2  and  C_3
REMARK    3  A    between atoms: C_3  and  C_4
REMARK    4  A    between atoms: C_7  and  O_8
REMARK    5  A    between atoms: O_8  and  C_9
REMARK    6  A    between atoms: C_9  and  C_10
REMARK                            x       y       z     vdW  Elec       q    Type
REMARK                         _______ _______ _______ _____ _____    ______ ____
ROOT
ATOM      1  C   UNL     1      44.944   4.719  11.482  0.00  0.00    +0.000 A 
ATOM      2  C   UNL     1      45.048   3.397  11.920  0.00  0.00    +0.000 A 
ATOM      3  C   UNL     1      45.912   3.056  12.967  0.00  0.00    +0.000 A 
ATOM      4  C   UNL     1      46.679   4.041  13.592  0.00  0.00    +0.000 A 
ATOM      5  C   UNL     1      46.570   5.362  13.173  0.00  0.00    +0.000 A 
ATOM      6  C   UNL     1      45.707   5.703  12.122  0.00  0.00    +0.000 A 
ENDROOT
BRANCH   1   7
ATOM      7  C   UNL     1      44.033   5.038  10.312  0.00  0.00    +0.000 C 
BRANCH   7   8
ATOM      8  C   UNL     1      44.399   4.301   9.018  0.00  0.00    +0.000 C 
BRANCH   8   9
ATOM      9  N   UNL     1      45.589   4.883   8.390  0.00  0.00    +0.000 NA
ATOM     10  H   UNL     1      45.777   5.798   8.805  0.00  0.00    +0.000 HD
ATOM     11  H   UNL     1      45.408   5.057   7.400  0.00  0.00    +0.000 HD
ENDBRANCH   8   9
ENDBRANCH   7   8
ENDBRANCH   1   7
BRANCH   4  12
ATOM     12  O   UNL     1      47.517   3.821  14.653  0.00  0.00    +0.000 OA
BRANCH  12  13
ATOM     13  C   UNL     1      47.565   4.878  15.611  0.00  0.00    +0.000 C 
BRANCH  13  14
ATOM     14  C   UNL     1      47.537   4.291  17.033  0.00  0.00    +0.000 C 
ATOM     15  C   UNL     1      48.508   5.040  17.957  0.00  0.00    +0.000 C 
ATOM     16  C   UNL     1      49.955   4.767  17.551  0.00  0.00    +0.000 C 
ATOM     17  C   UNL     1      50.231   3.265  17.469  0.00  0.00    +0.000 C 
ATOM     18  N   UNL     1      49.283   2.571  16.597  0.00  0.00    +0.000 NA
ATOM     19  C   UNL     1      47.895   2.794  17.016  0.00  0.00    +0.000 C 
ATOM     20  H   UNL     1      49.482   1.569  16.614  0.00  0.00    +0.000 HD
ENDBRANCH  13  14
ENDBRANCH  12  13
ENDBRANCH   4  12
TORSDOF 6
ENDMDL
MODEL 9
REMARK VINA RESULT:    -5.217      4.250      6.242
REMARK INTER + INTRA:          -7.594
REMARK INTER:                  -6.985
REMARK INTRA:                  -0.609
REMARK UNBOUND:                -0.700
REMARK  Name = 
REMARK  6 active torsions:
REMARK  status: ('A' for Active; 'I' for Inactive)
REMARK    1  A    between atoms: N_1  and  C_2
REMARK    2  A    between atoms: C_2  and  C_3
REMARK    3  A    between atoms: C_3  and  C_4
REMARK    4  A    between atoms: C_7  and  O_8
REMARK    5  A    between atoms: O_8  and  C_9
REMARK    6  A    between atoms: C_9  and  C_10
REMARK                            x       y       z     vdW  Elec       q    Type
REMARK                         _______ _______ _______ _____ _____    ______ ____
ROOT
ATOM      1  C   UNL     1      45.418   5.007  11.789  0.00  0.00    +0.000 A 
ATOM      2  C   UNL     1      46.252   5.951  12.391  0.00  0.00    +0.000 A 
ATOM      3  C   UNL     1      47.068   5.598  13.471  0.00  0.00    +0.000 A 
ATOM      4  C   UNL     1      47.060   4.290  13.959  0.00  0.00    +0.000 A 
ATOM      5  C   UNL     1      46.244   3.340  13.356  0.00  0.00    +0.000 A 
ATOM      6  C   UNL     1      45.424   3.694  12.275  0.00  0.00    +0.000 A 
ENDROOT
BRANCH   1   7
ATOM      7  C   UNL     1      44.512   5.442  10.652  0.00  0.00    +0.000 C 
BRANCH   7   8
ATOM      8  C   UNL     1      43.049   5.644  11.063  0.00  0.00    +0.000 C 
BRANCH   8   9
ATOM      9  N   UNL     1      42.725   7.067  11.197  0.00  0.00    +0.000 NA
ATOM     10  H   UNL     1      42.336   7.410  10.317  0.00  0.00    +0.000 HD
ATOM     11  H   UNL     1      43.580   7.605  11.353  0.00  0.00    +0.000 HD
ENDBRANCH   8   9
ENDBRANCH   7   8
ENDBRANCH   1   7
BRANCH   4  12
ATOM     12  O   UNL     1      47.853   3.833  14.978  0.00  0.00    +0.000 OA
BRANCH  12  13
ATOM     13  C   UNL     1      47.979   4.723  16.087  0.00  0.00    +0.000 C 
BRANCH  13  14
ATOM     14  C   UNL     1      48.033   3.916  17.396  0.00  0.00    +0.000 C 
ATOM     15  C   UNL     1      49.215   4.361  18.269  0.00  0.00    +0.000 C 
ATOM     16  C   UNL     1      50.541   3.964  17.622  0.00  0.00    +0.000 C 
ATOM     17  C   UNL     1      50.564   2.474  17.280  0.00  0.00    +0.000 C 
ATOM     18  N   UNL     1      49.419   2.071  16.463  0.00  0.00    +0.000 NA
ATOM     19  C   UNL     1      48.145   2.409  17.108  0.00  0.00    +0.000 C 
ATOM     20  H   UNL     1      49.458   1.063  16.303  0.00  0.00    +0.000 HD
ENDBRANCH  13  14
ENDBRANCH  12  13
ENDBRANCH   4  12
TORSDOF 6
ENDMDL
