MODEL 1
REMARK VINA RESULT:    -7.743      0.000      0.000
REMARK INTER + INTRA:          -9.564
REMARK INTER:                  -9.101
REMARK INTRA:                  -0.463
REMARK UNBOUND:                -0.463
REMARK  Name = 
REMARK  3 active torsions:
REMARK  status: ('A' for Active; 'I' for Inactive)
REMARK    1  A    between atoms: N_5  and  C_6
REMARK    2  A    between atoms: C_6  and  C_7
REMARK    3  A    between atoms: C_11  and  C_12
REMARK                            x       y       z     vdW  Elec       q    Type
REMARK                         _______ _______ _______ _____ _____    ______ ____
ROOT
ATOM      1  C   UNL     1      44.241   3.678  11.168  0.00  0.00    +0.000 A 
ATOM      2  C   UNL     1      43.025   4.347  11.261  0.00  0.00    +0.000 A 
ATOM      3  C   UNL     1      42.894   5.373  12.185  0.00  0.00    +0.000 A 
ATOM      4  C   UNL     1      43.980   5.707  12.987  0.00  0.00    +0.000 A 
ATOM      5  C   UNL     1      45.180   5.005  12.850  0.00  0.00    +0.000 A 
ATOM      6  N   UNL     1      45.317   4.006  11.938  0.00  0.00    +0.000 NA
ENDROOT
BRANCH   5   7
ATOM      7  C   UNL     1      46.370   5.305  13.674  0.00  0.00    +0.000 A 
ATOM      8  C   UNL     1      46.728   4.516  14.780  0.00  0.00    +0.000 A 
ATOM      9  C   UNL     1      47.840   4.860  15.534  0.00  0.00    +0.000 A 
ATOM     10  N   UNL     1      48.626   5.921  15.269  0.00  0.00    +0.000 NA
ATOM     11  C   UNL     1      48.289   6.664  14.194  0.00  0.00    +0.000 A 
ATOM     12  C   UNL     1      47.197   6.398  13.382  0.00  0.00    +0.000 A 
ENDBRANCH   5   7
BRANCH   1  13
ATOM     13  C   UNL     1      44.400   2.551  10.163  0.00  0.00    +0.000 C 
BRANCH  13  18
ATOM     14  C   UNL     1      47.621   2.162   6.503  0.00  0.00    +0.000 A 
ATOM     15  C   UNL     1      47.114   1.278   7.420  0.00  0.00    +0.000 A 
ATOM     16  N   UNL     1      46.049   1.543   8.201  0.00  0.00    +0.000 NA
ATOM     17  C   UNL     1      45.466   2.743   8.053  0.00  0.00    +0.000 A 
ATOM     18  N   UNL     1      44.351   3.076   8.809  0.00  0.00    +0.000 N 
ATOM     19  N   UNL     1      45.894   3.676   7.192  0.00  0.00    +0.000 NA
ATOM     20  C   UNL     1      46.963   3.363   6.432  0.00  0.00    +0.000 A 
ATOM     21  H   UNL     1      44.269   4.085   8.766  0.00  0.00    +0.000 HD
ENDBRANCH  13  18
ENDBRANCH   1  13
TORSDOF 3
ENDMDL
MODEL 2
REMARK VINA RESULT:    -7.699      0.993      1.573
REMARK INTER + INTRA:          -9.512
REMARK INTER:                  -8.969
REMARK INTRA:                  -0.543
REMARK UNBOUND:                -0.463
REMARK  Name = 
REMARK  3 active torsions:
REMARK  status: ('A' for Active; 'I' for Inactive)
REMARK    1  A    between atoms: N_5  and  C_6
REMARK    2  A    between atoms: C_6  and  C_7
REMARK    3  A    between atoms: C_11  and  C_12
REMARK                            x       y       z     vdW  Elec       q    Type
REMARK                         _______ _______ _______ _____ _____    ______ ____
ROOT
ATOM      1  C   UNL     1      44.236   3.801  11.137  0.00  0.00    +0.000 A 
ATOM      2  C   UNL     1      43.038   4.127  11.765  0.00  0.00    +0.000 A 
ATOM      3  C   UNL     1      43.028   5.154  12.697  0.00  0.00    +0.000 A 
ATOM      4  C   UNL     1      44.210   5.833  12.972  0.00  0.00    +0.000 A 
ATOM      5  C   UNL     1      45.385   5.468  12.310  0.00  0.00    +0.000 A 
ATOM      6  N   UNL     1      45.398   4.469  11.389  0.00  0.00    +0.000 NA
ENDROOT
BRANCH   5   7
ATOM      7  C   UNL     1      46.676   6.143  12.560  0.00  0.00    +0.000 A 
ATOM      8  C   UNL     1      47.274   6.982  11.606  0.00  0.00    +0.000 A 
ATOM      9  C   UNL     1      48.500   7.568  11.883  0.00  0.00    +0.000 A 
ATOM     10  N   UNL     1      49.171   7.392  13.037  0.00  0.00    +0.000 NA
ATOM     11  C   UNL     1      48.582   6.601  13.959  0.00  0.00    +0.000 A 
ATOM     12  C   UNL     1      47.360   5.973  13.771  0.00  0.00    +0.000 A 
ENDBRANCH   5   7
BRANCH   1  13
ATOM     13  C   UNL     1      44.265   2.677  10.118  0.00  0.00    +0.000 C 
BRANCH  13  18
ATOM     14  C   UNL     1      47.659   2.164   6.633  0.00  0.00    +0.000 A 
ATOM     15  C   UNL     1      47.055   1.296   7.506  0.00  0.00    +0.000 A 
ATOM     16  N   UNL     1      45.964   1.607   8.232  0.00  0.00    +0.000 NA
ATOM     17  C   UNL     1      45.456   2.839   8.072  0.00  0.00    +0.000 A 
ATOM     18  N   UNL     1      44.320   3.222   8.771  0.00  0.00    +0.000 N 
ATOM     19  N   UNL     1      45.980   3.759   7.251  0.00  0.00    +0.000 NA
ATOM     20  C   UNL     1      47.070   3.399   6.546  0.00  0.00    +0.000 A 
ATOM     21  H   UNL     1      44.294   4.235   8.741  0.00  0.00    +0.000 HD
ENDBRANCH  13  18
ENDBRANCH   1  13
TORSDOF 3
ENDMDL
MODEL 3
REMARK VINA RESULT:    -7.693      2.136      2.861
REMARK INTER + INTRA:          -9.505
REMARK INTER:                  -8.973
REMARK INTRA:                  -0.532
REMARK UNBOUND:                -0.463
REMARK  Name = 
REMARK  3 active torsions:
REMARK  status: ('A' for Active; 'I' for Inactive)
REMARK    1  A    between atoms: N_5  and  C_6
REMARK    2  A    between atoms: C_6  and  C_7
REMARK    3  A    between atoms: C_11  and  C_12
REMARK                            x       y       z     vdW  Elec       q    Type
REMARK                         _______ _______ _______ _____ _____    ______ ____
ROOT
ATOM      1  C   UNL     1      44.820   4.401  11.418  0.00  0.00    +0.000 A 
ATOM      2  C   UNL     1      45.282   3.485  12.359  0.00  0.00    +0.000 A 
ATOM      3  C   UNL     1      46.267   3.881  13.252  0.00  0.00    +0.000 A 
ATOM      4  C   UNL     1      46.760   5.180  13.187  0.00  0.00    +0.000 A 
ATOM      5  C   UNL     1      46.258   6.060  12.225  0.00  0.00    +0.000 A 
ATOM      6  N   UNL     1      45.286   5.681  11.355  0.00  0.00    +0.000 NA
ENDROOT
BRANCH   5   7
ATOM      7  C   UNL     1      46.742   7.451  12.098  0.00  0.00    +0.000 A 
ATOM      8  C   UNL     1      48.096   7.751  11.875  0.00  0.00    +0.000 A 
ATOM      9  C   UNL     1      48.499   9.076  11.791  0.00  0.00    +0.000 A 
ATOM     10  N   UNL     1      47.659  10.123  11.904  0.00  0.00    +0.000 NA
ATOM     11  C   UNL     1      46.356   9.828  12.098  0.00  0.00    +0.000 A 
ATOM     12  C   UNL     1      45.861   8.537  12.196  0.00  0.00    +0.000 A 
ENDBRANCH   5   7
BRANCH   1  13
ATOM     13  C   UNL     1      43.745   3.982  10.432  0.00  0.00    +0.000 C 
BRANCH  13  18
ATOM     14  C   UNL     1      47.030   2.102   7.335  0.00  0.00    +0.000 A 
ATOM     15  C   UNL     1      46.081   1.555   8.159  0.00  0.00    +0.000 A 
ATOM     16  N   UNL     1      45.112   2.274   8.760  0.00  0.00    +0.000 NA
ATOM     17  C   UNL     1      45.094   3.594   8.520  0.00  0.00    +0.000 A 
ATOM     18  N   UNL     1      44.111   4.394   9.086  0.00  0.00    +0.000 N 
ATOM     19  N   UNL     1      45.983   4.221   7.737  0.00  0.00    +0.000 NA
ATOM     20  C   UNL     1      46.932   3.458   7.159  0.00  0.00    +0.000 A 
ATOM     21  H   UNL     1      44.451   5.347   9.031  0.00  0.00    +0.000 HD
ENDBRANCH  13  18
ENDBRANCH   1  13
TORSDOF 3
ENDMDL
MODEL 4
REMARK VINA RESULT:    -7.395      1.684      6.267
REMARK INTER + INTRA:          -9.155
REMARK INTER:                  -8.520
REMARK INTRA:                  -0.634
REMARK UNBOUND:                -0.463
REMARK  Name = 
REMARK  3 active torsions:
REMARK  status: ('A' for Active; 'I' for Inactive)
REMARK    1  A    between atoms: N_5  and  C_6
REMARK    2  A    between atoms: C_6  and  C_7
REMARK    3  A    between atoms: C_11  and  C_12
REMARK                            x       y       z     vdW  Elec       q    Type
REMARK                         _______ _______ _______ _____ _____    ______ ____
ROOT
ATOM      1  C   UNL     1      44.049   5.001  11.090  0.00  0.00    +0.000 A 
ATOM      2  C   UNL     1      43.283   4.133  11.863  0.00  0.00    +0.000 A 
ATOM      3  C   UNL     1      43.265   2.785  11.537  0.00  0.00    +0.000 A 
ATOM      4  C   UNL     1      44.015   2.338  10.455  0.00  0.00    +0.000 A 
ATOM      5  C   UNL     1      44.770   3.251   9.715  0.00  0.00    +0.000 A 
ATOM      6  N   UNL     1      44.800   4.571  10.036  0.00  0.00    +0.000 NA
ENDROOT
BRANCH   5   7
ATOM      7  C   UNL     1      45.584   2.844   8.551  0.00  0.00    +0.000 A 
ATOM      8  C   UNL     1      46.058   1.530   8.397  0.00  0.00    +0.000 A 
ATOM      9  C   UNL     1      46.841   1.210   7.298  0.00  0.00    +0.000 A 
ATOM     10  N   UNL     1      47.182   2.091   6.338  0.00  0.00    +0.000 NA
ATOM     11  C   UNL     1      46.707   3.347   6.481  0.00  0.00    +0.000 A 
ATOM     12  C   UNL     1      45.919   3.759   7.544  0.00  0.00    +0.000 A 
ENDBRANCH   5   7
BRANCH   1  13
ATOM     13  C   UNL     1      44.077   6.480  11.431  0.00  0.00    +0.000 C 
BRANCH  13  18
ATOM     14  C   UNL     1      48.759   6.839  12.797  0.00  0.00    +0.000 A 
ATOM     15  C   UNL     1      48.029   7.366  11.764  0.00  0.00    +0.000 A 
ATOM     16  N   UNL     1      46.683   7.326  11.706  0.00  0.00    +0.000 NA
ATOM     17  C   UNL     1      46.045   6.738  12.729  0.00  0.00    +0.000 A 
ATOM     18  N   UNL     1      44.659   6.680  12.748  0.00  0.00    +0.000 N 
ATOM     19  N   UNL     1      46.671   6.187  13.778  0.00  0.00    +0.000 NA
ATOM     20  C   UNL     1      48.017   6.253  13.790  0.00  0.00    +0.000 A 
ATOM     21  H   UNL     1      44.412   5.959  13.416  0.00  0.00    +0.000 HD
ENDBRANCH  13  18
ENDBRANCH   1  13
TORSDOF 3
ENDMDL
MODEL 5
REMARK VINA RESULT:    -7.335      1.826      6.929
REMARK INTER + INTRA:          -9.085
REMARK INTER:                  -8.676
REMARK INTRA:                  -0.408
REMARK UNBOUND:                -0.463
REMARK  Name = 
REMARK  3 active torsions:
REMARK  status: ('A' for Active; 'I' for Inactive)
REMARK    1  A    between atoms: N_5  and  C_6
REMARK    2  A    between atoms: C_6  and  C_7
REMARK    3  A    between atoms: C_11  and  C_12
REMARK                            x       y       z     vdW  Elec       q    Type
REMARK                         _______ _______ _______ _____ _____    ______ ____
ROOT
ATOM      1  C   UNL     1      45.175   4.853  12.798  0.00  0.00    +0.000 A 
ATOM      2  C   UNL     1      43.899   5.398  12.896  0.00  0.00    +0.000 A 
ATOM      3  C   UNL     1      43.063   5.348  11.790  0.00  0.00    +0.000 A 
ATOM      4  C   UNL     1      43.520   4.751  10.620  0.00  0.00    +0.000 A 
ATOM      5  C   UNL     1      44.809   4.215  10.578  0.00  0.00    +0.000 A 
ATOM      6  N   UNL     1      45.628   4.252  11.662  0.00  0.00    +0.000 NA
ENDROOT
BRANCH   5   7
ATOM      7  C   UNL     1      45.359   3.572   9.365  0.00  0.00    +0.000 A 
ATOM      8  C   UNL     1      45.383   2.177   9.209  0.00  0.00    +0.000 A 
ATOM      9  C   UNL     1      45.935   1.626   8.062  0.00  0.00    +0.000 A 
ATOM     10  N   UNL     1      46.457   2.356   7.057  0.00  0.00    +0.000 NA
ATOM     11  C   UNL     1      46.413   3.697   7.204  0.00  0.00    +0.000 A 
ATOM     12  C   UNL     1      45.882   4.336   8.314  0.00  0.00    +0.000 A 
ENDBRANCH   5   7
BRANCH   1  13
ATOM     13  C   UNL     1      46.104   4.903  13.999  0.00  0.00    +0.000 C 
BRANCH  13  18
ATOM     14  C   UNL     1      48.328   3.087  17.957  0.00  0.00    +0.000 A 
ATOM     15  C   UNL     1      47.184   3.817  17.762  0.00  0.00    +0.000 A 
ATOM     16  N   UNL     1      46.624   4.015  16.553  0.00  0.00    +0.000 NA
ATOM     17  C   UNL     1      47.234   3.453  15.498  0.00  0.00    +0.000 A 
ATOM     18  N   UNL     1      46.701   3.597  14.225  0.00  0.00    +0.000 N 
ATOM     19  N   UNL     1      48.359   2.731  15.587  0.00  0.00    +0.000 NA
ATOM     20  C   UNL     1      48.881   2.561  16.818  0.00  0.00    +0.000 A 
ATOM     21  H   UNL     1      47.447   3.373  13.576  0.00  0.00    +0.000 HD
ENDBRANCH  13  18
ENDBRANCH   1  13
TORSDOF 3
ENDMDL
MODEL 6
REMARK VINA RESULT:    -7.211      1.336      1.982
REMARK INTER + INTRA:          -8.938
REMARK INTER:                  -8.394
REMARK INTRA:                  -0.544
REMARK UNBOUND:                -0.463
REMARK  Name = 
REMARK  3 active torsions:
REMARK  status: ('A' for Active; 'I' for Inactive)
REMARK    1  A    between atoms: N_5  and  C_6
REMARK    2  A    between atoms: C_6  and  C_7
REMARK    3  A    between atoms: C_11  and  C_12
REMARK                            x       y       z     vdW  Elec       q    Type
REMARK                         _______ _______ _______ _____ _____    ______ ____
ROOT
ATOM      1  C   UNL     1      44.932   5.233  11.498  0.00  0.00    +0.000 A 
ATOM      2  C   UNL     1      44.856   6.559  11.080  0.00  0.00    +0.000 A 
ATOM      3  C   UNL     1      45.550   7.526  11.791  0.00  0.00    +0.000 A 
ATOM      4  C   UNL     1      46.305   7.146  12.896  0.00  0.00    +0.000 A 
ATOM      5  C   UNL     1      46.350   5.801  13.270  0.00  0.00    +0.000 A 
ATOM      6  N   UNL     1      45.681   4.847  12.570  0.00  0.00    +0.000 NA
ENDROOT
BRANCH   5   7
ATOM      7  C   UNL     1      47.127   5.330  14.436  0.00  0.00    +0.000 A 
ATOM      8  C   UNL     1      48.050   6.157  15.098  0.00  0.00    +0.000 A 
ATOM      9  C   UNL     1      48.772   5.655  16.170  0.00  0.00    +0.000 A 
ATOM     10  N   UNL     1      48.642   4.399  16.639  0.00  0.00    +0.000 NA
ATOM     11  C   UNL     1      47.739   3.615  16.011  0.00  0.00    +0.000 A 
ATOM     12  C   UNL     1      46.973   4.029  14.933  0.00  0.00    +0.000 A 
ENDBRANCH   5   7
BRANCH   1  13
ATOM     13  C   UNL     1      44.176   4.162  10.732  0.00  0.00    +0.000 C 
BRANCH  13  18
ATOM     14  C   UNL     1      46.867   2.113   7.200  0.00  0.00    +0.000 A 
ATOM     15  C   UNL     1      46.152   1.616   8.259  0.00  0.00    +0.000 A 
ATOM     16  N   UNL     1      45.282   2.348   8.980  0.00  0.00    +0.000 NA
ATOM     17  C   UNL     1      45.119   3.631   8.622  0.00  0.00    +0.000 A 
ATOM     18  N   UNL     1      44.222   4.439   9.306  0.00  0.00    +0.000 N 
ATOM     19  N   UNL     1      45.778   4.210   7.608  0.00  0.00    +0.000 NA
ATOM     20  C   UNL     1      46.637   3.435   6.917  0.00  0.00    +0.000 A 
ATOM     21  H   UNL     1      44.474   5.396   9.085  0.00  0.00    +0.000 HD
ENDBRANCH  13  18
ENDBRANCH   1  13
TORSDOF 3
ENDMDL
MODEL 7
REMARK VINA RESULT:    -6.823      2.509      3.515
REMARK INTER + INTRA:          -8.483
REMARK INTER:                  -8.004
REMARK INTRA:                  -0.478
REMARK UNBOUND:                -0.463
REMARK  Name = 
REMARK  3 active torsions:
REMARK  status: ('A' for Active; 'I' for Inactive)
REMARK    1  A    between atoms: N_5  and  C_6
REMARK    2  A    between atoms: C_6  and  C_7
REMARK    3  A    between atoms: C_11  and  C_12
REMARK                            x       y       z     vdW  Elec       q    Type
REMARK                         _______ _______ _______ _____ _____    ______ ____
ROOT
ATOM      1  C   UNL     1      44.764   4.191  11.140  0.00  0.00    +0.000 A 
ATOM      2  C   UNL     1      45.237   3.612  12.314  0.00  0.00    +0.000 A 
ATOM      3  C   UNL     1      45.621   4.438  13.360  0.00  0.00    +0.000 A 
ATOM      4  C   UNL     1      45.517   5.817  13.210  0.00  0.00    +0.000 A 
ATOM      5  C   UNL     1      45.030   6.345  12.012  0.00  0.00    +0.000 A 
ATOM      6  N   UNL     1      44.643   5.540  10.988  0.00  0.00    +0.000 NA
ENDROOT
BRANCH   5   7
ATOM      7  C   UNL     1      44.900   7.800  11.785  0.00  0.00    +0.000 A 
ATOM      8  C   UNL     1      43.907   8.337  10.949  0.00  0.00    +0.000 A 
ATOM      9  C   UNL     1      43.847   9.708  10.750  0.00  0.00    +0.000 A 
ATOM     10  N   UNL     1      44.692  10.586  11.325  0.00  0.00    +0.000 NA
ATOM     11  C   UNL     1      45.632  10.066  12.143  0.00  0.00    +0.000 A 
ATOM     12  C   UNL     1      45.768   8.711  12.402  0.00  0.00    +0.000 A 
ENDBRANCH   5   7
BRANCH   1  13
ATOM     13  C   UNL     1      44.343   3.301   9.984  0.00  0.00    +0.000 C 
BRANCH  13  18
ATOM     14  C   UNL     1      47.365   2.058   6.346  0.00  0.00    +0.000 A 
ATOM     15  C   UNL     1      47.068   3.242   6.972  0.00  0.00    +0.000 A 
ATOM     16  N   UNL     1      46.370   3.323   8.121  0.00  0.00    +0.000 NA
ATOM     17  C   UNL     1      45.957   2.168   8.667  0.00  0.00    +0.000 A 
ATOM     18  N   UNL     1      45.252   2.174   9.862  0.00  0.00    +0.000 N 
ATOM     19  N   UNL     1      46.191   0.964   8.127  0.00  0.00    +0.000 NA
ATOM     20  C   UNL     1      46.894   0.936   6.978  0.00  0.00    +0.000 A 
ATOM     21  H   UNL     1      44.793   1.272   9.928  0.00  0.00    +0.000 HD
ENDBRANCH  13  18
ENDBRANCH   1  13
TORSDOF 3
ENDMDL
MODEL 8
REMARK VINA RESULT:    -6.557      3.026      7.282
REMARK INTER + INTRA:          -8.170
REMARK INTER:                  -7.605
REMARK INTRA:                  -0.565
REMARK UNBOUND:                -0.463
REMARK  Name = 
REMARK  3 active torsions:
REMARK  status: ('A' for Active; 'I' for Inactive)
REMARK    1  A    between atoms: N_5  and  C_6
REMARK    2  A    between atoms: C_6  and  C_7
REMARK    3  A    between atoms: C_11  and  C_12
REMARK                            x       y       z     vdW  Elec       q    Type
REMARK                         _______ _______ _______ _____ _____    ______ ____
ROOT
ATOM      1  C   UNL     1      48.102   6.674  14.022  0.00  0.00    +0.000 A 
ATOM      2  C   UNL     1      48.787   7.506  13.140  0.00  0.00    +0.000 A 
ATOM      3  C   UNL     1      48.341   7.604  11.831  0.00  0.00    +0.000 A 
ATOM      4  C   UNL     1      47.223   6.877  11.437  0.00  0.00    +0.000 A 
ATOM      5  C   UNL     1      46.570   6.061  12.364  0.00  0.00    +0.000 A 
ATOM      6  N   UNL     1      46.996   5.969  13.652  0.00  0.00    +0.000 NA
ENDROOT
BRANCH   5   7
ATOM      7  C   UNL     1      45.381   5.258  12.011  0.00  0.00    +0.000 A 
ATOM      8  C   UNL     1      44.598   4.618  12.986  0.00  0.00    +0.000 A 
ATOM      9  C   UNL     1      43.508   3.854  12.595  0.00  0.00    +0.000 A 
ATOM     10  N   UNL     1      43.132   3.685  11.313  0.00  0.00    +0.000 NA
ATOM     11  C   UNL     1      43.876   4.319  10.382  0.00  0.00    +0.000 A 
ATOM     12  C   UNL     1      44.982   5.102  10.677  0.00  0.00    +0.000 A 
ENDBRANCH   5   7
BRANCH   1  13
ATOM     13  C   UNL     1      48.579   6.552  15.458  0.00  0.00    +0.000 C 
BRANCH  13  18
ATOM     14  C   UNL     1      50.293   2.411  17.414  0.00  0.00    +0.000 A 
ATOM     15  C   UNL     1      50.705   3.718  17.448  0.00  0.00    +0.000 A 
ATOM     16  N   UNL     1      49.946   4.749  17.028  0.00  0.00    +0.000 NA
ATOM     17  C   UNL     1      48.723   4.456  16.559  0.00  0.00    +0.000 A 
ATOM     18  N   UNL     1      47.879   5.470  16.129  0.00  0.00    +0.000 N 
ATOM     19  N   UNL     1      48.236   3.210  16.478  0.00  0.00    +0.000 NA
ATOM     20  C   UNL     1      49.033   2.213  16.911  0.00  0.00    +0.000 A 
ATOM     21  H   UNL     1      47.169   5.027  15.556  0.00  0.00    +0.000 HD
ENDBRANCH  13  18
ENDBRANCH   1  13
TORSDOF 3
ENDMDL
MODEL 9
REMARK VINA RESULT:    -5.595      2.984      8.075
REMARK INTER + INTRA:          -7.039
REMARK INTER:                  -6.602
REMARK INTRA:                  -0.437
REMARK UNBOUND:                -0.463
REMARK  Name = 
REMARK  3 active torsions:
REMARK  status: ('A' for Active; 'I' for Inactive)
REMARK    1  A    between atoms: N_5  and  C_6
REMARK    2  A    between atoms: C_6  and  C_7
REMARK    3  A    between atoms: C_11  and  C_12
REMARK                            x       y       z     vdW  Elec       q    Type
REMARK                         _______ _______ _______ _____ _____    ______ ____
ROOT
ATOM      1  C   UNL     1      47.915   6.184  14.329  0.00  0.00    +0.000 A 
ATOM      2  C   UNL     1      48.619   7.144  13.608  0.00  0.00    +0.000 A 
ATOM      3  C   UNL     1      48.252   7.398  12.295  0.00  0.00    +0.000 A 
ATOM      4  C   UNL     1      47.190   6.693  11.739  0.00  0.00    +0.000 A 
ATOM      5  C   UNL     1      46.515   5.743  12.508  0.00  0.00    +0.000 A 
ATOM      6  N   UNL     1      46.864   5.498  13.799  0.00  0.00    +0.000 NA
ENDROOT
BRANCH   5   7
ATOM      7  C   UNL     1      45.382   4.955  11.977  0.00  0.00    +0.000 A 
ATOM      8  C   UNL     1      44.901   5.133  10.669  0.00  0.00    +0.000 A 
ATOM      9  C   UNL     1      43.817   4.386  10.232  0.00  0.00    +0.000 A 
ATOM     10  N   UNL     1      43.182   3.471  10.990  0.00  0.00    +0.000 NA
ATOM     11  C   UNL     1      43.662   3.290  12.239  0.00  0.00    +0.000 A 
ATOM     12  C   UNL     1      44.738   3.991  12.763  0.00  0.00    +0.000 A 
ENDBRANCH   5   7
BRANCH   1  13
ATOM     13  C   UNL     1      48.307   5.892  15.767  0.00  0.00    +0.000 C 
BRANCH  13  18
ATOM     14  C   UNL     1      51.804   4.405  18.845  0.00  0.00    +0.000 A 
ATOM     15  C   UNL     1      51.001   3.762  17.938  0.00  0.00    +0.000 A 
ATOM     16  N   UNL     1      50.258   4.403  17.015  0.00  0.00    +0.000 NA
ATOM     17  C   UNL     1      50.328   5.743  16.998  0.00  0.00    +0.000 A 
ATOM     18  N   UNL     1      49.608   6.469  16.059  0.00  0.00    +0.000 N 
ATOM     19  N   UNL     1      51.076   6.460  17.848  0.00  0.00    +0.000 NA
ATOM     20  C   UNL     1      51.801   5.773  18.753  0.00  0.00    +0.000 A 
ATOM     21  H   UNL     1      49.563   7.420  16.407  0.00  0.00    +0.000 HD
ENDBRANCH  13  18
ENDBRANCH   1  13
TORSDOF 3
ENDMDL
