MODEL 1
REMARK VINA RESULT:    -7.931      0.000      0.000
REMARK INTER + INTRA:         -11.551
REMARK INTER:                 -10.713
REMARK INTRA:                  -0.838
REMARK UNBOUND:                -0.838
REMARK  Name = 
REMARK  8 active torsions:
REMARK  status: ('A' for Active; 'I' for Inactive)
REMARK    1  A    between atoms: C_1  and  N_2
REMARK    2  A    between atoms: N_2  and  C_3
REMARK    3  A    between atoms: N_2  and  C_4
REMARK    4  A    between atoms: C_4  and  C_5
REMARK    5  A    between atoms: C_5  and  N_6
REMARK    6  A    between atoms: C_7  and  C_9
REMARK    7  A    between atoms: C_13  and  C_14
REMARK    8  A    between atoms: C_14  and  N_15
REMARK                            x       y       z     vdW  Elec       q    Type
REMARK                         _______ _______ _______ _____ _____    ______ ____
ROOT
ATOM      1  C   UNL     1      46.887   5.158  13.568  0.00  0.00    +0.000 A 
ATOM      2  C   UNL     1      47.730   6.227  13.242  0.00  0.00    +0.000 A 
ATOM      3  C   UNL     1      47.416   7.065  12.171  0.00  0.00    +0.000 A 
ATOM      4  C   UNL     1      46.284   6.817  11.395  0.00  0.00    +0.000 A 
ATOM      5  C   UNL     1      45.463   5.711  11.660  0.00  0.00    +0.000 A 
ATOM      6  C   UNL     1      45.761   4.899  12.769  0.00  0.00    +0.000 A 
ENDROOT
BRANCH   1   8
ATOM      7  N   UNL     1      47.147   4.791  15.971  0.00  0.00    +0.000 N 
ATOM      8  C   UNL     1      47.194   4.240  14.708  0.00  0.00    +0.000 C 
ATOM      9  O   UNL     1      47.463   3.063  14.499  0.00  0.00    +0.000 OA
ATOM     10  H   UNL     1      46.681   5.677  16.127  0.00  0.00    +0.000 HD
BRANCH   7  11
ATOM     11  C   UNL     1      47.398   4.003  17.163  0.00  0.00    +0.000 C 
BRANCH  11  12
ATOM     12  C   UNL     1      48.777   4.318  17.773  0.00  0.00    +0.000 C 
BRANCH  12  14
ATOM     13  C   UNL     1      51.192   3.973  17.766  0.00  0.00    +0.000 C 
ATOM     14  N   UNL     1      49.926   3.680  17.085  0.00  0.00    +0.000 NA
ATOM     15  C   UNL     1      49.727   2.224  17.052  0.00  0.00    +0.000 C 
ENDBRANCH  12  14
ENDBRANCH  11  12
ENDBRANCH   7  11
ENDBRANCH   1   8
BRANCH   5  16
ATOM     16  C   UNL     1      44.329   5.373  10.720  0.00  0.00    +0.000 C 
BRANCH  16  17
ATOM     17  N   UNL     1      44.497   4.098  10.042  0.00  0.00    +0.000 N 
ATOM     18  C   UNL     1      43.959   2.905  10.469  0.00  0.00    +0.000 A 
ATOM     19  C   UNL     1      44.442   1.904   9.655  0.00  0.00    +0.000 A 
ATOM     20  C   UNL     1      45.314   2.502   8.709  0.00  0.00    +0.000 A 
ATOM     21  C   UNL     1      46.103   2.033   7.646  0.00  0.00    +0.000 A 
ATOM     22  C   UNL     1      46.858   2.968   6.938  0.00  0.00    +0.000 A 
ATOM     23  C   UNL     1      46.803   4.301   7.319  0.00  0.00    +0.000 A 
ATOM     24  N   UNL     1      46.066   4.808   8.334  0.00  0.00    +0.000 NA
ATOM     25  C   UNL     1      45.342   3.870   8.981  0.00  0.00    +0.000 A 
ENDBRANCH  16  17
ENDBRANCH   5  16
TORSDOF 6
ENDMDL
MODEL 2
REMARK VINA RESULT:    -7.807      1.491      2.552
REMARK INTER + INTRA:         -11.383
REMARK INTER:                 -10.770
REMARK INTRA:                  -0.613
REMARK UNBOUND:                -0.838
REMARK  Name = 
REMARK  8 active torsions:
REMARK  status: ('A' for Active; 'I' for Inactive)
REMARK    1  A    between atoms: C_1  and  N_2
REMARK    2  A    between atoms: N_2  and  C_3
REMARK    3  A    between atoms: N_2  and  C_4
REMARK    4  A    between atoms: C_4  and  C_5
REMARK    5  A    between atoms: C_5  and  N_6
REMARK    6  A    between atoms: C_7  and  C_9
REMARK    7  A    between atoms: C_13  and  C_14
REMARK    8  A    between atoms: C_14  and  N_15
REMARK                            x       y       z     vdW  Elec       q    Type
REMARK                         _______ _______ _______ _____ _____    ______ ____
ROOT
ATOM      1  C   UNL     1      45.472   4.603  13.238  0.00  0.00    +0.000 A 
ATOM      2  C   UNL     1      44.387   5.465  13.435  0.00  0.00    +0.000 A 
ATOM      3  C   UNL     1      43.256   5.364  12.625  0.00  0.00    +0.000 A 
ATOM      4  C   UNL     1      43.216   4.431  11.589  0.00  0.00    +0.000 A 
ATOM      5  C   UNL     1      44.319   3.604  11.328  0.00  0.00    +0.000 A 
ATOM      6  C   UNL     1      45.437   3.681  12.179  0.00  0.00    +0.000 A 
ENDROOT
BRANCH   1   8
ATOM      7  N   UNL     1      46.543   4.396  15.426  0.00  0.00    +0.000 N 
ATOM      8  C   UNL     1      46.700   4.685  14.088  0.00  0.00    +0.000 C 
ATOM      9  O   UNL     1      47.777   4.989  13.588  0.00  0.00    +0.000 OA
ATOM     10  H   UNL     1      45.717   3.908  15.751  0.00  0.00    +0.000 HD
BRANCH   7  11
ATOM     11  C   UNL     1      47.659   4.413  16.352  0.00  0.00    +0.000 C 
BRANCH  11  12
ATOM     12  C   UNL     1      48.135   2.988  16.697  0.00  0.00    +0.000 C 
BRANCH  12  14
ATOM     13  C   UNL     1      50.363   2.052  17.027  0.00  0.00    +0.000 C 
ATOM     14  N   UNL     1      49.323   2.923  17.584  0.00  0.00    +0.000 NA
ATOM     15  C   UNL     1      49.874   4.275  17.757  0.00  0.00    +0.000 C 
ENDBRANCH  12  14
ENDBRANCH  11  12
ENDBRANCH   7  11
ENDBRANCH   1   8
BRANCH   5  16
ATOM     16  C   UNL     1      44.316   2.707  10.113  0.00  0.00    +0.000 C 
BRANCH  16  17
ATOM     17  N   UNL     1      45.243   3.131   9.076  0.00  0.00    +0.000 N 
ATOM     18  C   UNL     1      45.394   4.429   8.642  0.00  0.00    +0.000 A 
ATOM     19  C   UNL     1      46.256   4.421   7.567  0.00  0.00    +0.000 A 
ATOM     20  C   UNL     1      46.633   3.074   7.328  0.00  0.00    +0.000 A 
ATOM     21  C   UNL     1      47.457   2.421   6.397  0.00  0.00    +0.000 A 
ATOM     22  C   UNL     1      47.561   1.033   6.486  0.00  0.00    +0.000 A 
ATOM     23  C   UNL     1      46.845   0.369   7.471  0.00  0.00    +0.000 A 
ATOM     24  N   UNL     1      46.034   0.944   8.389  0.00  0.00    +0.000 NA
ATOM     25  C   UNL     1      45.976   2.288   8.275  0.00  0.00    +0.000 A 
ENDBRANCH  16  17
ENDBRANCH   5  16
TORSDOF 6
ENDMDL
MODEL 3
REMARK VINA RESULT:    -7.457      0.658      1.058
REMARK INTER + INTRA:         -10.911
REMARK INTER:                 -10.215
REMARK INTRA:                  -0.695
REMARK UNBOUND:                -0.838
REMARK  Name = 
REMARK  8 active torsions:
REMARK  status: ('A' for Active; 'I' for Inactive)
REMARK    1  A    between atoms: C_1  and  N_2
REMARK    2  A    between atoms: N_2  and  C_3
REMARK    3  A    between atoms: N_2  and  C_4
REMARK    4  A    between atoms: C_4  and  C_5
REMARK    5  A    between atoms: C_5  and  N_6
REMARK    6  A    between atoms: C_7  and  C_9
REMARK    7  A    between atoms: C_13  and  C_14
REMARK    8  A    between atoms: C_14  and  N_15
REMARK                            x       y       z     vdW  Elec       q    Type
REMARK                         _______ _______ _______ _____ _____    ______ ____
ROOT
ATOM      1  C   UNL     1      46.816   5.216  13.593  0.00  0.00    +0.000 A 
ATOM      2  C   UNL     1      47.623   6.328  13.327  0.00  0.00    +0.000 A 
ATOM      3  C   UNL     1      47.297   7.198  12.285  0.00  0.00    +0.000 A 
ATOM      4  C   UNL     1      46.188   6.941  11.479  0.00  0.00    +0.000 A 
ATOM      5  C   UNL     1      45.404   5.796  11.683  0.00  0.00    +0.000 A 
ATOM      6  C   UNL     1      45.714   4.950  12.763  0.00  0.00    +0.000 A 
ENDROOT
BRANCH   1   8
ATOM      7  N   UNL     1      47.141   4.784  15.977  0.00  0.00    +0.000 N 
ATOM      8  C   UNL     1      47.138   4.264  14.700  0.00  0.00    +0.000 C 
ATOM      9  O   UNL     1      47.374   3.087  14.453  0.00  0.00    +0.000 OA
ATOM     10  H   UNL     1      46.700   5.675  16.169  0.00  0.00    +0.000 HD
BRANCH   7  11
ATOM     11  C   UNL     1      47.411   3.961  17.140  0.00  0.00    +0.000 C 
BRANCH  11  12
ATOM     12  C   UNL     1      48.913   3.934  17.483  0.00  0.00    +0.000 C 
BRANCH  12  14
ATOM     13  C   UNL     1      48.421   5.121  19.556  0.00  0.00    +0.000 C 
ATOM     14  N   UNL     1      49.356   4.983  18.434  0.00  0.00    +0.000 NA
ATOM     15  C   UNL     1      50.684   4.633  18.960  0.00  0.00    +0.000 C 
ENDBRANCH  12  14
ENDBRANCH  11  12
ENDBRANCH   7  11
ENDBRANCH   1   8
BRANCH   5  16
ATOM     16  C   UNL     1      44.300   5.456  10.709  0.00  0.00    +0.000 C 
BRANCH  16  17
ATOM     17  N   UNL     1      44.464   4.158  10.076  0.00  0.00    +0.000 N 
ATOM     18  C   UNL     1      43.921   2.982  10.544  0.00  0.00    +0.000 A 
ATOM     19  C   UNL     1      44.401   1.952   9.765  0.00  0.00    +0.000 A 
ATOM     20  C   UNL     1      45.275   2.514   8.798  0.00  0.00    +0.000 A 
ATOM     21  C   UNL     1      46.062   2.005   7.753  0.00  0.00    +0.000 A 
ATOM     22  C   UNL     1      46.820   2.912   7.013  0.00  0.00    +0.000 A 
ATOM     23  C   UNL     1      46.770   4.257   7.347  0.00  0.00    +0.000 A 
ATOM     24  N   UNL     1      46.035   4.802   8.344  0.00  0.00    +0.000 NA
ATOM     25  C   UNL     1      45.307   3.890   9.023  0.00  0.00    +0.000 A 
ENDBRANCH  16  17
ENDBRANCH   5  16
TORSDOF 6
ENDMDL
MODEL 4
REMARK VINA RESULT:    -6.985      1.371      1.610
REMARK INTER + INTRA:         -10.273
REMARK INTER:                  -9.380
REMARK INTRA:                  -0.893
REMARK UNBOUND:                -0.838
REMARK  Name = 
REMARK  8 active torsions:
REMARK  status: ('A' for Active; 'I' for Inactive)
REMARK    1  A    between atoms: C_1  and  N_2
REMARK    2  A    between atoms: N_2  and  C_3
REMARK    3  A    between atoms: N_2  and  C_4
REMARK    4  A    between atoms: C_4  and  C_5
REMARK    5  A    between atoms: C_5  and  N_6
REMARK    6  A    between atoms: C_7  and  C_9
REMARK    7  A    between atoms: C_13  and  C_14
REMARK    8  A    between atoms: C_14  and  N_15
REMARK                            x       y       z     vdW  Elec       q    Type
REMARK                         _______ _______ _______ _____ _____    ______ ____
ROOT
ATOM      1  C   UNL     1      47.936   6.517  13.804  0.00  0.00    +0.000 A 
ATOM      2  C   UNL     1      48.992   6.986  13.015  0.00  0.00    +0.000 A 
ATOM      3  C   UNL     1      48.755   7.410  11.707  0.00  0.00    +0.000 A 
ATOM      4  C   UNL     1      47.472   7.330  11.166  0.00  0.00    +0.000 A 
ATOM      5  C   UNL     1      46.411   6.799  11.914  0.00  0.00    +0.000 A 
ATOM      6  C   UNL     1      46.650   6.417  13.247  0.00  0.00    +0.000 A 
ENDROOT
BRANCH   1   8
ATOM      7  N   UNL     1      47.371   5.006  15.642  0.00  0.00    +0.000 N 
ATOM      8  C   UNL     1      48.156   6.054  15.209  0.00  0.00    +0.000 C 
ATOM      9  O   UNL     1      49.003   6.594  15.911  0.00  0.00    +0.000 OA
ATOM     10  H   UNL     1      46.876   4.427  14.974  0.00  0.00    +0.000 HD
BRANCH   7  11
ATOM     11  C   UNL     1      47.504   4.446  16.973  0.00  0.00    +0.000 C 
BRANCH  11  12
ATOM     12  C   UNL     1      48.321   3.140  16.962  0.00  0.00    +0.000 C 
BRANCH  12  14
ATOM     13  C   UNL     1      50.203   4.191  18.103  0.00  0.00    +0.000 C 
ATOM     14  N   UNL     1      49.793   3.322  16.995  0.00  0.00    +0.000 NA
ATOM     15  C   UNL     1      50.442   2.012  17.151  0.00  0.00    +0.000 C 
ENDBRANCH  12  14
ENDBRANCH  11  12
ENDBRANCH   7  11
ENDBRANCH   1   8
BRANCH   5  16
ATOM     16  C   UNL     1      45.065   6.582  11.264  0.00  0.00    +0.000 C 
BRANCH  16  17
ATOM     17  N   UNL     1      44.778   5.186  10.975  0.00  0.00    +0.000 N 
ATOM     18  C   UNL     1      44.195   4.306  11.859  0.00  0.00    +0.000 A 
ATOM     19  C   UNL     1      44.208   3.054  11.283  0.00  0.00    +0.000 A 
ATOM     20  C   UNL     1      44.831   3.170  10.013  0.00  0.00    +0.000 A 
ATOM     21  C   UNL     1      45.146   2.280   8.974  0.00  0.00    +0.000 A 
ATOM     22  C   UNL     1      45.795   2.797   7.853  0.00  0.00    +0.000 A 
ATOM     23  C   UNL     1      46.104   4.149   7.822  0.00  0.00    +0.000 A 
ATOM     24  N   UNL     1      45.830   5.050   8.794  0.00  0.00    +0.000 NA
ATOM     25  C   UNL     1      45.189   4.508   9.851  0.00  0.00    +0.000 A 
ENDBRANCH  16  17
ENDBRANCH   5  16
TORSDOF 6
ENDMDL
MODEL 5
REMARK VINA RESULT:    -6.506      2.041      7.793
REMARK INTER + INTRA:          -9.626
REMARK INTER:                  -8.924
REMARK INTRA:                  -0.702
REMARK UNBOUND:                -0.838
REMARK  Name = 
REMARK  8 active torsions:
REMARK  status: ('A' for Active; 'I' for Inactive)
REMARK    1  A    between atoms: C_1  and  N_2
REMARK    2  A    between atoms: N_2  and  C_3
REMARK    3  A    between atoms: N_2  and  C_4
REMARK    4  A    between atoms: C_4  and  C_5
REMARK    5  A    between atoms: C_5  and  N_6
REMARK    6  A    between atoms: C_7  and  C_9
REMARK    7  A    between atoms: C_13  and  C_14
REMARK    8  A    between atoms: C_14  and  N_15
REMARK                            x       y       z     vdW  Elec       q    Type
REMARK                         _______ _______ _______ _____ _____    ______ ____
ROOT
ATOM      1  C   UNL     1      45.612   6.561  11.446  0.00  0.00    +0.000 A 
ATOM      2  C   UNL     1      44.921   7.725  11.802  0.00  0.00    +0.000 A 
ATOM      3  C   UNL     1      45.531   8.680  12.617  0.00  0.00    +0.000 A 
ATOM      4  C   UNL     1      46.816   8.459  13.114  0.00  0.00    +0.000 A 
ATOM      5  C   UNL     1      47.500   7.269  12.827  0.00  0.00    +0.000 A 
ATOM      6  C   UNL     1      46.896   6.334  11.967  0.00  0.00    +0.000 A 
ENDROOT
BRANCH   1   8
ATOM      7  N   UNL     1      45.668   5.191   9.422  0.00  0.00    +0.000 N 
ATOM      8  C   UNL     1      44.987   5.518  10.575  0.00  0.00    +0.000 C 
ATOM      9  O   UNL     1      43.928   4.995  10.902  0.00  0.00    +0.000 OA
ATOM     10  H   UNL     1      46.643   5.444   9.313  0.00  0.00    +0.000 HD
BRANCH   7  11
ATOM     11  C   UNL     1      45.183   4.176   8.506  0.00  0.00    +0.000 C 
BRANCH  11  12
ATOM     12  C   UNL     1      46.212   3.868   7.401  0.00  0.00    +0.000 C 
BRANCH  12  14
ATOM     13  C   UNL     1      47.873   2.155   6.895  0.00  0.00    +0.000 C 
ATOM     14  N   UNL     1      46.455   2.425   7.157  0.00  0.00    +0.000 NA
ATOM     15  C   UNL     1      46.032   1.655   8.336  0.00  0.00    +0.000 C 
ENDBRANCH  12  14
ENDBRANCH  11  12
ENDBRANCH   7  11
ENDBRANCH   1   8
BRANCH   5  16
ATOM     16  C   UNL     1      48.826   6.983  13.493  0.00  0.00    +0.000 C 
BRANCH  16  17
ATOM     17  N   UNL     1      48.751   6.952  14.945  0.00  0.00    +0.000 N 
ATOM     18  C   UNL     1      49.262   7.921  15.778  0.00  0.00    +0.000 A 
ATOM     19  C   UNL     1      49.122   7.483  17.077  0.00  0.00    +0.000 A 
ATOM     20  C   UNL     1      48.518   6.200  17.036  0.00  0.00    +0.000 A 
ATOM     21  C   UNL     1      48.130   5.251  17.996  0.00  0.00    +0.000 A 
ATOM     22  C   UNL     1      47.563   4.062  17.538  0.00  0.00    +0.000 A 
ATOM     23  C   UNL     1      47.420   3.870  16.172  0.00  0.00    +0.000 A 
ATOM     24  N   UNL     1      47.779   4.745  15.204  0.00  0.00    +0.000 NA
ATOM     25  C   UNL     1      48.309   5.886  15.693  0.00  0.00    +0.000 A 
ENDBRANCH  16  17
ENDBRANCH   5  16
TORSDOF 6
ENDMDL
MODEL 6
REMARK VINA RESULT:    -6.253      3.333      4.366
REMARK INTER + INTRA:          -9.284
REMARK INTER:                  -8.664
REMARK INTRA:                  -0.621
REMARK UNBOUND:                -0.838
REMARK  Name = 
REMARK  8 active torsions:
REMARK  status: ('A' for Active; 'I' for Inactive)
REMARK    1  A    between atoms: C_1  and  N_2
REMARK    2  A    between atoms: N_2  and  C_3
REMARK    3  A    between atoms: N_2  and  C_4
REMARK    4  A    between atoms: C_4  and  C_5
REMARK    5  A    between atoms: C_5  and  N_6
REMARK    6  A    between atoms: C_7  and  C_9
REMARK    7  A    between atoms: C_13  and  C_14
REMARK    8  A    between atoms: C_14  and  N_15
REMARK                            x       y       z     vdW  Elec       q    Type
REMARK                         _______ _______ _______ _____ _____    ______ ____
ROOT
ATOM      1  C   UNL     1      46.484   6.368  12.297  0.00  0.00    +0.000 A 
ATOM      2  C   UNL     1      45.990   5.682  13.413  0.00  0.00    +0.000 A 
ATOM      3  C   UNL     1      45.105   4.616  13.245  0.00  0.00    +0.000 A 
ATOM      4  C   UNL     1      44.678   4.254  11.967  0.00  0.00    +0.000 A 
ATOM      5  C   UNL     1      45.106   4.971  10.839  0.00  0.00    +0.000 A 
ATOM      6  C   UNL     1      46.033   6.014  11.015  0.00  0.00    +0.000 A 
ENDROOT
BRANCH   1   8
ATOM      7  N   UNL     1      48.423   7.619  11.489  0.00  0.00    +0.000 N 
ATOM      8  C   UNL     1      47.432   7.515  12.442  0.00  0.00    +0.000 C 
ATOM      9  O   UNL     1      47.304   8.309  13.367  0.00  0.00    +0.000 OA
ATOM     10  H   UNL     1      48.348   7.113  10.615  0.00  0.00    +0.000 HD
BRANCH   7  11
ATOM     11  C   UNL     1      49.389   8.701  11.501  0.00  0.00    +0.000 C 
BRANCH  11  12
ATOM     12  C   UNL     1      50.668   8.314  12.268  0.00  0.00    +0.000 C 
BRANCH  12  14
ATOM     13  C   UNL     1      51.793   7.365  10.323  0.00  0.00    +0.000 C 
ATOM     14  N   UNL     1      51.906   8.296  11.451  0.00  0.00    +0.000 NA
ATOM     15  C   UNL     1      52.166   9.647  10.932  0.00  0.00    +0.000 C 
ENDBRANCH  12  14
ENDBRANCH  11  12
ENDBRANCH   7  11
ENDBRANCH   1   8
BRANCH   5  16
ATOM     16  C   UNL     1      44.518   4.661   9.483  0.00  0.00    +0.000 C 
BRANCH  16  17
ATOM     17  N   UNL     1      44.925   3.370   8.954  0.00  0.00    +0.000 N 
ATOM     18  C   UNL     1      44.441   2.156   9.388  0.00  0.00    +0.000 A 
ATOM     19  C   UNL     1      45.154   1.162   8.753  0.00  0.00    +0.000 A 
ATOM     20  C   UNL     1      46.114   1.788   7.916  0.00  0.00    +0.000 A 
ATOM     21  C   UNL     1      47.116   1.338   7.042  0.00  0.00    +0.000 A 
ATOM     22  C   UNL     1      47.887   2.301   6.390  0.00  0.00    +0.000 A 
ATOM     23  C   UNL     1      47.636   3.642   6.641  0.00  0.00    +0.000 A 
ATOM     24  N   UNL     1      46.689   4.132   7.473  0.00  0.00    +0.000 NA
ATOM     25  C   UNL     1      45.959   3.165   8.070  0.00  0.00    +0.000 A 
ENDBRANCH  16  17
ENDBRANCH   5  16
TORSDOF 6
ENDMDL
MODEL 7
REMARK VINA RESULT:    -6.173      3.676      4.708
REMARK INTER + INTRA:          -9.176
REMARK INTER:                  -8.443
REMARK INTRA:                  -0.733
REMARK UNBOUND:                -0.838
REMARK  Name = 
REMARK  8 active torsions:
REMARK  status: ('A' for Active; 'I' for Inactive)
REMARK    1  A    between atoms: C_1  and  N_2
REMARK    2  A    between atoms: N_2  and  C_3
REMARK    3  A    between atoms: N_2  and  C_4
REMARK    4  A    between atoms: C_4  and  C_5
REMARK    5  A    between atoms: C_5  and  N_6
REMARK    6  A    between atoms: C_7  and  C_9
REMARK    7  A    between atoms: C_13  and  C_14
REMARK    8  A    between atoms: C_14  and  N_15
REMARK                            x       y       z     vdW  Elec       q    Type
REMARK                         _______ _______ _______ _____ _____    ______ ____
ROOT
ATOM      1  C   UNL     1      48.471   7.270  12.351  0.00  0.00    +0.000 A 
ATOM      2  C   UNL     1      48.514   6.642  13.601  0.00  0.00    +0.000 A 
ATOM      3  C   UNL     1      47.455   5.833  14.015  0.00  0.00    +0.000 A 
ATOM      4  C   UNL     1      46.332   5.678  13.203  0.00  0.00    +0.000 A 
ATOM      5  C   UNL     1      46.237   6.352  11.977  0.00  0.00    +0.000 A 
ATOM      6  C   UNL     1      47.328   7.129  11.547  0.00  0.00    +0.000 A 
ENDROOT
BRANCH   1   8
ATOM      7  N   UNL     1      50.867   7.669  12.072  0.00  0.00    +0.000 N 
ATOM      8  C   UNL     1      49.588   8.144  11.877  0.00  0.00    +0.000 C 
ATOM      9  O   UNL     1      49.345   9.218  11.339  0.00  0.00    +0.000 OA
ATOM     10  H   UNL     1      51.024   6.689  12.277  0.00  0.00    +0.000 HD
BRANCH   7  11
ATOM     11  C   UNL     1      52.036   8.407  11.634  0.00  0.00    +0.000 C 
BRANCH  11  12
ATOM     12  C   UNL     1      52.480   7.985  10.221  0.00  0.00    +0.000 C 
BRANCH  12  14
ATOM     13  C   UNL     1      54.518   7.390  11.422  0.00  0.00    +0.000 C 
ATOM     14  N   UNL     1      53.779   7.270  10.161  0.00  0.00    +0.000 NA
ATOM     15  C   UNL     1      53.539   5.847   9.882  0.00  0.00    +0.000 C 
ENDBRANCH  12  14
ENDBRANCH  11  12
ENDBRANCH   7  11
ENDBRANCH   1   8
BRANCH   5  16
ATOM     16  C   UNL     1      44.953   6.292  11.182  0.00  0.00    +0.000 C 
BRANCH  16  17
ATOM     17  N   UNL     1      44.636   4.960  10.691  0.00  0.00    +0.000 N 
ATOM     18  C   UNL     1      43.895   4.026  11.379  0.00  0.00    +0.000 A 
ATOM     19  C   UNL     1      43.921   2.850  10.661  0.00  0.00    +0.000 A 
ATOM     20  C   UNL     1      44.714   3.068   9.505  0.00  0.00    +0.000 A 
ATOM     21  C   UNL     1      45.121   2.284   8.414  0.00  0.00    +0.000 A 
ATOM     22  C   UNL     1      45.940   2.881   7.457  0.00  0.00    +0.000 A 
ATOM     23  C   UNL     1      46.320   4.204   7.631  0.00  0.00    +0.000 A 
ATOM     24  N   UNL     1      45.964   5.005   8.662  0.00  0.00    +0.000 NA
ATOM     25  C   UNL     1      45.159   4.389   9.555  0.00  0.00    +0.000 A 
ENDBRANCH  16  17
ENDBRANCH   5  16
TORSDOF 6
ENDMDL
MODEL 8
REMARK VINA RESULT:    -6.041      3.461      7.265
REMARK INTER + INTRA:          -8.997
REMARK INTER:                  -8.407
REMARK INTRA:                  -0.591
REMARK UNBOUND:                -0.838
REMARK  Name = 
REMARK  8 active torsions:
REMARK  status: ('A' for Active; 'I' for Inactive)
REMARK    1  A    between atoms: C_1  and  N_2
REMARK    2  A    between atoms: N_2  and  C_3
REMARK    3  A    between atoms: N_2  and  C_4
REMARK    4  A    between atoms: C_4  and  C_5
REMARK    5  A    between atoms: C_5  and  N_6
REMARK    6  A    between atoms: C_7  and  C_9
REMARK    7  A    between atoms: C_13  and  C_14
REMARK    8  A    between atoms: C_14  and  N_15
REMARK                            x       y       z     vdW  Elec       q    Type
REMARK                         _______ _______ _______ _____ _____    ______ ____
ROOT
ATOM      1  C   UNL     1      44.258   4.044  10.742  0.00  0.00    +0.000 A 
ATOM      2  C   UNL     1      43.592   3.430  11.809  0.00  0.00    +0.000 A 
ATOM      3  C   UNL     1      43.370   4.133  12.994  0.00  0.00    +0.000 A 
ATOM      4  C   UNL     1      43.845   5.436  13.135  0.00  0.00    +0.000 A 
ATOM      5  C   UNL     1      44.576   6.048  12.106  0.00  0.00    +0.000 A 
ATOM      6  C   UNL     1      44.755   5.349  10.898  0.00  0.00    +0.000 A 
ENDROOT
BRANCH   1   8
ATOM      7  N   UNL     1      45.186   2.119   9.553  0.00  0.00    +0.000 N 
ATOM      8  C   UNL     1      44.514   3.319   9.459  0.00  0.00    +0.000 C 
ATOM      9  O   UNL     1      44.127   3.791   8.396  0.00  0.00    +0.000 OA
ATOM     10  H   UNL     1      45.261   1.643  10.444  0.00  0.00    +0.000 HD
BRANCH   7  11
ATOM     11  C   UNL     1      45.472   1.306   8.387  0.00  0.00    +0.000 C 
BRANCH  11  12
ATOM     12  C   UNL     1      46.828   1.675   7.755  0.00  0.00    +0.000 C 
BRANCH  12  14
ATOM     13  C   UNL     1      47.147   3.996   7.079  0.00  0.00    +0.000 C 
ATOM     14  N   UNL     1      46.754   2.652   6.642  0.00  0.00    +0.000 NA
ATOM     15  C   UNL     1      47.648   2.222   5.557  0.00  0.00    +0.000 C 
ENDBRANCH  12  14
ENDBRANCH  11  12
ENDBRANCH   7  11
ENDBRANCH   1   8
BRANCH   5  16
ATOM     16  C   UNL     1      45.210   7.400  12.333  0.00  0.00    +0.000 C 
BRANCH  16  17
ATOM     17  N   UNL     1      46.663   7.364  12.350  0.00  0.00    +0.000 N 
ATOM     18  C   UNL     1      47.417   6.292  12.770  0.00  0.00    +0.000 A 
ATOM     19  C   UNL     1      48.741   6.676  12.769  0.00  0.00    +0.000 A 
ATOM     20  C   UNL     1      48.796   8.030  12.349  0.00  0.00    +0.000 A 
ATOM     21  C   UNL     1      49.820   8.970  12.155  0.00  0.00    +0.000 A 
ATOM     22  C   UNL     1      49.454  10.248  11.732  0.00  0.00    +0.000 A 
ATOM     23  C   UNL     1      48.110  10.530  11.537  0.00  0.00    +0.000 A 
ATOM     24  N   UNL     1      47.083   9.667  11.712  0.00  0.00    +0.000 NA
ATOM     25  C   UNL     1      47.485   8.440  12.106  0.00  0.00    +0.000 A 
ENDBRANCH  16  17
ENDBRANCH   5  16
TORSDOF 6
ENDMDL
MODEL 9
REMARK VINA RESULT:    -5.817      2.646      7.702
REMARK INTER + INTRA:          -8.696
REMARK INTER:                  -7.875
REMARK INTRA:                  -0.821
REMARK UNBOUND:                -0.838
REMARK  Name = 
REMARK  8 active torsions:
REMARK  status: ('A' for Active; 'I' for Inactive)
REMARK    1  A    between atoms: C_1  and  N_2
REMARK    2  A    between atoms: N_2  and  C_3
REMARK    3  A    between atoms: N_2  and  C_4
REMARK    4  A    between atoms: C_4  and  C_5
REMARK    5  A    between atoms: C_5  and  N_6
REMARK    6  A    between atoms: C_7  and  C_9
REMARK    7  A    between atoms: C_13  and  C_14
REMARK    8  A    between atoms: C_14  and  N_15
REMARK                            x       y       z     vdW  Elec       q    Type
REMARK                         _______ _______ _______ _____ _____    ______ ____
ROOT
ATOM      1  C   UNL     1      48.006   7.102  12.876  0.00  0.00    +0.000 A 
ATOM      2  C   UNL     1      48.969   7.714  12.065  0.00  0.00    +0.000 A 
ATOM      3  C   UNL     1      50.172   8.155  12.618  0.00  0.00    +0.000 A 
ATOM      4  C   UNL     1      50.403   8.026  13.987  0.00  0.00    +0.000 A 
ATOM      5  C   UNL     1      49.425   7.480  14.830  0.00  0.00    +0.000 A 
ATOM      6  C   UNL     1      48.234   6.995  14.258  0.00  0.00    +0.000 A 
ENDROOT
BRANCH   1   8
ATOM      7  N   UNL     1      45.656   6.512  13.203  0.00  0.00    +0.000 N 
ATOM      8  C   UNL     1      46.706   6.618  12.317  0.00  0.00    +0.000 C 
ATOM      9  O   UNL     1      46.610   6.346  11.125  0.00  0.00    +0.000 OA
ATOM     10  H   UNL     1      45.694   6.978  14.101  0.00  0.00    +0.000 HD
BRANCH   7  11
ATOM     11  C   UNL     1      44.336   6.081  12.782  0.00  0.00    +0.000 C 
BRANCH  11  12
ATOM     12  C   UNL     1      44.171   4.554  12.904  0.00  0.00    +0.000 C 
BRANCH  12  14
ATOM     13  C   UNL     1      43.326   2.607  11.701  0.00  0.00    +0.000 C 
ATOM     14  N   UNL     1      44.140   3.823  11.613  0.00  0.00    +0.000 NA
ATOM     15  C   UNL     1      43.580   4.698  10.572  0.00  0.00    +0.000 C 
ENDBRANCH  12  14
ENDBRANCH  11  12
ENDBRANCH   7  11
ENDBRANCH   1   8
BRANCH   5  16
ATOM     16  C   UNL     1      49.632   7.485  16.327  0.00  0.00    +0.000 C 
BRANCH  16  17
ATOM     17  N   UNL     1      50.011   6.189  16.866  0.00  0.00    +0.000 N 
ATOM     18  C   UNL     1      51.307   5.752  17.020  0.00  0.00    +0.000 A 
ATOM     19  C   UNL     1      51.266   4.436  17.428  0.00  0.00    +0.000 A 
ATOM     20  C   UNL     1      49.902   4.054  17.513  0.00  0.00    +0.000 A 
ATOM     21  C   UNL     1      49.218   2.876  17.854  0.00  0.00    +0.000 A 
ATOM     22  C   UNL     1      47.825   2.898  17.800  0.00  0.00    +0.000 A 
ATOM     23  C   UNL     1      47.187   4.065  17.406  0.00  0.00    +0.000 A 
ATOM     24  N   UNL     1      47.794   5.225  17.063  0.00  0.00    +0.000 NA
ATOM     25  C   UNL     1      49.140   5.162  17.144  0.00  0.00    +0.000 A 
ENDBRANCH  16  17
ENDBRANCH   5  16
TORSDOF 6
ENDMDL
