MODEL 1
REMARK VINA RESULT:    -7.835      0.000      0.000
REMARK INTER + INTRA:          -9.837
REMARK INTER:                  -9.667
REMARK INTRA:                  -0.170
REMARK UNBOUND:                -0.170
REMARK  Name = 
REMARK  4 active torsions:
REMARK  status: ('A' for Active; 'I' for Inactive)
REMARK    1  A    between atoms: C_2  and  C_3
REMARK    2  A    between atoms: C_6  and  C_7
REMARK    3  A    between atoms: C_7  and  C_8
REMARK    4  A    between atoms: C_16  and  C_17
REMARK                            x       y       z     vdW  Elec       q    Type
REMARK                         _______ _______ _______ _____ _____    ______ ____
ROOT
ATOM      1  C   UNL     1      45.424   4.261  12.039  0.00  0.00    +0.000 A 
ATOM      2  C   UNL     1      45.940   3.282  12.887  0.00  0.00    +0.000 A 
ATOM      3  C   UNL     1      47.022   3.595  13.692  0.00  0.00    +0.000 A 
ATOM      4  N   UNL     1      47.624   4.805  13.719  0.00  0.00    +0.000 NA
ATOM      5  C   UNL     1      47.110   5.778  12.941  0.00  0.00    +0.000 A 
ATOM      6  N   UNL     1      47.718   7.020  12.899  0.00  0.00    +0.000 N 
ATOM      7  C   UNL     1      49.160   7.128  13.067  0.00  0.00    +0.000 C 
ATOM      8  C   UNL     1      49.520   7.838  14.368  0.00  0.00    +0.000 C 
ATOM      9  C   UNL     1      48.754   9.157  14.533  0.00  0.00    +0.000 C 
ATOM     10  C   UNL     1      47.248   8.900  14.398  0.00  0.00    +0.000 C 
ATOM     11  C   UNL     1      46.899   8.212  13.079  0.00  0.00    +0.000 C 
ATOM     12  C   UNL     1      46.011   5.531  12.116  0.00  0.00    +0.000 A 
ENDROOT
BRANCH   9  13
ATOM     13  C   UNL     1      49.222  10.236  13.560  0.00  0.00    +0.000 C 
ATOM     14  N   UNL     1      48.401  11.318  13.441  0.00  0.00    +0.000 N 
ATOM     15  O   UNL     1      50.239  10.166  12.878  0.00  0.00    +0.000 OA
ATOM     16  H   UNL     1      47.455  11.322  13.792  0.00  0.00    +0.000 HD
ATOM     17  H   UNL     1      48.652  12.003  12.738  0.00  0.00    +0.000 HD
ENDBRANCH   9  13
BRANCH   1  18
ATOM     18  C   UNL     1      44.417   3.931  10.943  0.00  0.00    +0.000 C 
ATOM     19  C   UNL     1      43.103   3.260  11.319  0.00  0.00    +0.000 C 
ATOM     20  C   UNL     1      43.100   4.692  10.890  0.00  0.00    +0.000 C 
BRANCH  18  24
ATOM     21  C   UNL     1      46.611   2.611   7.496  0.00  0.00    +0.000 A 
ATOM     22  C   UNL     1      46.376   3.973   7.653  0.00  0.00    +0.000 A 
ATOM     23  C   UNL     1      45.612   4.410   8.737  0.00  0.00    +0.000 A 
ATOM     24  C   UNL     1      45.092   3.480   9.645  0.00  0.00    +0.000 A 
ATOM     25  N   UNL     1      45.294   2.146   9.467  0.00  0.00    +0.000 NA
ATOM     26  C   UNL     1      46.050   1.745   8.419  0.00  0.00    +0.000 A 
BRANCH  21  28
ATOM     27  N   UNL     1      48.069   1.703   5.561  0.00  0.00    +0.000 NA
ATOM     28  C   UNL     1      47.414   2.110   6.431  0.00  0.00    +0.000 C 
ENDBRANCH  21  28
ENDBRANCH  18  24
ENDBRANCH   1  18
TORSDOF 4
ENDMDL
MODEL 2
REMARK VINA RESULT:    -7.333      1.617      2.415
REMARK INTER + INTRA:          -9.218
REMARK INTER:                  -9.372
REMARK INTRA:                   0.154
REMARK UNBOUND:                -0.170
REMARK  Name = 
REMARK  4 active torsions:
REMARK  status: ('A' for Active; 'I' for Inactive)
REMARK    1  A    between atoms: C_2  and  C_3
REMARK    2  A    between atoms: C_6  and  C_7
REMARK    3  A    between atoms: C_7  and  C_8
REMARK    4  A    between atoms: C_16  and  C_17
REMARK                            x       y       z     vdW  Elec       q    Type
REMARK                         _______ _______ _______ _____ _____    ______ ____
ROOT
ATOM      1  C   UNL     1      45.019   5.707  11.211  0.00  0.00    +0.000 A 
ATOM      2  C   UNL     1      44.172   6.808  11.102  0.00  0.00    +0.000 A 
ATOM      3  C   UNL     1      44.574   8.018  11.640  0.00  0.00    +0.000 A 
ATOM      4  N   UNL     1      45.753   8.215  12.271  0.00  0.00    +0.000 NA
ATOM      5  C   UNL     1      46.605   7.175  12.345  0.00  0.00    +0.000 A 
ATOM      6  N   UNL     1      47.805   7.313  13.022  0.00  0.00    +0.000 N 
ATOM      7  C   UNL     1      47.890   8.202  14.171  0.00  0.00    +0.000 C 
ATOM      8  C   UNL     1      48.787   9.402  13.883  0.00  0.00    +0.000 C 
ATOM      9  C   UNL     1      50.140   8.981  13.295  0.00  0.00    +0.000 C 
ATOM     10  C   UNL     1      49.913   8.104  12.058  0.00  0.00    +0.000 C 
ATOM     11  C   UNL     1      49.035   6.891  12.365  0.00  0.00    +0.000 C 
ATOM     12  C   UNL     1      46.265   5.930  11.811  0.00  0.00    +0.000 A 
ENDROOT
BRANCH   9  13
ATOM     13  C   UNL     1      51.034   8.281  14.315  0.00  0.00    +0.000 C 
ATOM     14  N   UNL     1      52.229   7.830  13.839  0.00  0.00    +0.000 N 
ATOM     15  O   UNL     1      50.729   8.078  15.486  0.00  0.00    +0.000 OA
ATOM     16  H   UNL     1      52.427   7.760  12.852  0.00  0.00    +0.000 HD
ATOM     17  H   UNL     1      52.797   7.289  14.480  0.00  0.00    +0.000 HD
ENDBRANCH   9  13
BRANCH   1  18
ATOM     18  C   UNL     1      44.552   4.293  10.885  0.00  0.00    +0.000 C 
ATOM     19  C   UNL     1      44.307   3.310  12.023  0.00  0.00    +0.000 C 
ATOM     20  C   UNL     1      43.141   3.869  11.272  0.00  0.00    +0.000 C 
BRANCH  18  24
ATOM     21  C   UNL     1      46.640   2.687   7.495  0.00  0.00    +0.000 A 
ATOM     22  C   UNL     1      46.495   4.067   7.594  0.00  0.00    +0.000 A 
ATOM     23  C   UNL     1      45.765   4.599   8.659  0.00  0.00    +0.000 A 
ATOM     24  C   UNL     1      45.189   3.744   9.606  0.00  0.00    +0.000 A 
ATOM     25  N   UNL     1      45.303   2.394   9.485  0.00  0.00    +0.000 NA
ATOM     26  C   UNL     1      46.027   1.900   8.454  0.00  0.00    +0.000 A 
BRANCH  21  28
ATOM     27  N   UNL     1      48.025   1.602   5.598  0.00  0.00    +0.000 NA
ATOM     28  C   UNL     1      47.403   2.090   6.450  0.00  0.00    +0.000 C 
ENDBRANCH  21  28
ENDBRANCH  18  24
ENDBRANCH   1  18
TORSDOF 4
ENDMDL
MODEL 3
REMARK VINA RESULT:    -6.945      3.286      4.398
REMARK INTER + INTRA:          -8.739
REMARK INTER:                  -9.429
REMARK INTRA:                   0.689
REMARK UNBOUND:                -0.170
REMARK  Name = 
REMARK  4 active torsions:
REMARK  status: ('A' for Active; 'I' for Inactive)
REMARK    1  A    between atoms: C_2  and  C_3
REMARK    2  A    between atoms: C_6  and  C_7
REMARK    3  A    between atoms: C_7  and  C_8
REMARK    4  A    between atoms: C_16  and  C_17
REMARK                            x       y       z     vdW  Elec       q    Type
REMARK                         _______ _______ _______ _____ _____    ______ ____
ROOT
ATOM      1  C   UNL     1      46.193   5.120  12.815  0.00  0.00    +0.000 A 
ATOM      2  C   UNL     1      47.101   6.010  12.242  0.00  0.00    +0.000 A 
ATOM      3  C   UNL     1      48.135   6.503  13.018  0.00  0.00    +0.000 A 
ATOM      4  N   UNL     1      48.337   6.176  14.314  0.00  0.00    +0.000 NA
ATOM      5  C   UNL     1      47.498   5.281  14.871  0.00  0.00    +0.000 A 
ATOM      6  N   UNL     1      47.634   4.948  16.207  0.00  0.00    +0.000 N 
ATOM      7  C   UNL     1      48.121   5.939  17.156  0.00  0.00    +0.000 C 
ATOM      8  C   UNL     1      49.493   5.561  17.704  0.00  0.00    +0.000 C 
ATOM      9  C   UNL     1      49.529   4.113  18.213  0.00  0.00    +0.000 C 
ATOM     10  C   UNL     1      49.055   3.166  17.105  0.00  0.00    +0.000 C 
ATOM     11  C   UNL     1      47.669   3.540  16.582  0.00  0.00    +0.000 C 
ATOM     12  C   UNL     1      46.441   4.736  14.139  0.00  0.00    +0.000 A 
ENDROOT
BRANCH   9  13
ATOM     13  C   UNL     1      48.721   3.918  19.493  0.00  0.00    +0.000 C 
ATOM     14  N   UNL     1      48.219   2.666  19.687  0.00  0.00    +0.000 N 
ATOM     15  O   UNL     1      48.479   4.804  20.306  0.00  0.00    +0.000 OA
ATOM     16  H   UNL     1      48.188   1.974  18.952  0.00  0.00    +0.000 HD
ATOM     17  H   UNL     1      47.610   2.540  20.487  0.00  0.00    +0.000 HD
ENDBRANCH   9  13
BRANCH   1  18
ATOM     18  C   UNL     1      44.891   4.737  12.121  0.00  0.00    +0.000 C 
ATOM     19  C   UNL     1      43.820   3.994  12.908  0.00  0.00    +0.000 C 
ATOM     20  C   UNL     1      43.598   5.425  12.537  0.00  0.00    +0.000 C 
BRANCH  18  24
ATOM     21  C   UNL     1      45.816   3.473   8.124  0.00  0.00    +0.000 A 
ATOM     22  C   UNL     1      45.856   4.832   8.417  0.00  0.00    +0.000 A 
ATOM     23  C   UNL     1      45.497   5.262   9.696  0.00  0.00    +0.000 A 
ATOM     24  C   UNL     1      45.103   4.328  10.661  0.00  0.00    +0.000 A 
ATOM     25  N   UNL     1      45.030   3.003  10.359  0.00  0.00    +0.000 NA
ATOM     26  C   UNL     1      45.396   2.607   9.118  0.00  0.00    +0.000 A 
BRANCH  21  28
ATOM     27  N   UNL     1      46.522   2.565   5.806  0.00  0.00    +0.000 NA
ATOM     28  C   UNL     1      46.204   2.973   6.847  0.00  0.00    +0.000 C 
ENDBRANCH  21  28
ENDBRANCH  18  24
ENDBRANCH   1  18
TORSDOF 4
ENDMDL
MODEL 4
REMARK VINA RESULT:    -6.648      4.555      8.019
REMARK INTER + INTRA:          -8.373
REMARK INTER:                  -8.244
REMARK INTRA:                  -0.129
REMARK UNBOUND:                -0.170
REMARK  Name = 
REMARK  4 active torsions:
REMARK  status: ('A' for Active; 'I' for Inactive)
REMARK    1  A    between atoms: C_2  and  C_3
REMARK    2  A    between atoms: C_6  and  C_7
REMARK    3  A    between atoms: C_7  and  C_8
REMARK    4  A    between atoms: C_16  and  C_17
REMARK                            x       y       z     vdW  Elec       q    Type
REMARK                         _______ _______ _______ _____ _____    ______ ____
ROOT
ATOM      1  C   UNL     1      48.008   4.773  16.290  0.00  0.00    +0.000 A 
ATOM      2  C   UNL     1      48.759   5.938  16.144  0.00  0.00    +0.000 A 
ATOM      3  C   UNL     1      48.595   6.702  15.002  0.00  0.00    +0.000 A 
ATOM      4  N   UNL     1      47.740   6.398  14.000  0.00  0.00    +0.000 NA
ATOM      5  C   UNL     1      46.971   5.302  14.144  0.00  0.00    +0.000 A 
ATOM      6  N   UNL     1      46.113   4.922  13.127  0.00  0.00    +0.000 N 
ATOM      7  C   UNL     1      46.470   5.190  11.741  0.00  0.00    +0.000 C 
ATOM      8  C   UNL     1      45.538   6.222  11.114  0.00  0.00    +0.000 C 
ATOM      9  C   UNL     1      44.061   5.876  11.342  0.00  0.00    +0.000 C 
ATOM     10  C   UNL     1      43.802   5.682  12.841  0.00  0.00    +0.000 C 
ATOM     11  C   UNL     1      44.724   4.627  13.451  0.00  0.00    +0.000 C 
ATOM     12  C   UNL     1      47.079   4.494  15.279  0.00  0.00    +0.000 A 
ENDROOT
BRANCH   9  13
ATOM     13  C   UNL     1      43.609   4.659  10.538  0.00  0.00    +0.000 C 
ATOM     14  N   UNL     1      44.000   4.638   9.233  0.00  0.00    +0.000 N 
ATOM     15  O   UNL     1      42.910   3.753  10.979  0.00  0.00    +0.000 OA
ATOM     16  H   UNL     1      44.368   5.453   8.764  0.00  0.00    +0.000 HD
ATOM     17  H   UNL     1      43.639   3.882   8.663  0.00  0.00    +0.000 HD
ENDBRANCH   9  13
BRANCH   1  18
ATOM     18  C   UNL     1      48.311   3.747  17.376  0.00  0.00    +0.000 C 
ATOM     19  C   UNL     1      47.653   3.892  18.741  0.00  0.00    +0.000 C 
ATOM     20  C   UNL     1      47.213   2.794  17.827  0.00  0.00    +0.000 C 
BRANCH  18  24
ATOM     21  C   UNL     1      52.314   2.206  17.571  0.00  0.00    +0.000 A 
ATOM     22  C   UNL     1      52.073   3.492  18.043  0.00  0.00    +0.000 A 
ATOM     23  C   UNL     1      50.789   4.029  17.929  0.00  0.00    +0.000 A 
ATOM     24  C   UNL     1      49.767   3.273  17.343  0.00  0.00    +0.000 A 
ATOM     25  N   UNL     1      50.016   2.029  16.851  0.00  0.00    +0.000 NA
ATOM     26  C   UNL     1      51.263   1.523  16.985  0.00  0.00    +0.000 A 
BRANCH  21  28
ATOM     27  N   UNL     1      54.641   1.096  17.794  0.00  0.00    +0.000 NA
ATOM     28  C   UNL     1      53.596   1.594  17.693  0.00  0.00    +0.000 C 
ENDBRANCH  21  28
ENDBRANCH  18  24
ENDBRANCH   1  18
TORSDOF 4
ENDMDL
MODEL 5
REMARK VINA RESULT:    -6.481      3.662      8.358
REMARK INTER + INTRA:          -8.167
REMARK INTER:                  -7.961
REMARK INTRA:                  -0.206
REMARK UNBOUND:                -0.170
REMARK  Name = 
REMARK  4 active torsions:
REMARK  status: ('A' for Active; 'I' for Inactive)
REMARK    1  A    between atoms: C_2  and  C_3
REMARK    2  A    between atoms: C_6  and  C_7
REMARK    3  A    between atoms: C_7  and  C_8
REMARK    4  A    between atoms: C_16  and  C_17
REMARK                            x       y       z     vdW  Elec       q    Type
REMARK                         _______ _______ _______ _____ _____    ______ ____
ROOT
ATOM      1  C   UNL     1      47.764   8.396  13.512  0.00  0.00    +0.000 A 
ATOM      2  C   UNL     1      47.179   9.542  12.976  0.00  0.00    +0.000 A 
ATOM      3  C   UNL     1      46.069   9.407  12.160  0.00  0.00    +0.000 A 
ATOM      4  N   UNL     1      45.499   8.224  11.841  0.00  0.00    +0.000 NA
ATOM      5  C   UNL     1      46.022   7.109  12.388  0.00  0.00    +0.000 A 
ATOM      6  N   UNL     1      45.502   5.870  12.058  0.00  0.00    +0.000 N 
ATOM      7  C   UNL     1      44.948   5.647  10.730  0.00  0.00    +0.000 C 
ATOM      8  C   UNL     1      43.440   5.420  10.785  0.00  0.00    +0.000 C 
ATOM      9  C   UNL     1      43.057   4.362  11.827  0.00  0.00    +0.000 C 
ATOM     10  C   UNL     1      43.645   4.743  13.191  0.00  0.00    +0.000 C 
ATOM     11  C   UNL     1      45.159   4.942  13.128  0.00  0.00    +0.000 C 
ATOM     12  C   UNL     1      47.133   7.177  13.231  0.00  0.00    +0.000 A 
ENDROOT
BRANCH   9  13
ATOM     13  C   UNL     1      43.474   2.951  11.417  0.00  0.00    +0.000 C 
ATOM     14  N   UNL     1      43.612   2.059  12.438  0.00  0.00    +0.000 N 
ATOM     15  O   UNL     1      43.718   2.604  10.267  0.00  0.00    +0.000 OA
ATOM     16  H   UNL     1      43.653   2.343  13.406  0.00  0.00    +0.000 HD
ATOM     17  H   UNL     1      43.970   1.143  12.194  0.00  0.00    +0.000 HD
ENDBRANCH   9  13
BRANCH   1  18
ATOM     18  C   UNL     1      49.126   8.430  14.197  0.00  0.00    +0.000 C 
ATOM     19  C   UNL     1      50.387   8.320  13.351  0.00  0.00    +0.000 C 
ATOM     20  C   UNL     1      50.037   9.630  13.980  0.00  0.00    +0.000 C 
BRANCH  18  24
ATOM     21  C   UNL     1      48.789   6.271  17.894  0.00  0.00    +0.000 A 
ATOM     22  C   UNL     1      48.543   7.641  17.899  0.00  0.00    +0.000 A 
ATOM     23  C   UNL     1      48.709   8.365  16.717  0.00  0.00    +0.000 A 
ATOM     24  C   UNL     1      49.120   7.712  15.549  0.00  0.00    +0.000 A 
ATOM     25  N   UNL     1      49.394   6.379  15.558  0.00  0.00    +0.000 NA
ATOM     26  C   UNL     1      49.212   5.693  16.710  0.00  0.00    +0.000 A 
BRANCH  21  28
ATOM     27  N   UNL     1      48.449   4.827  20.013  0.00  0.00    +0.000 NA
ATOM     28  C   UNL     1      48.601   5.476  19.061  0.00  0.00    +0.000 C 
ENDBRANCH  21  28
ENDBRANCH  18  24
ENDBRANCH   1  18
TORSDOF 4
ENDMDL
MODEL 6
REMARK VINA RESULT:    -6.476      3.508      5.698
REMARK INTER + INTRA:          -8.161
REMARK INTER:                  -7.938
REMARK INTRA:                  -0.223
REMARK UNBOUND:                -0.170
REMARK  Name = 
REMARK  4 active torsions:
REMARK  status: ('A' for Active; 'I' for Inactive)
REMARK    1  A    between atoms: C_2  and  C_3
REMARK    2  A    between atoms: C_6  and  C_7
REMARK    3  A    between atoms: C_7  and  C_8
REMARK    4  A    between atoms: C_16  and  C_17
REMARK                            x       y       z     vdW  Elec       q    Type
REMARK                         _______ _______ _______ _____ _____    ______ ____
ROOT
ATOM      1  C   UNL     1      47.690   7.418  13.197  0.00  0.00    +0.000 A 
ATOM      2  C   UNL     1      48.931   7.831  12.715  0.00  0.00    +0.000 A 
ATOM      3  C   UNL     1      50.050   7.657  13.511  0.00  0.00    +0.000 A 
ATOM      4  N   UNL     1      50.028   7.101  14.743  0.00  0.00    +0.000 NA
ATOM      5  C   UNL     1      48.845   6.652  15.206  0.00  0.00    +0.000 A 
ATOM      6  N   UNL     1      48.761   6.117  16.479  0.00  0.00    +0.000 N 
ATOM      7  C   UNL     1      49.634   6.614  17.533  0.00  0.00    +0.000 C 
ATOM      8  C   UNL     1      50.638   5.553  17.975  0.00  0.00    +0.000 C 
ATOM      9  C   UNL     1      49.957   4.212  18.282  0.00  0.00    +0.000 C 
ATOM     10  C   UNL     1      49.122   3.769  17.076  0.00  0.00    +0.000 C 
ATOM     11  C   UNL     1      48.104   4.830  16.660  0.00  0.00    +0.000 C 
ATOM     12  C   UNL     1      47.680   6.786  14.447  0.00  0.00    +0.000 A 
ENDROOT
BRANCH   9  13
ATOM     13  C   UNL     1      49.114   4.257  19.555  0.00  0.00    +0.000 C 
ATOM     14  N   UNL     1      48.337   3.161  19.785  0.00  0.00    +0.000 N 
ATOM     15  O   UNL     1      49.074   5.206  20.330  0.00  0.00    +0.000 OA
ATOM     16  H   UNL     1      48.156   2.467  19.075  0.00  0.00    +0.000 HD
ATOM     17  H   UNL     1      47.709   3.210  20.578  0.00  0.00    +0.000 HD
ENDBRANCH   9  13
BRANCH   1  18
ATOM     18  C   UNL     1      46.387   7.806  12.508  0.00  0.00    +0.000 C 
ATOM     19  C   UNL     1      45.665   9.075  12.941  0.00  0.00    +0.000 C 
ATOM     20  C   UNL     1      46.356   9.039  11.616  0.00  0.00    +0.000 C 
BRANCH  18  24
ATOM     21  C   UNL     1      44.186   4.199  11.744  0.00  0.00    +0.000 A 
ATOM     22  C   UNL     1      45.044   4.675  10.759  0.00  0.00    +0.000 A 
ATOM     23  C   UNL     1      45.719   5.880  10.969  0.00  0.00    +0.000 A 
ATOM     24  C   UNL     1      45.524   6.590  12.159  0.00  0.00    +0.000 A 
ATOM     25  N   UNL     1      44.656   6.139  13.105  0.00  0.00    +0.000 NA
ATOM     26  C   UNL     1      44.024   4.962  12.887  0.00  0.00    +0.000 A 
BRANCH  21  28
ATOM     27  N   UNL     1      42.939   1.948  11.480  0.00  0.00    +0.000 NA
ATOM     28  C   UNL     1      43.499   2.959  11.599  0.00  0.00    +0.000 C 
ENDBRANCH  21  28
ENDBRANCH  18  24
ENDBRANCH   1  18
TORSDOF 4
ENDMDL
MODEL 7
REMARK VINA RESULT:    -5.723      3.689      8.427
REMARK INTER + INTRA:          -7.232
REMARK INTER:                  -7.093
REMARK INTRA:                  -0.139
REMARK UNBOUND:                -0.170
REMARK  Name = 
REMARK  4 active torsions:
REMARK  status: ('A' for Active; 'I' for Inactive)
REMARK    1  A    between atoms: C_2  and  C_3
REMARK    2  A    between atoms: C_6  and  C_7
REMARK    3  A    between atoms: C_7  and  C_8
REMARK    4  A    between atoms: C_16  and  C_17
REMARK                            x       y       z     vdW  Elec       q    Type
REMARK                         _______ _______ _______ _____ _____    ______ ____
ROOT
ATOM      1  C   UNL     1      47.534   9.085  12.469  0.00  0.00    +0.000 A 
ATOM      2  C   UNL     1      46.676  10.145  12.182  0.00  0.00    +0.000 A 
ATOM      3  C   UNL     1      45.393   9.868  11.744  0.00  0.00    +0.000 A 
ATOM      4  N   UNL     1      44.900   8.621  11.575  0.00  0.00    +0.000 NA
ATOM      5  C   UNL     1      45.698   7.583  11.893  0.00  0.00    +0.000 A 
ATOM      6  N   UNL     1      45.257   6.287  11.695  0.00  0.00    +0.000 N 
ATOM      7  C   UNL     1      44.349   5.991  10.596  0.00  0.00    +0.000 C 
ATOM      8  C   UNL     1      42.972   5.575  11.106  0.00  0.00    +0.000 C 
ATOM      9  C   UNL     1      43.063   4.481  12.178  0.00  0.00    +0.000 C 
ATOM     10  C   UNL     1      43.995   4.939  13.305  0.00  0.00    +0.000 C 
ATOM     11  C   UNL     1      45.379   5.327  12.785  0.00  0.00    +0.000 C 
ATOM     12  C   UNL     1      47.000   7.795  12.353  0.00  0.00    +0.000 A 
ENDROOT
BRANCH   9  13
ATOM     13  C   UNL     1      43.500   3.133  11.609  0.00  0.00    +0.000 C 
ATOM     14  N   UNL     1      43.752   2.159  12.529  0.00  0.00    +0.000 N 
ATOM     15  O   UNL     1      43.666   2.901  10.416  0.00  0.00    +0.000 OA
ATOM     16  H   UNL     1      43.859   2.358  13.513  0.00  0.00    +0.000 HD
ATOM     17  H   UNL     1      44.125   1.287  12.175  0.00  0.00    +0.000 HD
ENDBRANCH   9  13
BRANCH   1  18
ATOM     18  C   UNL     1      49.027   9.294  12.701  0.00  0.00    +0.000 C 
ATOM     19  C   UNL     1      49.993   9.108  11.538  0.00  0.00    +0.000 C 
ATOM     20  C   UNL     1      49.720  10.485  12.053  0.00  0.00    +0.000 C 
BRANCH  18  24
ATOM     21  C   UNL     1      50.618   8.084  16.501  0.00  0.00    +0.000 A 
ATOM     22  C   UNL     1      50.537   7.140  15.483  0.00  0.00    +0.000 A 
ATOM     23  C   UNL     1      49.965   7.503  14.262  0.00  0.00    +0.000 A 
ATOM     24  C   UNL     1      49.481   8.804  14.078  0.00  0.00    +0.000 A 
ATOM     25  N   UNL     1      49.529   9.714  15.089  0.00  0.00    +0.000 NA
ATOM     26  C   UNL     1      50.100   9.344  16.258  0.00  0.00    +0.000 A 
BRANCH  21  28
ATOM     27  N   UNL     1      51.716   7.531  18.777  0.00  0.00    +0.000 NA
ATOM     28  C   UNL     1      51.223   7.780  17.754  0.00  0.00    +0.000 C 
ENDBRANCH  21  28
ENDBRANCH  18  24
ENDBRANCH   1  18
TORSDOF 4
ENDMDL
MODEL 8
REMARK VINA RESULT:    -5.330      4.006      8.470
REMARK INTER + INTRA:          -6.746
REMARK INTER:                  -6.530
REMARK INTRA:                  -0.216
REMARK UNBOUND:                -0.170
REMARK  Name = 
REMARK  4 active torsions:
REMARK  status: ('A' for Active; 'I' for Inactive)
REMARK    1  A    between atoms: C_2  and  C_3
REMARK    2  A    between atoms: C_6  and  C_7
REMARK    3  A    between atoms: C_7  and  C_8
REMARK    4  A    between atoms: C_16  and  C_17
REMARK                            x       y       z     vdW  Elec       q    Type
REMARK                         _______ _______ _______ _____ _____    ______ ____
ROOT
ATOM      1  C   UNL     1      48.577   4.554  17.193  0.00  0.00    +0.000 A 
ATOM      2  C   UNL     1      48.756   3.186  16.989  0.00  0.00    +0.000 A 
ATOM      3  C   UNL     1      48.178   2.594  15.879  0.00  0.00    +0.000 A 
ATOM      4  N   UNL     1      47.442   3.257  14.960  0.00  0.00    +0.000 NA
ATOM      5  C   UNL     1      47.297   4.587  15.115  0.00  0.00    +0.000 A 
ATOM      6  N   UNL     1      46.515   5.304  14.226  0.00  0.00    +0.000 N 
ATOM      7  C   UNL     1      45.358   4.673  13.607  0.00  0.00    +0.000 C 
ATOM      8  C   UNL     1      45.558   4.490  12.106  0.00  0.00    +0.000 C 
ATOM      9  C   UNL     1      46.025   5.784  11.427  0.00  0.00    +0.000 C 
ATOM     10  C   UNL     1      47.282   6.311  12.129  0.00  0.00    +0.000 C 
ATOM     11  C   UNL     1      47.060   6.515  13.627  0.00  0.00    +0.000 C 
ATOM     12  C   UNL     1      47.866   5.248  16.206  0.00  0.00    +0.000 A 
ENDROOT
BRANCH   9  13
ATOM     13  C   UNL     1      44.932   6.848  11.372  0.00  0.00    +0.000 C 
ATOM     14  N   UNL     1      43.698   6.405  10.999  0.00  0.00    +0.000 N 
ATOM     15  O   UNL     1      45.108   8.040  11.600  0.00  0.00    +0.000 OA
ATOM     16  H   UNL     1      43.551   5.499  10.580  0.00  0.00    +0.000 HD
ATOM     17  H   UNL     1      42.982   7.111  10.875  0.00  0.00    +0.000 HD
ENDBRANCH   9  13
BRANCH   1  18
ATOM     18  C   UNL     1      48.950   5.229  18.508  0.00  0.00    +0.000 C 
ATOM     19  C   UNL     1      47.848   5.610  19.487  0.00  0.00    +0.000 C 
ATOM     20  C   UNL     1      48.759   4.470  19.814  0.00  0.00    +0.000 C 
BRANCH  18  24
ATOM     21  C   UNL     1      52.192   7.931  17.719  0.00  0.00    +0.000 A 
ATOM     22  C   UNL     1      52.491   6.625  18.092  0.00  0.00    +0.000 A 
ATOM     23  C   UNL     1      51.448   5.753  18.411  0.00  0.00    +0.000 A 
ATOM     24  C   UNL     1      50.123   6.201  18.355  0.00  0.00    +0.000 A 
ATOM     25  N   UNL     1      49.837   7.490  18.024  0.00  0.00    +0.000 NA
ATOM     26  C   UNL     1      50.862   8.313  17.705  0.00  0.00    +0.000 A 
BRANCH  21  28
ATOM     27  N   UNL     1      54.047   9.605  17.047  0.00  0.00    +0.000 NA
ATOM     28  C   UNL     1      53.213   8.853  17.348  0.00  0.00    +0.000 C 
ENDBRANCH  21  28
ENDBRANCH  18  24
ENDBRANCH   1  18
TORSDOF 4
ENDMDL
MODEL 9
REMARK VINA RESULT:    -5.111      4.074      6.878
REMARK INTER + INTRA:          -6.476
REMARK INTER:                  -6.412
REMARK INTRA:                  -0.064
REMARK UNBOUND:                -0.170
REMARK  Name = 
REMARK  4 active torsions:
REMARK  status: ('A' for Active; 'I' for Inactive)
REMARK    1  A    between atoms: C_2  and  C_3
REMARK    2  A    between atoms: C_6  and  C_7
REMARK    3  A    between atoms: C_7  and  C_8
REMARK    4  A    between atoms: C_16  and  C_17
REMARK                            x       y       z     vdW  Elec       q    Type
REMARK                         _______ _______ _______ _____ _____    ______ ____
ROOT
ATOM      1  C   UNL     1      49.093   9.060  14.009  0.00  0.00    +0.000 A 
ATOM      2  C   UNL     1      49.402  10.270  14.629  0.00  0.00    +0.000 A 
ATOM      3  C   UNL     1      49.526  10.303  16.007  0.00  0.00    +0.000 A 
ATOM      4  N   UNL     1      49.372   9.228  16.811  0.00  0.00    +0.000 NA
ATOM      5  C   UNL     1      49.120   8.040  16.226  0.00  0.00    +0.000 A 
ATOM      6  N   UNL     1      48.908   6.918  17.008  0.00  0.00    +0.000 N 
ATOM      7  C   UNL     1      48.283   7.053  18.315  0.00  0.00    +0.000 C 
ATOM      8  C   UNL     1      49.259   6.719  19.439  0.00  0.00    +0.000 C 
ATOM      9  C   UNL     1      49.971   5.380  19.202  0.00  0.00    +0.000 C 
ATOM     10  C   UNL     1      50.640   5.389  17.822  0.00  0.00    +0.000 C 
ATOM     11  C   UNL     1      49.646   5.699  16.703  0.00  0.00    +0.000 C 
ATOM     12  C   UNL     1      48.995   7.936  14.839  0.00  0.00    +0.000 A 
ENDROOT
BRANCH   9  13
ATOM     13  C   UNL     1      49.039   4.181  19.360  0.00  0.00    +0.000 C 
ATOM     14  N   UNL     1      48.431   4.064  20.574  0.00  0.00    +0.000 N 
ATOM     15  O   UNL     1      48.846   3.331  18.498  0.00  0.00    +0.000 OA
ATOM     16  H   UNL     1      48.729   4.591  21.382  0.00  0.00    +0.000 HD
ATOM     17  H   UNL     1      47.877   3.230  20.725  0.00  0.00    +0.000 HD
ENDBRANCH   9  13
BRANCH   1  18
ATOM     18  C   UNL     1      48.683   8.986  12.543  0.00  0.00    +0.000 C 
ATOM     19  C   UNL     1      48.895  10.201  11.649  0.00  0.00    +0.000 C 
ATOM     20  C   UNL     1      49.761   8.997  11.468  0.00  0.00    +0.000 C 
BRANCH  18  24
ATOM     21  C   UNL     1      45.113   6.613  12.305  0.00  0.00    +0.000 A 
ATOM     22  C   UNL     1      46.292   6.095  11.779  0.00  0.00    +0.000 A 
ATOM     23  C   UNL     1      47.446   6.881  11.794  0.00  0.00    +0.000 A 
ATOM     24  C   UNL     1      47.404   8.172  12.332  0.00  0.00    +0.000 A 
ATOM     25  N   UNL     1      46.240   8.688  12.812  0.00  0.00    +0.000 NA
ATOM     26  C   UNL     1      45.137   7.904  12.801  0.00  0.00    +0.000 A 
BRANCH  21  28
ATOM     27  N   UNL     1      42.936   5.217  12.383  0.00  0.00    +0.000 NA
ATOM     28  C   UNL     1      43.915   5.844  12.348  0.00  0.00    +0.000 C 
ENDBRANCH  21  28
ENDBRANCH  18  24
ENDBRANCH   1  18
TORSDOF 4
ENDMDL
