MODEL 1
REMARK VINA RESULT:    -8.473      0.000      0.000
REMARK INTER + INTRA:         -12.022
REMARK INTER:                 -10.949
REMARK INTRA:                  -1.073
REMARK UNBOUND:                -1.073
REMARK  Name = 
REMARK  5 active torsions:
REMARK  status: ('A' for Active; 'I' for Inactive)
REMARK    1  A    between atoms: C_2  and  C_4
REMARK    2  A    between atoms: N_8  and  C_9
REMARK    3  A    between atoms: C_9  and  C_10
REMARK    4  A    between atoms: C_13  and  S_14
REMARK    5  A    between atoms: S_14  and  C_17
REMARK                            x       y       z     vdW  Elec       q    Type
REMARK                         _______ _______ _______ _____ _____    ______ ____
ROOT
ATOM      1  C   UNL     1      43.857   4.918  11.468  0.00  0.00    +0.000 C 
ATOM      2  C   UNL     1      42.682   4.924  12.444  0.00  0.00    +0.000 C 
ATOM      3  C   UNL     1      42.681   5.867  11.293  0.00  0.00    +0.000 C 
ENDROOT
BRANCH   1   8
ATOM      4  C   UNL     1      46.482   2.761   7.505  0.00  0.00    +0.000 A 
ATOM      5  C   UNL     1      46.077   4.081   7.674  0.00  0.00    +0.000 A 
ATOM      6  C   UNL     1      45.281   4.417   8.769  0.00  0.00    +0.000 A 
ATOM      7  C   UNL     1      44.890   3.432   9.667  0.00  0.00    +0.000 A 
ATOM      8  N   UNL     1      44.008   3.662  10.721  0.00  0.00    +0.000 N 
ATOM      9  N   UNL     1      45.272   2.145   9.508  0.00  0.00    +0.000 NA
ATOM     10  C   UNL     1      46.050   1.832   8.439  0.00  0.00    +0.000 A 
ATOM     11  H   UNL     1      43.945   2.792  11.241  0.00  0.00    +0.000 HD
BRANCH   4  13
ATOM     12  N   UNL     1      47.192   3.026   5.200  0.00  0.00    +0.000 N 
ATOM     13  C   UNL     1      47.307   2.315   6.361  0.00  0.00    +0.000 C 
ATOM     14  O   UNL     1      48.074   1.369   6.455  0.00  0.00    +0.000 OA
ATOM     15  H   UNL     1      47.815   2.764   4.443  0.00  0.00    +0.000 HD
ATOM     16  H   UNL     1      46.762   3.939   5.149  0.00  0.00    +0.000 HD
ENDBRANCH   4  13
ENDBRANCH   1   8
BRANCH   1  17
ATOM     17  C   UNL     1      45.168   5.505  11.995  0.00  0.00    +0.000 A 
ATOM     18  C   UNL     1      45.594   6.801  11.645  0.00  0.00    +0.000 A 
ATOM     19  C   UNL     1      46.713   7.391  12.238  0.00  0.00    +0.000 A 
ATOM     20  C   UNL     1      47.442   6.672  13.187  0.00  0.00    +0.000 A 
ATOM     21  C   UNL     1      47.103   5.354  13.492  0.00  0.00    +0.000 A 
ATOM     22  C   UNL     1      45.972   4.785  12.900  0.00  0.00    +0.000 A 
BRANCH  20  23
ATOM     23  S   UNL     1      48.848   7.431  13.981  0.00  0.00    +0.000 S 
ATOM     24  O   UNL     1      48.338   8.624  14.645  0.00  0.00    +0.000 OA
ATOM     25  O   UNL     1      49.471   6.384  14.779  0.00  0.00    +0.000 OA
BRANCH  23  26
ATOM     26  C   UNL     1      49.917   7.886  12.566  0.00  0.00    +0.000 C 
ATOM     27  F   UNL     1      49.944   6.931  11.591  0.00  0.00    +0.000 F 
ATOM     28  F   UNL     1      49.516   9.038  11.955  0.00  0.00    +0.000 F 
ATOM     29  F   UNL     1      51.216   8.083  12.936  0.00  0.00    +0.000 F 
ENDBRANCH  23  26
ENDBRANCH  20  23
ENDBRANCH   1  17
TORSDOF 5
ENDMDL
MODEL 2
REMARK VINA RESULT:    -6.527      5.391      8.677
REMARK INTER + INTRA:          -9.507
REMARK INTER:                  -8.765
REMARK INTRA:                  -0.742
REMARK UNBOUND:                -1.073
REMARK  Name = 
REMARK  5 active torsions:
REMARK  status: ('A' for Active; 'I' for Inactive)
REMARK    1  A    between atoms: C_2  and  C_4
REMARK    2  A    between atoms: N_8  and  C_9
REMARK    3  A    between atoms: C_9  and  C_10
REMARK    4  A    between atoms: C_13  and  S_14
REMARK    5  A    between atoms: S_14  and  C_17
REMARK                            x       y       z     vdW  Elec       q    Type
REMARK                         _______ _______ _______ _____ _____    ______ ____
ROOT
ATOM      1  C   UNL     1      48.593   7.720  14.248  0.00  0.00    +0.000 C 
ATOM      2  C   UNL     1      49.218   8.724  13.280  0.00  0.00    +0.000 C 
ATOM      3  C   UNL     1      48.372   9.218  14.401  0.00  0.00    +0.000 C 
ENDROOT
BRANCH   1   8
ATOM      4  C   UNL     1      49.295   5.463  18.902  0.00  0.00    +0.000 A 
ATOM      5  C   UNL     1      48.550   6.592  18.578  0.00  0.00    +0.000 A 
ATOM      6  C   UNL     1      48.593   7.089  17.275  0.00  0.00    +0.000 A 
ATOM      7  C   UNL     1      49.387   6.463  16.323  0.00  0.00    +0.000 A 
ATOM      8  N   UNL     1      49.572   6.957  15.033  0.00  0.00    +0.000 N 
ATOM      9  N   UNL     1      50.120   5.369  16.629  0.00  0.00    +0.000 NA
ATOM     10  C   UNL     1      50.066   4.893  17.901  0.00  0.00    +0.000 A 
ATOM     11  H   UNL     1      50.146   6.279  14.542  0.00  0.00    +0.000 HD
BRANCH   4  13
ATOM     12  N   UNL     1      48.531   3.793  20.487  0.00  0.00    +0.000 N 
ATOM     13  C   UNL     1      49.323   4.884  20.262  0.00  0.00    +0.000 C 
ATOM     14  O   UNL     1      50.038   5.343  21.139  0.00  0.00    +0.000 OA
ATOM     15  H   UNL     1      48.611   3.354  21.399  0.00  0.00    +0.000 HD
ATOM     16  H   UNL     1      48.116   3.246  19.746  0.00  0.00    +0.000 HD
ENDBRANCH   4  13
ENDBRANCH   1   8
BRANCH   1  17
ATOM     17  C   UNL     1      47.435   6.887  13.693  0.00  0.00    +0.000 A 
ATOM     18  C   UNL     1      47.394   5.487  13.837  0.00  0.00    +0.000 A 
ATOM     19  C   UNL     1      46.272   4.744  13.461  0.00  0.00    +0.000 A 
ATOM     20  C   UNL     1      45.171   5.401  12.908  0.00  0.00    +0.000 A 
ATOM     21  C   UNL     1      45.212   6.774  12.667  0.00  0.00    +0.000 A 
ATOM     22  C   UNL     1      46.336   7.504  13.063  0.00  0.00    +0.000 A 
BRANCH  20  23
ATOM     23  S   UNL     1      43.718   4.466  12.462  0.00  0.00    +0.000 S 
ATOM     24  O   UNL     1      43.739   3.270  13.294  0.00  0.00    +0.000 OA
ATOM     25  O   UNL     1      42.598   5.390  12.573  0.00  0.00    +0.000 OA
BRANCH  23  26
ATOM     26  C   UNL     1      44.031   4.040  10.709  0.00  0.00    +0.000 C 
ATOM     27  F   UNL     1      45.343   4.170  10.356  0.00  0.00    +0.000 F 
ATOM     28  F   UNL     1      43.686   2.754  10.413  0.00  0.00    +0.000 F 
ATOM     29  F   UNL     1      43.329   4.831   9.847  0.00  0.00    +0.000 F 
ENDBRANCH  23  26
ENDBRANCH  20  23
ENDBRANCH   1  17
TORSDOF 5
ENDMDL
MODEL 3
REMARK VINA RESULT:    -6.351      5.233      8.534
REMARK INTER + INTRA:          -9.280
REMARK INTER:                  -8.538
REMARK INTRA:                  -0.742
REMARK UNBOUND:                -1.073
REMARK  Name = 
REMARK  5 active torsions:
REMARK  status: ('A' for Active; 'I' for Inactive)
REMARK    1  A    between atoms: C_2  and  C_4
REMARK    2  A    between atoms: N_8  and  C_9
REMARK    3  A    between atoms: C_9  and  C_10
REMARK    4  A    between atoms: C_13  and  S_14
REMARK    5  A    between atoms: S_14  and  C_17
REMARK                            x       y       z     vdW  Elec       q    Type
REMARK                         _______ _______ _______ _____ _____    ______ ____
ROOT
ATOM      1  C   UNL     1      48.796   7.575  12.790  0.00  0.00    +0.000 C 
ATOM      2  C   UNL     1      49.447   7.766  11.421  0.00  0.00    +0.000 C 
ATOM      3  C   UNL     1      48.854   8.939  12.118  0.00  0.00    +0.000 C 
ENDROOT
BRANCH   1   8
ATOM      4  C   UNL     1      49.348   7.341  17.975  0.00  0.00    +0.000 A 
ATOM      5  C   UNL     1      48.669   8.281  17.206  0.00  0.00    +0.000 A 
ATOM      6  C   UNL     1      48.746   8.211  15.815  0.00  0.00    +0.000 A 
ATOM      7  C   UNL     1      49.509   7.218  15.215  0.00  0.00    +0.000 A 
ATOM      8  N   UNL     1      49.727   7.144  13.841  0.00  0.00    +0.000 N 
ATOM      9  N   UNL     1      50.178   6.304  15.952  0.00  0.00    +0.000 NA
ATOM     10  C   UNL     1      50.092   6.381  17.307  0.00  0.00    +0.000 A 
ATOM     11  H   UNL     1      50.265   6.298  13.677  0.00  0.00    +0.000 HD
BRANCH   4  13
ATOM     12  N   UNL     1      48.116   7.396  20.064  0.00  0.00    +0.000 N 
ATOM     13  C   UNL     1      49.338   7.356  19.454  0.00  0.00    +0.000 C 
ATOM     14  O   UNL     1      50.372   7.311  20.102  0.00  0.00    +0.000 OA
ATOM     15  H   UNL     1      48.111   7.329  21.077  0.00  0.00    +0.000 HD
ATOM     16  H   UNL     1      47.250   7.197  19.584  0.00  0.00    +0.000 HD
ENDBRANCH   4  13
ENDBRANCH   1   8
BRANCH   1  17
ATOM     17  C   UNL     1      47.450   6.846  12.795  0.00  0.00    +0.000 A 
ATOM     18  C   UNL     1      46.323   7.365  12.130  0.00  0.00    +0.000 A 
ATOM     19  C   UNL     1      45.139   6.633  12.012  0.00  0.00    +0.000 A 
ATOM     20  C   UNL     1      45.061   5.362  12.585  0.00  0.00    +0.000 A 
ATOM     21  C   UNL     1      46.126   4.852  13.327  0.00  0.00    +0.000 A 
ATOM     22  C   UNL     1      47.308   5.593  13.423  0.00  0.00    +0.000 A 
BRANCH  20  23
ATOM     23  S   UNL     1      43.568   4.401  12.405  0.00  0.00    +0.000 S 
ATOM     24  O   UNL     1      43.430   3.641  13.640  0.00  0.00    +0.000 OA
ATOM     25  O   UNL     1      42.526   5.347  12.031  0.00  0.00    +0.000 OA
BRANCH  23  26
ATOM     26  C   UNL     1      43.965   3.292  11.003  0.00  0.00    +0.000 C 
ATOM     27  F   UNL     1      45.281   2.933  10.964  0.00  0.00    +0.000 F 
ATOM     28  F   UNL     1      43.256   2.127  11.039  0.00  0.00    +0.000 F 
ATOM     29  F   UNL     1      43.695   3.864   9.793  0.00  0.00    +0.000 F 
ENDBRANCH  23  26
ENDBRANCH  20  23
ENDBRANCH   1  17
TORSDOF 5
ENDMDL
MODEL 4
REMARK VINA RESULT:    -6.159      5.254      8.431
REMARK INTER + INTRA:          -9.032
REMARK INTER:                  -8.172
REMARK INTRA:                  -0.860
REMARK UNBOUND:                -1.073
REMARK  Name = 
REMARK  5 active torsions:
REMARK  status: ('A' for Active; 'I' for Inactive)
REMARK    1  A    between atoms: C_2  and  C_4
REMARK    2  A    between atoms: N_8  and  C_9
REMARK    3  A    between atoms: C_9  and  C_10
REMARK    4  A    between atoms: C_13  and  S_14
REMARK    5  A    between atoms: S_14  and  C_17
REMARK                            x       y       z     vdW  Elec       q    Type
REMARK                         _______ _______ _______ _____ _____    ______ ____
ROOT
ATOM      1  C   UNL     1      48.335   8.296  12.691  0.00  0.00    +0.000 C 
ATOM      2  C   UNL     1      49.091   9.059  11.605  0.00  0.00    +0.000 C 
ATOM      3  C   UNL     1      48.331   9.816  12.636  0.00  0.00    +0.000 C 
ENDROOT
BRANCH   1   8
ATOM      4  C   UNL     1      49.061   7.095  17.719  0.00  0.00    +0.000 A 
ATOM      5  C   UNL     1      48.564   8.268  17.160  0.00  0.00    +0.000 A 
ATOM      6  C   UNL     1      48.561   8.416  15.773  0.00  0.00    +0.000 A 
ATOM      7  C   UNL     1      49.065   7.402  14.969  0.00  0.00    +0.000 A 
ATOM      8  N   UNL     1      49.200   7.516  13.586  0.00  0.00    +0.000 N 
ATOM      9  N   UNL     1      49.558   6.262  15.502  0.00  0.00    +0.000 NA
ATOM     10  C   UNL     1      49.551   6.129  16.854  0.00  0.00    +0.000 A 
ATOM     11  H   UNL     1      49.538   6.618  13.253  0.00  0.00    +0.000 HD
BRANCH   4  13
ATOM     12  N   UNL     1      50.365   6.753  19.736  0.00  0.00    +0.000 N 
ATOM     13  C   UNL     1      49.122   6.865  19.179  0.00  0.00    +0.000 C 
ATOM     14  O   UNL     1      48.110   6.800  19.859  0.00  0.00    +0.000 OA
ATOM     15  H   UNL     1      50.403   6.671  20.748  0.00  0.00    +0.000 HD
ATOM     16  H   UNL     1      51.212   7.033  19.263  0.00  0.00    +0.000 HD
ENDBRANCH   4  13
ENDBRANCH   1   8
BRANCH   1  17
ATOM     17  C   UNL     1      47.067   7.567  12.238  0.00  0.00    +0.000 A 
ATOM     18  C   UNL     1      47.082   6.646  11.174  0.00  0.00    +0.000 A 
ATOM     19  C   UNL     1      45.961   5.875  10.856  0.00  0.00    +0.000 A 
ATOM     20  C   UNL     1      44.789   6.035  11.597  0.00  0.00    +0.000 A 
ATOM     21  C   UNL     1      44.710   7.002  12.599  0.00  0.00    +0.000 A 
ATOM     22  C   UNL     1      45.845   7.754  12.914  0.00  0.00    +0.000 A 
BRANCH  20  23
ATOM     23  S   UNL     1      43.364   5.027  11.226  0.00  0.00    +0.000 S 
ATOM     24  O   UNL     1      42.205   5.793  11.666  0.00  0.00    +0.000 OA
ATOM     25  O   UNL     1      43.486   4.664   9.821  0.00  0.00    +0.000 OA
BRANCH  23  26
ATOM     26  C   UNL     1      43.614   3.561  12.294  0.00  0.00    +0.000 C 
ATOM     27  F   UNL     1      42.949   2.456  11.847  0.00  0.00    +0.000 F 
ATOM     28  F   UNL     1      44.926   3.199  12.389  0.00  0.00    +0.000 F 
ATOM     29  F   UNL     1      43.183   3.769  13.573  0.00  0.00    +0.000 F 
ENDBRANCH  23  26
ENDBRANCH  20  23
ENDBRANCH   1  17
TORSDOF 5
ENDMDL
MODEL 5
REMARK VINA RESULT:    -5.846      5.233      8.448
REMARK INTER + INTRA:          -8.628
REMARK INTER:                  -8.525
REMARK INTRA:                  -0.102
REMARK UNBOUND:                -1.073
REMARK  Name = 
REMARK  5 active torsions:
REMARK  status: ('A' for Active; 'I' for Inactive)
REMARK    1  A    between atoms: C_2  and  C_4
REMARK    2  A    between atoms: N_8  and  C_9
REMARK    3  A    between atoms: C_9  and  C_10
REMARK    4  A    between atoms: C_13  and  S_14
REMARK    5  A    between atoms: S_14  and  C_17
REMARK                            x       y       z     vdW  Elec       q    Type
REMARK                         _______ _______ _______ _____ _____    ______ ____
ROOT
ATOM      1  C   UNL     1      48.268   7.769  13.940  0.00  0.00    +0.000 C 
ATOM      2  C   UNL     1      49.675   7.355  13.512  0.00  0.00    +0.000 C 
ATOM      3  C   UNL     1      49.114   8.647  13.031  0.00  0.00    +0.000 C 
ENDROOT
BRANCH   1   8
ATOM      4  C   UNL     1      49.182   5.546  18.574  0.00  0.00    +0.000 A 
ATOM      5  C   UNL     1      48.871   4.945  17.358  0.00  0.00    +0.000 A 
ATOM      6  C   UNL     1      48.553   5.746  16.262  0.00  0.00    +0.000 A 
ATOM      7  C   UNL     1      48.536   7.128  16.397  0.00  0.00    +0.000 A 
ATOM      8  N   UNL     1      48.124   7.992  15.385  0.00  0.00    +0.000 N 
ATOM      9  N   UNL     1      48.830   7.722  17.575  0.00  0.00    +0.000 NA
ATOM     10  C   UNL     1      49.141   6.930  18.635  0.00  0.00    +0.000 A 
ATOM     11  H   UNL     1      48.266   8.936  15.734  0.00  0.00    +0.000 HD
BRANCH   4  13
ATOM     12  N   UNL     1      48.617   3.806  20.169  0.00  0.00    +0.000 N 
ATOM     13  C   UNL     1      49.508   4.772  19.792  0.00  0.00    +0.000 C 
ATOM     14  O   UNL     1      50.536   4.970  20.419  0.00  0.00    +0.000 OA
ATOM     15  H   UNL     1      48.882   3.228  20.960  0.00  0.00    +0.000 HD
ATOM     16  H   UNL     1      47.891   3.454  19.561  0.00  0.00    +0.000 HD
ENDBRANCH   4  13
ENDBRANCH   1   8
BRANCH   1  17
ATOM     17  C   UNL     1      47.117   6.989  13.300  0.00  0.00    +0.000 A 
ATOM     18  C   UNL     1      46.110   7.632  12.556  0.00  0.00    +0.000 A 
ATOM     19  C   UNL     1      45.143   6.910  11.851  0.00  0.00    +0.000 A 
ATOM     20  C   UNL     1      45.162   5.514  11.902  0.00  0.00    +0.000 A 
ATOM     21  C   UNL     1      46.089   4.846  12.702  0.00  0.00    +0.000 A 
ATOM     22  C   UNL     1      47.057   5.584  13.388  0.00  0.00    +0.000 A 
BRANCH  20  23
ATOM     23  S   UNL     1      43.957   4.581  10.974  0.00  0.00    +0.000 S 
ATOM     24  O   UNL     1      43.721   3.361  11.736  0.00  0.00    +0.000 OA
ATOM     25  O   UNL     1      42.848   5.491  10.727  0.00  0.00    +0.000 OA
BRANCH  23  26
ATOM     26  C   UNL     1      44.845   4.208   9.416  0.00  0.00    +0.000 C 
ATOM     27  F   UNL     1      44.044   4.291   8.314  0.00  0.00    +0.000 F 
ATOM     28  F   UNL     1      45.887   5.059   9.190  0.00  0.00    +0.000 F 
ATOM     29  F   UNL     1      45.372   2.949   9.405  0.00  0.00    +0.000 F 
ENDBRANCH  23  26
ENDBRANCH  20  23
ENDBRANCH   1  17
TORSDOF 5
ENDMDL
MODEL 6
REMARK VINA RESULT:    -5.563      5.405      8.696
REMARK INTER + INTRA:          -8.262
REMARK INTER:                  -7.749
REMARK INTRA:                  -0.514
REMARK UNBOUND:                -1.073
REMARK  Name = 
REMARK  5 active torsions:
REMARK  status: ('A' for Active; 'I' for Inactive)
REMARK    1  A    between atoms: C_2  and  C_4
REMARK    2  A    between atoms: N_8  and  C_9
REMARK    3  A    between atoms: C_9  and  C_10
REMARK    4  A    between atoms: C_13  and  S_14
REMARK    5  A    between atoms: S_14  and  C_17
REMARK                            x       y       z     vdW  Elec       q    Type
REMARK                         _______ _______ _______ _____ _____    ______ ____
ROOT
ATOM      1  C   UNL     1      49.237   7.766  13.122  0.00  0.00    +0.000 C 
ATOM      2  C   UNL     1      49.922   8.466  11.949  0.00  0.00    +0.000 C 
ATOM      3  C   UNL     1      48.984   9.233  12.813  0.00  0.00    +0.000 C 
ENDROOT
BRANCH   1   8
ATOM      4  C   UNL     1      49.589   6.950  18.266  0.00  0.00    +0.000 A 
ATOM      5  C   UNL     1      48.851   7.907  17.577  0.00  0.00    +0.000 A 
ATOM      6  C   UNL     1      48.994   8.017  16.194  0.00  0.00    +0.000 A 
ATOM      7  C   UNL     1      49.879   7.183  15.523  0.00  0.00    +0.000 A 
ATOM      8  N   UNL     1      50.162   7.300  14.164  0.00  0.00    +0.000 N 
ATOM      9  N   UNL     1      50.606   6.254  16.183  0.00  0.00    +0.000 NA
ATOM     10  C   UNL     1      50.455   6.156  17.530  0.00  0.00    +0.000 A 
ATOM     11  H   UNL     1      50.790   6.537  13.932  0.00  0.00    +0.000 HD
BRANCH   4  13
ATOM     12  N   UNL     1      50.485   6.017  20.318  0.00  0.00    +0.000 N 
ATOM     13  C   UNL     1      49.515   6.781  19.733  0.00  0.00    +0.000 C 
ATOM     14  O   UNL     1      48.640   7.317  20.396  0.00  0.00    +0.000 OA
ATOM     15  H   UNL     1      50.474   5.967  21.332  0.00  0.00    +0.000 HD
ATOM     16  H   UNL     1      51.344   5.759  19.852  0.00  0.00    +0.000 HD
ENDBRANCH   4  13
ENDBRANCH   1   8
BRANCH   1  17
ATOM     17  C   UNL     1      48.138   6.765  12.755  0.00  0.00    +0.000 A 
ATOM     18  C   UNL     1      47.848   5.652  13.566  0.00  0.00    +0.000 A 
ATOM     19  C   UNL     1      46.753   4.823  13.310  0.00  0.00    +0.000 A 
ATOM     20  C   UNL     1      45.937   5.090  12.209  0.00  0.00    +0.000 A 
ATOM     21  C   UNL     1      46.246   6.129  11.332  0.00  0.00    +0.000 A 
ATOM     22  C   UNL     1      47.336   6.958  11.612  0.00  0.00    +0.000 A 
BRANCH  20  23
ATOM     23  S   UNL     1      44.513   4.061  11.896  0.00  0.00    +0.000 S 
ATOM     24  O   UNL     1      44.337   4.050  10.449  0.00  0.00    +0.000 OA
ATOM     25  O   UNL     1      44.763   2.807  12.592  0.00  0.00    +0.000 OA
BRANCH  23  26
ATOM     26  C   UNL     1      43.156   4.988  12.705  0.00  0.00    +0.000 C 
ATOM     27  F   UNL     1      43.544   6.219  13.150  0.00  0.00    +0.000 F 
ATOM     28  F   UNL     1      42.099   5.204  11.871  0.00  0.00    +0.000 F 
ATOM     29  F   UNL     1      42.655   4.335  13.793  0.00  0.00    +0.000 F 
ENDBRANCH  23  26
ENDBRANCH  20  23
ENDBRANCH   1  17
TORSDOF 5
ENDMDL
MODEL 7
REMARK VINA RESULT:    -5.537      4.546      6.262
REMARK INTER + INTRA:          -8.229
REMARK INTER:                  -7.014
REMARK INTRA:                  -1.215
REMARK UNBOUND:                -1.073
REMARK  Name = 
REMARK  5 active torsions:
REMARK  status: ('A' for Active; 'I' for Inactive)
REMARK    1  A    between atoms: C_2  and  C_4
REMARK    2  A    between atoms: N_8  and  C_9
REMARK    3  A    between atoms: C_9  and  C_10
REMARK    4  A    between atoms: C_13  and  S_14
REMARK    5  A    between atoms: S_14  and  C_17
REMARK                            x       y       z     vdW  Elec       q    Type
REMARK                         _______ _______ _______ _____ _____    ______ ____
ROOT
ATOM      1  C   UNL     1      48.957   8.316  12.625  0.00  0.00    +0.000 C 
ATOM      2  C   UNL     1      49.845   9.379  11.979  0.00  0.00    +0.000 C 
ATOM      3  C   UNL     1      50.205   7.942  11.839  0.00  0.00    +0.000 C 
ENDROOT
BRANCH   1   8
ATOM      4  C   UNL     1      44.670   5.339  12.525  0.00  0.00    +0.000 A 
ATOM      5  C   UNL     1      46.003   4.955  12.627  0.00  0.00    +0.000 A 
ATOM      6  C   UNL     1      47.003   5.921  12.521  0.00  0.00    +0.000 A 
ATOM      7  C   UNL     1      46.661   7.248  12.300  0.00  0.00    +0.000 A 
ATOM      8  N   UNL     1      47.597   8.255  12.071  0.00  0.00    +0.000 N 
ATOM      9  N   UNL     1      45.369   7.632  12.191  0.00  0.00    +0.000 NA
ATOM     10  C   UNL     1      44.404   6.681  12.301  0.00  0.00    +0.000 A 
ATOM     11  H   UNL     1      47.077   9.124  11.999  0.00  0.00    +0.000 HD
BRANCH   4  13
ATOM     12  N   UNL     1      42.642   4.399  11.582  0.00  0.00    +0.000 N 
ATOM     13  C   UNL     1      43.549   4.377  12.604  0.00  0.00    +0.000 C 
ATOM     14  O   UNL     1      43.450   3.585  13.528  0.00  0.00    +0.000 OA
ATOM     15  H   UNL     1      41.918   3.687  11.603  0.00  0.00    +0.000 HD
ATOM     16  H   UNL     1      42.811   4.860  10.700  0.00  0.00    +0.000 HD
ENDBRANCH   4  13
ENDBRANCH   1   8
BRANCH   1  17
ATOM     17  C   UNL     1      49.027   8.222  14.151  0.00  0.00    +0.000 A 
ATOM     18  C   UNL     1      48.290   9.089  14.981  0.00  0.00    +0.000 A 
ATOM     19  C   UNL     1      48.240   8.911  16.366  0.00  0.00    +0.000 A 
ATOM     20  C   UNL     1      48.955   7.862  16.947  0.00  0.00    +0.000 A 
ATOM     21  C   UNL     1      49.767   7.039  16.166  0.00  0.00    +0.000 A 
ATOM     22  C   UNL     1      49.794   7.222  14.780  0.00  0.00    +0.000 A 
BRANCH  20  23
ATOM     23  S   UNL     1      48.866   7.601  18.709  0.00  0.00    +0.000 S 
ATOM     24  O   UNL     1      50.240   7.651  19.192  0.00  0.00    +0.000 OA
ATOM     25  O   UNL     1      47.900   8.570  19.209  0.00  0.00    +0.000 OA
BRANCH  23  26
ATOM     26  C   UNL     1      48.197   5.901  18.836  0.00  0.00    +0.000 C 
ATOM     27  F   UNL     1      47.397   5.564  17.783  0.00  0.00    +0.000 F 
ATOM     28  F   UNL     1      49.179   4.954  18.882  0.00  0.00    +0.000 F 
ATOM     29  F   UNL     1      47.441   5.720  19.957  0.00  0.00    +0.000 F 
ENDBRANCH  23  26
ENDBRANCH  20  23
ENDBRANCH   1  17
TORSDOF 5
ENDMDL
