MODEL 1
REMARK VINA RESULT:    -8.138      0.000      0.000
REMARK INTER + INTRA:         -11.105
REMARK INTER:                 -10.517
REMARK INTRA:                  -0.588
REMARK UNBOUND:                -0.588
REMARK  Name = 
REMARK  6 active torsions:
REMARK  status: ('A' for Active; 'I' for Inactive)
REMARK    1  A    between atoms: C_1  and  C_2
REMARK    2  A    between atoms: C_2  and  N_3
REMARK    3  A    between atoms: C_2  and  C_18
REMARK    4  A    between atoms: C_7  and  C_8
REMARK    5  A    between atoms: C_8  and  O_9
REMARK    6  A    between atoms: O_9  and  C_10
REMARK                            x       y       z     vdW  Elec       q    Type
REMARK                         _______ _______ _______ _____ _____    ______ ____
ROOT
ATOM      1  N   UNL     1      47.487   4.930  15.327  0.00  0.00    +0.000 N 
ATOM      2  C   UNL     1      46.715   4.655  14.206  0.00  0.00    +0.000 A 
ATOM      3  C   UNL     1      46.027   5.712  13.598  0.00  0.00    +0.000 A 
ATOM      4  N   UNL     1      45.232   5.578  12.510  0.00  0.00    +0.000 NA
ATOM      5  C   UNL     1      45.144   4.322  12.011  0.00  0.00    +0.000 A 
ATOM      6  C   UNL     1      45.847   3.273  12.593  0.00  0.00    +0.000 A 
ATOM      7  N   UNL     1      46.642   3.419  13.685  0.00  0.00    +0.000 NA
ATOM      8  H   UNL     1      48.304   5.457  15.027  0.00  0.00    +0.000 HD
ENDROOT
BRANCH   1  10
ATOM      9  C   UNL     1      46.765   3.551  17.298  0.00  0.00    +0.000 C 
ATOM     10  C   UNL     1      47.877   3.898  16.298  0.00  0.00    +0.000 C 
BRANCH  10  11
ATOM     11  C   UNL     1      49.101   4.379  17.080  0.00  0.00    +0.000 A 
ATOM     12  C   UNL     1      49.242   5.670  17.571  0.00  0.00    +0.000 A 
ATOM     13  S   UNL     1      50.733   5.931  18.360  0.00  0.00    +0.000 S 
ATOM     14  C   UNL     1      51.222   4.324  18.089  0.00  0.00    +0.000 A 
ATOM     15  N   UNL     1      52.438   3.876  18.503  0.00  0.00    +0.000 NA
ATOM     16  C   UNL     1      52.657   2.630  18.242  0.00  0.00    +0.000 A 
ATOM     17  N   UNL     1      51.771   1.789  17.620  0.00  0.00    +0.000 N 
ATOM     18  C   UNL     1      50.530   2.194  17.184  0.00  0.00    +0.000 A 
ATOM     19  O   UNL     1      49.750   1.413  16.644  0.00  0.00    +0.000 OA
ATOM     20  C   UNL     1      50.251   3.593  17.430  0.00  0.00    +0.000 A 
ATOM     21  H   UNL     1      51.999   0.818  17.466  0.00  0.00    +0.000 HD
ENDBRANCH  10  11
ENDBRANCH   1  10
BRANCH   5  22
ATOM     22  C   UNL     1      44.263   4.095  10.810  0.00  0.00    +0.000 C 
BRANCH  22  23
ATOM     23  O   UNL     1      44.462   2.767  10.313  0.00  0.00    +0.000 OA
BRANCH  23  24
ATOM     24  C   UNL     1      45.228   2.753   9.166  0.00  0.00    +0.000 A 
ATOM     25  C   UNL     1      45.328   3.922   8.425  0.00  0.00    +0.000 A 
ATOM     26  N   UNL     1      46.053   4.007   7.279  0.00  0.00    +0.000 NA
ATOM     27  C   UNL     1      46.682   2.866   6.916  0.00  0.00    +0.000 A 
ATOM     28  C   UNL     1      46.586   1.699   7.657  0.00  0.00    +0.000 A 
ATOM     29  N   UNL     1      45.853   1.614   8.789  0.00  0.00    +0.000 NA
ENDBRANCH  23  24
ENDBRANCH  22  23
ENDBRANCH   5  22
TORSDOF 5
ENDMDL
MODEL 2
REMARK VINA RESULT:    -7.909      1.190      1.229
REMARK INTER + INTRA:         -10.809
REMARK INTER:                 -10.133
REMARK INTRA:                  -0.676
REMARK UNBOUND:                -0.588
REMARK  Name = 
REMARK  6 active torsions:
REMARK  status: ('A' for Active; 'I' for Inactive)
REMARK    1  A    between atoms: C_1  and  C_2
REMARK    2  A    between atoms: C_2  and  N_3
REMARK    3  A    between atoms: C_2  and  C_18
REMARK    4  A    between atoms: C_7  and  C_8
REMARK    5  A    between atoms: C_8  and  O_9
REMARK    6  A    between atoms: O_9  and  C_10
REMARK                            x       y       z     vdW  Elec       q    Type
REMARK                         _______ _______ _______ _____ _____    ______ ____
ROOT
ATOM      1  N   UNL     1      48.358   5.334  15.800  0.00  0.00    +0.000 N 
ATOM      2  C   UNL     1      47.493   5.313  14.715  0.00  0.00    +0.000 A 
ATOM      3  C   UNL     1      47.430   6.443  13.893  0.00  0.00    +0.000 A 
ATOM      4  N   UNL     1      46.621   6.556  12.813  0.00  0.00    +0.000 NA
ATOM      5  C   UNL     1      45.856   5.471  12.548  0.00  0.00    +0.000 A 
ATOM      6  C   UNL     1      45.936   4.333  13.344  0.00  0.00    +0.000 A 
ATOM      7  N   UNL     1      46.751   4.231  14.426  0.00  0.00    +0.000 NA
ATOM      8  H   UNL     1      49.312   5.287  15.446  0.00  0.00    +0.000 HD
ENDROOT
BRANCH   1  10
ATOM      9  C   UNL     1      47.179   4.955  17.985  0.00  0.00    +0.000 C 
ATOM     10  C   UNL     1      48.204   4.445  16.960  0.00  0.00    +0.000 C 
BRANCH  10  11
ATOM     11  C   UNL     1      49.555   4.291  17.660  0.00  0.00    +0.000 A 
ATOM     12  C   UNL     1      50.089   5.240  18.522  0.00  0.00    +0.000 A 
ATOM     13  S   UNL     1      51.633   4.818  19.115  0.00  0.00    +0.000 S 
ATOM     14  C   UNL     1      51.622   3.348  18.259  0.00  0.00    +0.000 A 
ATOM     15  N   UNL     1      52.678   2.492  18.311  0.00  0.00    +0.000 NA
ATOM     16  C   UNL     1      52.515   1.410  17.625  0.00  0.00    +0.000 A 
ATOM     17  N   UNL     1      51.391   1.099  16.903  0.00  0.00    +0.000 N 
ATOM     18  C   UNL     1      50.297   1.930  16.821  0.00  0.00    +0.000 A 
ATOM     19  O   UNL     1      49.297   1.617  16.179  0.00  0.00    +0.000 OA
ATOM     20  C   UNL     1      50.448   3.171  17.553  0.00  0.00    +0.000 A 
ATOM     21  H   UNL     1      51.320   0.224  16.406  0.00  0.00    +0.000 HD
ENDBRANCH  10  11
ENDBRANCH   1  10
BRANCH   5  22
ATOM     22  C   UNL     1      44.919   5.531  11.370  0.00  0.00    +0.000 C 
BRANCH  22  23
ATOM     23  O   UNL     1      44.500   4.207  11.022  0.00  0.00    +0.000 OA
BRANCH  23  24
ATOM     24  C   UNL     1      45.052   3.786   9.831  0.00  0.00    +0.000 A 
ATOM     25  C   UNL     1      45.470   4.746   8.921  0.00  0.00    +0.000 A 
ATOM     26  N   UNL     1      46.020   4.430   7.720  0.00  0.00    +0.000 NA
ATOM     27  C   UNL     1      46.141   3.106   7.478  0.00  0.00    +0.000 A 
ATOM     28  C   UNL     1      45.727   2.145   8.387  0.00  0.00    +0.000 A 
ATOM     29  N   UNL     1      45.167   2.462   9.575  0.00  0.00    +0.000 NA
ENDBRANCH  23  24
ENDBRANCH  22  23
ENDBRANCH   5  22
TORSDOF 5
ENDMDL
MODEL 3
REMARK VINA RESULT:    -7.606      2.705      3.205
REMARK INTER + INTRA:         -10.418
REMARK INTER:                  -9.605
REMARK INTRA:                  -0.813
REMARK UNBOUND:                -0.588
REMARK  Name = 
REMARK  6 active torsions:
REMARK  status: ('A' for Active; 'I' for Inactive)
REMARK    1  A    between atoms: C_1  and  C_2
REMARK    2  A    between atoms: C_2  and  N_3
REMARK    3  A    between atoms: C_2  and  C_18
REMARK    4  A    between atoms: C_7  and  C_8
REMARK    5  A    between atoms: C_8  and  O_9
REMARK    6  A    between atoms: O_9  and  C_10
REMARK                            x       y       z     vdW  Elec       q    Type
REMARK                         _______ _______ _______ _____ _____    ______ ____
ROOT
ATOM      1  N   UNL     1      46.792   5.472  14.742  0.00  0.00    +0.000 N 
ATOM      2  C   UNL     1      46.073   4.742  13.805  0.00  0.00    +0.000 A 
ATOM      3  C   UNL     1      44.879   5.284  13.315  0.00  0.00    +0.000 A 
ATOM      4  N   UNL     1      44.078   4.671  12.411  0.00  0.00    +0.000 NA
ATOM      5  C   UNL     1      44.516   3.465  11.977  0.00  0.00    +0.000 A 
ATOM      6  C   UNL     1      45.715   2.934  12.438  0.00  0.00    +0.000 A 
ATOM      7  N   UNL     1      46.511   3.558  13.346  0.00  0.00    +0.000 NA
ATOM      8  H   UNL     1      47.202   6.275  14.269  0.00  0.00    +0.000 HD
ENDROOT
BRANCH   1  10
ATOM      9  C   UNL     1      47.135   4.057  16.788  0.00  0.00    +0.000 C 
ATOM     10  C   UNL     1      47.775   4.859  15.645  0.00  0.00    +0.000 C 
BRANCH  10  11
ATOM     11  C   UNL     1      48.653   5.955  16.254  0.00  0.00    +0.000 A 
ATOM     12  C   UNL     1      48.859   6.106  17.619  0.00  0.00    +0.000 A 
ATOM     13  S   UNL     1      49.844   7.445  18.006  0.00  0.00    +0.000 S 
ATOM     14  C   UNL     1      50.043   7.846  16.364  0.00  0.00    +0.000 A 
ATOM     15  N   UNL     1      50.775   8.927  15.985  0.00  0.00    +0.000 NA
ATOM     16  C   UNL     1      50.850   9.090  14.706  0.00  0.00    +0.000 A 
ATOM     17  N   UNL     1      50.271   8.268  13.772  0.00  0.00    +0.000 N 
ATOM     18  C   UNL     1      49.523   7.162  14.107  0.00  0.00    +0.000 A 
ATOM     19  O   UNL     1      49.031   6.434  13.248  0.00  0.00    +0.000 OA
ATOM     20  C   UNL     1      49.388   6.956  15.534  0.00  0.00    +0.000 A 
ATOM     21  H   UNL     1      50.388   8.442  12.785  0.00  0.00    +0.000 HD
ENDBRANCH  10  11
ENDBRANCH   1  10
BRANCH   5  22
ATOM     22  C   UNL     1      43.667   2.716  10.982  0.00  0.00    +0.000 C 
BRANCH  22  23
ATOM     23  O   UNL     1      43.660   3.417   9.734  0.00  0.00    +0.000 OA
BRANCH  23  24
ATOM     24  C   UNL     1      44.729   3.066   8.938  0.00  0.00    +0.000 A 
ATOM     25  C   UNL     1      45.328   4.050   8.164  0.00  0.00    +0.000 A 
ATOM     26  N   UNL     1      46.382   3.801   7.344  0.00  0.00    +0.000 NA
ATOM     27  C   UNL     1      46.817   2.521   7.345  0.00  0.00    +0.000 A 
ATOM     28  C   UNL     1      46.223   1.537   8.120  0.00  0.00    +0.000 A 
ATOM     29  N   UNL     1      45.165   1.784   8.924  0.00  0.00    +0.000 NA
ENDBRANCH  23  24
ENDBRANCH  22  23
ENDBRANCH   5  22
TORSDOF 5
ENDMDL
MODEL 4
REMARK VINA RESULT:    -7.285      2.454      3.246
REMARK INTER + INTRA:         -10.002
REMARK INTER:                  -9.730
REMARK INTRA:                  -0.273
REMARK UNBOUND:                -0.588
REMARK  Name = 
REMARK  6 active torsions:
REMARK  status: ('A' for Active; 'I' for Inactive)
REMARK    1  A    between atoms: C_1  and  C_2
REMARK    2  A    between atoms: C_2  and  N_3
REMARK    3  A    between atoms: C_2  and  C_18
REMARK    4  A    between atoms: C_7  and  C_8
REMARK    5  A    between atoms: C_8  and  O_9
REMARK    6  A    between atoms: O_9  and  C_10
REMARK                            x       y       z     vdW  Elec       q    Type
REMARK                         _______ _______ _______ _____ _____    ______ ____
ROOT
ATOM      1  N   UNL     1      46.808   6.419  13.854  0.00  0.00    +0.000 N 
ATOM      2  C   UNL     1      46.152   5.792  12.803  0.00  0.00    +0.000 A 
ATOM      3  C   UNL     1      45.516   4.571  13.051  0.00  0.00    +0.000 A 
ATOM      4  N   UNL     1      44.854   3.852  12.114  0.00  0.00    +0.000 NA
ATOM      5  C   UNL     1      44.825   4.404  10.877  0.00  0.00    +0.000 A 
ATOM      6  C   UNL     1      45.430   5.631  10.631  0.00  0.00    +0.000 A 
ATOM      7  N   UNL     1      46.092   6.344  11.579  0.00  0.00    +0.000 NA
ATOM      8  H   UNL     1      46.104   6.771  14.500  0.00  0.00    +0.000 HD
ENDROOT
BRANCH   1  10
ATOM      9  C   UNL     1      49.082   6.885  12.896  0.00  0.00    +0.000 C 
ATOM     10  C   UNL     1      47.858   7.426  13.650  0.00  0.00    +0.000 C 
BRANCH  10  11
ATOM     11  C   UNL     1      48.320   7.955  15.009  0.00  0.00    +0.000 A 
ATOM     12  C   UNL     1      48.418   9.306  15.316  0.00  0.00    +0.000 A 
ATOM     13  S   UNL     1      49.009   9.597  16.891  0.00  0.00    +0.000 S 
ATOM     14  C   UNL     1      49.127   7.931  17.215  0.00  0.00    +0.000 A 
ATOM     15  N   UNL     1      49.595   7.475  18.408  0.00  0.00    +0.000 NA
ATOM     16  C   UNL     1      49.608   6.188  18.512  0.00  0.00    +0.000 A 
ATOM     17  N   UNL     1      49.186   5.316  17.541  0.00  0.00    +0.000 N 
ATOM     18  C   UNL     1      48.704   5.728  16.319  0.00  0.00    +0.000 A 
ATOM     19  O   UNL     1      48.318   4.924  15.474  0.00  0.00    +0.000 OA
ATOM     20  C   UNL     1      48.698   7.166  16.147  0.00  0.00    +0.000 A 
ATOM     21  H   UNL     1      49.203   4.319  17.697  0.00  0.00    +0.000 HD
ENDBRANCH  10  11
ENDBRANCH   1  10
BRANCH   5  22
ATOM     22  C   UNL     1      44.119   3.651   9.779  0.00  0.00    +0.000 C 
BRANCH  22  23
ATOM     23  O   UNL     1      44.732   2.369   9.605  0.00  0.00    +0.000 OA
BRANCH  23  24
ATOM     24  C   UNL     1      45.569   2.340   8.511  0.00  0.00    +0.000 A 
ATOM     25  C   UNL     1      45.597   3.444   7.671  0.00  0.00    +0.000 A 
ATOM     26  N   UNL     1      46.384   3.508   6.566  0.00  0.00    +0.000 NA
ATOM     27  C   UNL     1      47.151   2.416   6.347  0.00  0.00    +0.000 A 
ATOM     28  C   UNL     1      47.127   1.313   7.186  0.00  0.00    +0.000 A 
ATOM     29  N   UNL     1      46.333   1.247   8.277  0.00  0.00    +0.000 NA
ENDBRANCH  23  24
ENDBRANCH  22  23
ENDBRANCH   5  22
TORSDOF 5
ENDMDL
MODEL 5
REMARK VINA RESULT:    -7.270      2.531      3.228
REMARK INTER + INTRA:          -9.983
REMARK INTER:                  -9.175
REMARK INTRA:                  -0.808
REMARK UNBOUND:                -0.588
REMARK  Name = 
REMARK  6 active torsions:
REMARK  status: ('A' for Active; 'I' for Inactive)
REMARK    1  A    between atoms: C_1  and  C_2
REMARK    2  A    between atoms: C_2  and  N_3
REMARK    3  A    between atoms: C_2  and  C_18
REMARK    4  A    between atoms: C_7  and  C_8
REMARK    5  A    between atoms: C_8  and  O_9
REMARK    6  A    between atoms: O_9  and  C_10
REMARK                            x       y       z     vdW  Elec       q    Type
REMARK                         _______ _______ _______ _____ _____    ______ ____
ROOT
ATOM      1  N   UNL     1      46.712   4.334  15.655  0.00  0.00    +0.000 N 
ATOM      2  C   UNL     1      46.506   4.738  14.343  0.00  0.00    +0.000 A 
ATOM      3  C   UNL     1      45.342   4.314  13.693  0.00  0.00    +0.000 A 
ATOM      4  N   UNL     1      45.027   4.625  12.413  0.00  0.00    +0.000 NA
ATOM      5  C   UNL     1      45.925   5.412  11.773  0.00  0.00    +0.000 A 
ATOM      6  C   UNL     1      47.069   5.861  12.423  0.00  0.00    +0.000 A 
ATOM      7  N   UNL     1      47.375   5.542  13.708  0.00  0.00    +0.000 NA
ATOM      8  H   UNL     1      46.048   4.830  16.247  0.00  0.00    +0.000 HD
ENDROOT
BRANCH   1  10
ATOM      9  C   UNL     1      48.423   2.949  16.864  0.00  0.00    +0.000 C 
ATOM     10  C   UNL     1      48.040   4.319  16.285  0.00  0.00    +0.000 C 
BRANCH  10  11
ATOM     11  C   UNL     1      48.074   5.350  17.414  0.00  0.00    +0.000 A 
ATOM     12  C   UNL     1      47.355   5.222  18.596  0.00  0.00    +0.000 A 
ATOM     13  S   UNL     1      47.550   6.550  19.650  0.00  0.00    +0.000 S 
ATOM     14  C   UNL     1      48.618   7.321  18.572  0.00  0.00    +0.000 A 
ATOM     15  N   UNL     1      49.154   8.538  18.858  0.00  0.00    +0.000 NA
ATOM     16  C   UNL     1      49.960   8.984  17.953  0.00  0.00    +0.000 A 
ATOM     17  N   UNL     1      50.288   8.324  16.796  0.00  0.00    +0.000 N 
ATOM     18  C   UNL     1      49.773   7.092  16.463  0.00  0.00    +0.000 A 
ATOM     19  O   UNL     1      50.099   6.516  15.427  0.00  0.00    +0.000 OA
ATOM     20  C   UNL     1      48.841   6.564  17.437  0.00  0.00    +0.000 A 
ATOM     21  H   UNL     1      50.944   8.722  16.140  0.00  0.00    +0.000 HD
ENDBRANCH  10  11
ENDBRANCH   1  10
BRANCH   5  22
ATOM     22  C   UNL     1      45.649   5.786  10.340  0.00  0.00    +0.000 C 
BRANCH  22  23
ATOM     23  O   UNL     1      44.733   4.847   9.766  0.00  0.00    +0.000 OA
BRANCH  23  24
ATOM     24  C   UNL     1      45.373   3.915   8.978  0.00  0.00    +0.000 A 
ATOM     25  C   UNL     1      45.270   2.575   9.324  0.00  0.00    +0.000 A 
ATOM     26  N   UNL     1      45.870   1.584   8.614  0.00  0.00    +0.000 NA
ATOM     27  C   UNL     1      46.570   1.998   7.534  0.00  0.00    +0.000 A 
ATOM     28  C   UNL     1      46.672   3.336   7.186  0.00  0.00    +0.000 A 
ATOM     29  N   UNL     1      46.086   4.320   7.901  0.00  0.00    +0.000 NA
ENDBRANCH  23  24
ENDBRANCH  22  23
ENDBRANCH   5  22
TORSDOF 5
ENDMDL
MODEL 6
REMARK VINA RESULT:    -7.035      3.377      4.454
REMARK INTER + INTRA:          -9.680
REMARK INTER:                  -9.293
REMARK INTRA:                  -0.386
REMARK UNBOUND:                -0.588
REMARK  Name = 
REMARK  6 active torsions:
REMARK  status: ('A' for Active; 'I' for Inactive)
REMARK    1  A    between atoms: C_1  and  C_2
REMARK    2  A    between atoms: C_2  and  N_3
REMARK    3  A    between atoms: C_2  and  C_18
REMARK    4  A    between atoms: C_7  and  C_8
REMARK    5  A    between atoms: C_8  and  O_9
REMARK    6  A    between atoms: O_9  and  C_10
REMARK                            x       y       z     vdW  Elec       q    Type
REMARK                         _______ _______ _______ _____ _____    ______ ____
ROOT
ATOM      1  N   UNL     1      46.938   6.039  14.020  0.00  0.00    +0.000 N 
ATOM      2  C   UNL     1      46.249   5.537  12.925  0.00  0.00    +0.000 A 
ATOM      3  C   UNL     1      45.692   4.257  13.021  0.00  0.00    +0.000 A 
ATOM      4  N   UNL     1      45.008   3.647  12.023  0.00  0.00    +0.000 NA
ATOM      5  C   UNL     1      44.873   4.373  10.888  0.00  0.00    +0.000 A 
ATOM      6  C   UNL     1      45.400   5.656  10.797  0.00  0.00    +0.000 A 
ATOM      7  N   UNL     1      46.084   6.259  11.804  0.00  0.00    +0.000 NA
ATOM      8  H   UNL     1      46.261   6.250  14.750  0.00  0.00    +0.000 HD
ENDROOT
BRANCH   1  10
ATOM      9  C   UNL     1      49.001   6.866  12.849  0.00  0.00    +0.000 C 
ATOM     10  C   UNL     1      47.923   7.125  13.913  0.00  0.00    +0.000 C 
BRANCH  10  11
ATOM     11  C   UNL     1      48.612   7.316  15.265  0.00  0.00    +0.000 A 
ATOM     12  C   UNL     1      48.908   6.272  16.133  0.00  0.00    +0.000 A 
ATOM     13  S   UNL     1      49.633   6.792  17.588  0.00  0.00    +0.000 S 
ATOM     14  C   UNL     1      49.594   8.419  17.092  0.00  0.00    +0.000 A 
ATOM     15  N   UNL     1      50.054   9.414  17.898  0.00  0.00    +0.000 NA
ATOM     16  C   UNL     1      49.976  10.593  17.376  0.00  0.00    +0.000 A 
ATOM     17  N   UNL     1      49.494  10.868  16.121  0.00  0.00    +0.000 N 
ATOM     18  C   UNL     1      49.019   9.897  15.270  0.00  0.00    +0.000 A 
ATOM     19  O   UNL     1      48.608  10.171  14.145  0.00  0.00    +0.000 OA
ATOM     20  C   UNL     1      49.060   8.560  15.825  0.00  0.00    +0.000 A 
ATOM     21  H   UNL     1      49.481  11.812  15.767  0.00  0.00    +0.000 HD
ENDBRANCH  10  11
ENDBRANCH   1  10
BRANCH   5  22
ATOM     22  C   UNL     1      44.137   3.751   9.729  0.00  0.00    +0.000 C 
BRANCH  22  23
ATOM     23  O   UNL     1      44.756   4.146   8.500  0.00  0.00    +0.000 OA
BRANCH  23  24
ATOM     24  C   UNL     1      45.657   3.206   8.049  0.00  0.00    +0.000 A 
ATOM     25  C   UNL     1      45.538   1.902   8.509  0.00  0.00    +0.000 A 
ATOM     26  N   UNL     1      46.381   0.907   8.128  0.00  0.00    +0.000 NA
ATOM     27  C   UNL     1      47.343   1.279   7.254  0.00  0.00    +0.000 A 
ATOM     28  C   UNL     1      47.462   2.580   6.790  0.00  0.00    +0.000 A 
ATOM     29  N   UNL     1      46.631   3.570   7.182  0.00  0.00    +0.000 NA
ENDBRANCH  23  24
ENDBRANCH  22  23
ENDBRANCH   5  22
TORSDOF 5
ENDMDL
MODEL 7
REMARK VINA RESULT:    -6.960      2.139      2.723
REMARK INTER + INTRA:          -9.583
REMARK INTER:                  -9.030
REMARK INTRA:                  -0.553
REMARK UNBOUND:                -0.588
REMARK  Name = 
REMARK  6 active torsions:
REMARK  status: ('A' for Active; 'I' for Inactive)
REMARK    1  A    between atoms: C_1  and  C_2
REMARK    2  A    between atoms: C_2  and  N_3
REMARK    3  A    between atoms: C_2  and  C_18
REMARK    4  A    between atoms: C_7  and  C_8
REMARK    5  A    between atoms: C_8  and  O_9
REMARK    6  A    between atoms: O_9  and  C_10
REMARK                            x       y       z     vdW  Elec       q    Type
REMARK                         _______ _______ _______ _____ _____    ______ ____
ROOT
ATOM      1  N   UNL     1      48.260   7.278  13.574  0.00  0.00    +0.000 N 
ATOM      2  C   UNL     1      47.277   6.481  13.002  0.00  0.00    +0.000 A 
ATOM      3  C   UNL     1      47.022   6.621  11.634  0.00  0.00    +0.000 A 
ATOM      4  N   UNL     1      46.084   5.916  10.957  0.00  0.00    +0.000 NA
ATOM      5  C   UNL     1      45.388   5.022  11.699  0.00  0.00    +0.000 A 
ATOM      6  C   UNL     1      45.656   4.858  13.053  0.00  0.00    +0.000 A 
ATOM      7  N   UNL     1      46.600   5.571  13.722  0.00  0.00    +0.000 NA
ATOM      8  H   UNL     1      49.165   6.950  13.242  0.00  0.00    +0.000 HD
ENDROOT
BRANCH   1  10
ATOM      9  C   UNL     1      48.068   9.034  15.359  0.00  0.00    +0.000 C 
ATOM     10  C   UNL     1      48.319   7.558  15.016  0.00  0.00    +0.000 C 
BRANCH  10  11
ATOM     11  C   UNL     1      49.697   7.163  15.550  0.00  0.00    +0.000 A 
ATOM     12  C   UNL     1      50.869   7.836  15.229  0.00  0.00    +0.000 A 
ATOM     13  S   UNL     1      52.259   7.140  15.932  0.00  0.00    +0.000 S 
ATOM     14  C   UNL     1      51.335   5.937  16.704  0.00  0.00    +0.000 A 
ATOM     15  N   UNL     1      51.922   4.979  17.471  0.00  0.00    +0.000 NA
ATOM     16  C   UNL     1      51.089   4.149  18.005  0.00  0.00    +0.000 A 
ATOM     17  N   UNL     1      49.727   4.195  17.855  0.00  0.00    +0.000 N 
ATOM     18  C   UNL     1      49.087   5.145  17.092  0.00  0.00    +0.000 A 
ATOM     19  O   UNL     1      47.863   5.171  16.989  0.00  0.00    +0.000 OA
ATOM     20  C   UNL     1      49.985   6.081  16.449  0.00  0.00    +0.000 A 
ATOM     21  H   UNL     1      49.132   3.526  18.320  0.00  0.00    +0.000 HD
ENDBRANCH  10  11
ENDBRANCH   1  10
BRANCH   5  22
ATOM     22  C   UNL     1      44.316   4.213  11.016  0.00  0.00    +0.000 C 
BRANCH  22  23
ATOM     23  O   UNL     1      44.289   4.532   9.620  0.00  0.00    +0.000 OA
BRANCH  23  24
ATOM     24  C   UNL     1      45.112   3.706   8.885  0.00  0.00    +0.000 A 
ATOM     25  C   UNL     1      45.150   2.356   9.206  0.00  0.00    +0.000 A 
ATOM     26  N   UNL     1      45.933   1.465   8.544  0.00  0.00    +0.000 NA
ATOM     27  C   UNL     1      46.669   1.988   7.538  0.00  0.00    +0.000 A 
ATOM     28  C   UNL     1      46.630   3.335   7.214  0.00  0.00    +0.000 A 
ATOM     29  N   UNL     1      45.861   4.221   7.883  0.00  0.00    +0.000 NA
ENDBRANCH  23  24
ENDBRANCH  22  23
ENDBRANCH   5  22
TORSDOF 5
ENDMDL
MODEL 8
REMARK VINA RESULT:    -6.560      4.123      5.787
REMARK INTER + INTRA:          -9.065
REMARK INTER:                  -9.091
REMARK INTRA:                   0.026
REMARK UNBOUND:                -0.588
REMARK  Name = 
REMARK  6 active torsions:
REMARK  status: ('A' for Active; 'I' for Inactive)
REMARK    1  A    between atoms: C_1  and  C_2
REMARK    2  A    between atoms: C_2  and  N_3
REMARK    3  A    between atoms: C_2  and  C_18
REMARK    4  A    between atoms: C_7  and  C_8
REMARK    5  A    between atoms: C_8  and  O_9
REMARK    6  A    between atoms: O_9  and  C_10
REMARK                            x       y       z     vdW  Elec       q    Type
REMARK                         _______ _______ _______ _____ _____    ______ ____
ROOT
ATOM      1  N   UNL     1      47.430   6.389  13.935  0.00  0.00    +0.000 N 
ATOM      2  C   UNL     1      46.624   5.839  12.947  0.00  0.00    +0.000 A 
ATOM      3  C   UNL     1      45.713   4.841  13.311  0.00  0.00    +0.000 A 
ATOM      4  N   UNL     1      44.881   4.215  12.445  0.00  0.00    +0.000 NA
ATOM      5  C   UNL     1      44.968   4.631  11.159  0.00  0.00    +0.000 A 
ATOM      6  C   UNL     1      45.850   5.642  10.795  0.00  0.00    +0.000 A 
ATOM      7  N   UNL     1      46.681   6.263  11.673  0.00  0.00    +0.000 NA
ATOM      8  H   UNL     1      46.844   6.965  14.536  0.00  0.00    +0.000 HD
ENDROOT
BRANCH   1  10
ATOM      9  C   UNL     1      49.569   7.303  14.882  0.00  0.00    +0.000 C 
ATOM     10  C   UNL     1      48.691   7.082  13.640  0.00  0.00    +0.000 C 
BRANCH  10  11
ATOM     11  C   UNL     1      48.384   8.444  13.015  0.00  0.00    +0.000 A 
ATOM     12  C   UNL     1      47.206   9.146  13.239  0.00  0.00    +0.000 A 
ATOM     13  S   UNL     1      47.121  10.612  12.369  0.00  0.00    +0.000 S 
ATOM     14  C   UNL     1      48.661  10.363  11.689  0.00  0.00    +0.000 A 
ATOM     15  N   UNL     1      49.199  11.255  10.814  0.00  0.00    +0.000 NA
ATOM     16  C   UNL     1      50.380  10.939  10.399  0.00  0.00    +0.000 A 
ATOM     17  N   UNL     1      51.078   9.823  10.786  0.00  0.00    +0.000 N 
ATOM     18  C   UNL     1      50.577   8.893  11.668  0.00  0.00    +0.000 A 
ATOM     19  O   UNL     1      51.232   7.911  12.010  0.00  0.00    +0.000 OA
ATOM     20  C   UNL     1      49.241   9.192  12.139  0.00  0.00    +0.000 A 
ATOM     21  H   UNL     1      52.008   9.647  10.438  0.00  0.00    +0.000 HD
ENDBRANCH  10  11
ENDBRANCH   1  10
BRANCH   5  22
ATOM     22  C   UNL     1      44.083   3.967  10.136  0.00  0.00    +0.000 C 
BRANCH  22  23
ATOM     23  O   UNL     1      44.506   4.340   8.820  0.00  0.00    +0.000 OA
BRANCH  23  24
ATOM     24  C   UNL     1      45.379   3.422   8.278  0.00  0.00    +0.000 A 
ATOM     25  C   UNL     1      45.358   2.123   8.766  0.00  0.00    +0.000 A 
ATOM     26  N   UNL     1      46.183   1.149   8.300  0.00  0.00    +0.000 NA
ATOM     27  C   UNL     1      47.024   1.536   7.315  0.00  0.00    +0.000 A 
ATOM     28  C   UNL     1      47.044   2.832   6.824  0.00  0.00    +0.000 A 
ATOM     29  N   UNL     1      46.232   3.802   7.298  0.00  0.00    +0.000 NA
ENDBRANCH  23  24
ENDBRANCH  22  23
ENDBRANCH   5  22
TORSDOF 5
ENDMDL
MODEL 9
REMARK VINA RESULT:    -6.557      3.241      9.512
REMARK INTER + INTRA:          -9.062
REMARK INTER:                  -8.413
REMARK INTRA:                  -0.649
REMARK UNBOUND:                -0.588
REMARK  Name = 
REMARK  6 active torsions:
REMARK  status: ('A' for Active; 'I' for Inactive)
REMARK    1  A    between atoms: C_1  and  C_2
REMARK    2  A    between atoms: C_2  and  N_3
REMARK    3  A    between atoms: C_2  and  C_18
REMARK    4  A    between atoms: C_7  and  C_8
REMARK    5  A    between atoms: C_8  and  O_9
REMARK    6  A    between atoms: O_9  and  C_10
REMARK                            x       y       z     vdW  Elec       q    Type
REMARK                         _______ _______ _______ _____ _____    ______ ____
ROOT
ATOM      1  N   UNL     1      47.516   5.618  15.444  0.00  0.00    +0.000 N 
ATOM      2  C   UNL     1      48.399   5.432  16.500  0.00  0.00    +0.000 A 
ATOM      3  C   UNL     1      47.871   5.223  17.778  0.00  0.00    +0.000 A 
ATOM      4  N   UNL     1      48.620   5.042  18.892  0.00  0.00    +0.000 NA
ATOM      5  C   UNL     1      49.960   5.058  18.696  0.00  0.00    +0.000 A 
ATOM      6  C   UNL     1      50.491   5.236  17.423  0.00  0.00    +0.000 A 
ATOM      7  N   UNL     1      49.729   5.417  16.312  0.00  0.00    +0.000 NA
ATOM      8  H   UNL     1      47.063   4.727  15.251  0.00  0.00    +0.000 HD
ENDROOT
BRANCH   1  10
ATOM      9  C   UNL     1      48.319   7.741  14.369  0.00  0.00    +0.000 C 
ATOM     10  C   UNL     1      47.904   6.273  14.188  0.00  0.00    +0.000 C 
BRANCH  10  11
ATOM     11  C   UNL     1      46.731   6.218  13.208  0.00  0.00    +0.000 A 
ATOM     12  C   UNL     1      46.194   7.338  12.585  0.00  0.00    +0.000 A 
ATOM     13  S   UNL     1      44.861   6.978  11.583  0.00  0.00    +0.000 S 
ATOM     14  C   UNL     1      44.976   5.316  11.931  0.00  0.00    +0.000 A 
ATOM     15  N   UNL     1      44.101   4.420  11.401  0.00  0.00    +0.000 NA
ATOM     16  C   UNL     1      44.328   3.196  11.742  0.00  0.00    +0.000 A 
ATOM     17  N   UNL     1      45.355   2.782  12.553  0.00  0.00    +0.000 N 
ATOM     18  C   UNL     1      46.266   3.649  13.112  0.00  0.00    +0.000 A 
ATOM     19  O   UNL     1      47.186   3.248  13.821  0.00  0.00    +0.000 OA
ATOM     20  C   UNL     1      46.032   5.039  12.779  0.00  0.00    +0.000 A 
ATOM     21  H   UNL     1      45.488   1.804  12.762  0.00  0.00    +0.000 HD
ENDBRANCH  10  11
ENDBRANCH   1  10
BRANCH   5  22
ATOM     22  C   UNL     1      50.856   4.879  19.893  0.00  0.00    +0.000 C 
BRANCH  22  23
ATOM     23  O   UNL     1      52.193   5.262  19.554  0.00  0.00    +0.000 OA
BRANCH  23  24
ATOM     24  C   UNL     1      53.109   4.283  19.874  0.00  0.00    +0.000 A 
ATOM     25  C   UNL     1      53.117   3.115  19.125  0.00  0.00    +0.000 A 
ATOM     26  N   UNL     1      53.977   2.092  19.367  0.00  0.00    +0.000 NA
ATOM     27  C   UNL     1      54.836   2.298  20.390  0.00  0.00    +0.000 A 
ATOM     28  C   UNL     1      54.832   3.465  21.138  0.00  0.00    +0.000 A 
ATOM     29  N   UNL     1      53.967   4.475  20.904  0.00  0.00    +0.000 NA
ENDBRANCH  23  24
ENDBRANCH  22  23
ENDBRANCH   5  22
TORSDOF 5
ENDMDL
