MODEL 1
REMARK VINA RESULT:    -8.740      0.000      0.000
REMARK INTER + INTRA:         -11.134
REMARK INTER:                 -11.294
REMARK INTRA:                   0.160
REMARK UNBOUND:                 0.160
REMARK  Name = 
REMARK  7 active torsions:
REMARK  status: ('A' for Active; 'I' for Inactive)
REMARK    1  A    between atoms: C_1  and  C_2
REMARK    2  A    between atoms: C_2  and  N_3
REMARK    3  A    between atoms: C_2  and  C_17
REMARK    4  A    between atoms: C_4  and  C_6
REMARK    5  A    between atoms: N_12  and  C_13
REMARK    6  A    between atoms: C_20  and  O_21
REMARK    7  A    between atoms: O_21  and  C_22
REMARK                            x       y       z     vdW  Elec       q    Type
REMARK                         _______ _______ _______ _____ _____    ______ ____
ROOT
ATOM      1  C   UNL     1      44.518   7.819  11.646  0.00  0.00    +0.000 C 
ATOM      2  C   UNL     1      44.545   6.515  12.443  0.00  0.00    +0.000 C 
ENDROOT
BRANCH   2   3
ATOM      3  C   UNL     1      44.543   5.266  11.571  0.00  0.00    +0.000 A 
ATOM      4  C   UNL     1      44.815   4.017  12.154  0.00  0.00    +0.000 A 
ATOM      5  C   UNL     1      44.999   2.878  11.361  0.00  0.00    +0.000 A 
ATOM      6  C   UNL     1      44.874   2.963   9.973  0.00  0.00    +0.000 A 
ATOM      7  C   UNL     1      44.599   4.197   9.385  0.00  0.00    +0.000 A 
ATOM      8  C   UNL     1      44.437   5.338  10.174  0.00  0.00    +0.000 A 
BRANCH   6   9
ATOM      9  O   UNL     1      45.103   1.930   9.092  0.00  0.00    +0.000 OA
BRANCH   9  10
ATOM     10  C   UNL     1      45.943   2.106   8.027  0.00  0.00    +0.000 A 
ATOM     11  C   UNL     1      46.004   3.257   7.245  0.00  0.00    +0.000 A 
ATOM     12  C   UNL     1      46.901   3.313   6.183  0.00  0.00    +0.000 A 
ATOM     13  C   UNL     1      47.741   2.231   5.970  0.00  0.00    +0.000 A 
ATOM     14  N   UNL     1      47.748   1.122   6.741  0.00  0.00    +0.000 NA
ATOM     15  C   UNL     1      46.852   1.089   7.756  0.00  0.00    +0.000 A 
ENDBRANCH   9  10
ENDBRANCH   6   9
ENDBRANCH   2   3
BRANCH   2  16
ATOM     16  N   UNL     1      45.709   6.454  13.313  0.00  0.00    +0.000 N 
ATOM     17  C   UNL     1      46.992   6.643  12.873  0.00  0.00    +0.000 C 
ATOM     18  O   UNL     1      47.272   6.724  11.680  0.00  0.00    +0.000 OA
ATOM     19  H   UNL     1      45.520   6.532  14.308  0.00  0.00    +0.000 HD
BRANCH  17  20
ATOM     20  C   UNL     1      48.029   6.733  13.912  0.00  0.00    +0.000 A 
ATOM     21  C   UNL     1      48.951   7.769  13.885  0.00  0.00    +0.000 A 
ATOM     22  S   UNL     1      50.043   7.744  15.197  0.00  0.00    +0.000 S 
ATOM     23  C   UNL     1      49.284   6.379  15.879  0.00  0.00    +0.000 A 
ATOM     24  N   UNL     1      49.682   5.877  17.071  0.00  0.00    +0.000 NA
ATOM     25  C   UNL     1      48.974   4.884  17.502  0.00  0.00    +0.000 A 
ATOM     26  N   UNL     1      47.915   4.309  16.830  0.00  0.00    +0.000 N 
ATOM     27  C   UNL     1      47.183   3.198  17.398  0.00  0.00    +0.000 C 
ATOM     28  C   UNL     1      47.545   4.742  15.563  0.00  0.00    +0.000 A 
ATOM     29  O   UNL     1      46.697   4.163  14.890  0.00  0.00    +0.000 OA
ATOM     30  C   UNL     1      48.255   5.913  15.082  0.00  0.00    +0.000 A 
ENDBRANCH  17  20
ENDBRANCH   2  16
TORSDOF 5
ENDMDL
MODEL 2
REMARK VINA RESULT:    -8.265      1.948      2.839
REMARK INTER + INTRA:         -10.520
REMARK INTER:                  -9.185
REMARK INTRA:                  -1.335
REMARK UNBOUND:                 0.160
REMARK  Name = 
REMARK  7 active torsions:
REMARK  status: ('A' for Active; 'I' for Inactive)
REMARK    1  A    between atoms: C_1  and  C_2
REMARK    2  A    between atoms: C_2  and  N_3
REMARK    3  A    between atoms: C_2  and  C_17
REMARK    4  A    between atoms: C_4  and  C_6
REMARK    5  A    between atoms: N_12  and  C_13
REMARK    6  A    between atoms: C_20  and  O_21
REMARK    7  A    between atoms: O_21  and  C_22
REMARK                            x       y       z     vdW  Elec       q    Type
REMARK                         _______ _______ _______ _____ _____    ______ ____
ROOT
ATOM      1  C   UNL     1      47.981   9.363  12.631  0.00  0.00    +0.000 C 
ATOM      2  C   UNL     1      47.394   8.326  13.589  0.00  0.00    +0.000 C 
ENDROOT
BRANCH   2   3
ATOM      3  C   UNL     1      46.475   7.319  12.912  0.00  0.00    +0.000 A 
ATOM      4  C   UNL     1      46.801   5.953  12.949  0.00  0.00    +0.000 A 
ATOM      5  C   UNL     1      46.083   5.021  12.191  0.00  0.00    +0.000 A 
ATOM      6  C   UNL     1      45.001   5.436  11.412  0.00  0.00    +0.000 A 
ATOM      7  C   UNL     1      44.665   6.788  11.372  0.00  0.00    +0.000 A 
ATOM      8  C   UNL     1      45.395   7.722  12.111  0.00  0.00    +0.000 A 
BRANCH   6   9
ATOM      9  O   UNL     1      44.270   4.624  10.574  0.00  0.00    +0.000 OA
BRANCH   9  10
ATOM     10  C   UNL     1      44.898   3.899   9.598  0.00  0.00    +0.000 A 
ATOM     11  C   UNL     1      45.605   4.448   8.531  0.00  0.00    +0.000 A 
ATOM     12  C   UNL     1      46.198   3.602   7.598  0.00  0.00    +0.000 A 
ATOM     13  C   UNL     1      46.103   2.233   7.794  0.00  0.00    +0.000 A 
ATOM     14  N   UNL     1      45.475   1.667   8.847  0.00  0.00    +0.000 NA
ATOM     15  C   UNL     1      44.892   2.514   9.728  0.00  0.00    +0.000 A 
ENDBRANCH   9  10
ENDBRANCH   6   9
ENDBRANCH   2   3
BRANCH   2  16
ATOM     16  N   UNL     1      48.445   7.588  14.273  0.00  0.00    +0.000 N 
ATOM     17  C   UNL     1      48.909   7.915  15.519  0.00  0.00    +0.000 C 
ATOM     18  O   UNL     1      48.584   8.951  16.090  0.00  0.00    +0.000 OA
ATOM     19  H   UNL     1      48.638   6.659  13.910  0.00  0.00    +0.000 HD
BRANCH  17  20
ATOM     20  C   UNL     1      49.839   6.957  16.138  0.00  0.00    +0.000 A 
ATOM     21  C   UNL     1      51.160   7.318  16.362  0.00  0.00    +0.000 A 
ATOM     22  S   UNL     1      52.075   6.103  17.137  0.00  0.00    +0.000 S 
ATOM     23  C   UNL     1      50.722   5.073  17.251  0.00  0.00    +0.000 A 
ATOM     24  N   UNL     1      50.799   3.881  17.887  0.00  0.00    +0.000 NA
ATOM     25  C   UNL     1      49.681   3.235  17.959  0.00  0.00    +0.000 A 
ATOM     26  N   UNL     1      48.483   3.652  17.416  0.00  0.00    +0.000 N 
ATOM     27  C   UNL     1      47.283   2.855  17.551  0.00  0.00    +0.000 C 
ATOM     28  C   UNL     1      48.396   4.824  16.677  0.00  0.00    +0.000 A 
ATOM     29  O   UNL     1      47.377   5.148  16.073  0.00  0.00    +0.000 OA
ATOM     30  C   UNL     1      49.606   5.625  16.649  0.00  0.00    +0.000 A 
ENDBRANCH  17  20
ENDBRANCH   2  16
TORSDOF 5
ENDMDL
MODEL 3
REMARK VINA RESULT:    -8.108      2.480      3.603
REMARK INTER + INTRA:         -10.317
REMARK INTER:                  -9.309
REMARK INTRA:                  -1.008
REMARK UNBOUND:                 0.160
REMARK  Name = 
REMARK  7 active torsions:
REMARK  status: ('A' for Active; 'I' for Inactive)
REMARK    1  A    between atoms: C_1  and  C_2
REMARK    2  A    between atoms: C_2  and  N_3
REMARK    3  A    between atoms: C_2  and  C_17
REMARK    4  A    between atoms: C_4  and  C_6
REMARK    5  A    between atoms: N_12  and  C_13
REMARK    6  A    between atoms: C_20  and  O_21
REMARK    7  A    between atoms: O_21  and  C_22
REMARK                            x       y       z     vdW  Elec       q    Type
REMARK                         _______ _______ _______ _____ _____    ______ ____
ROOT
ATOM      1  C   UNL     1      49.494   7.960  13.068  0.00  0.00    +0.000 C 
ATOM      2  C   UNL     1      48.132   8.072  13.755  0.00  0.00    +0.000 C 
ENDROOT
BRANCH   2   3
ATOM      3  C   UNL     1      47.041   7.247  13.085  0.00  0.00    +0.000 A 
ATOM      4  C   UNL     1      46.995   5.859  13.299  0.00  0.00    +0.000 A 
ATOM      5  C   UNL     1      46.124   5.047  12.564  0.00  0.00    +0.000 A 
ATOM      6  C   UNL     1      45.256   5.614  11.629  0.00  0.00    +0.000 A 
ATOM      7  C   UNL     1      45.290   6.991  11.412  0.00  0.00    +0.000 A 
ATOM      8  C   UNL     1      46.174   7.800  12.130  0.00  0.00    +0.000 A 
BRANCH   6   9
ATOM      9  O   UNL     1      44.411   4.909  10.802  0.00  0.00    +0.000 OA
BRANCH   9  10
ATOM     10  C   UNL     1      44.922   4.084   9.838  0.00  0.00    +0.000 A 
ATOM     11  C   UNL     1      44.805   2.697   9.836  0.00  0.00    +0.000 A 
ATOM     12  C   UNL     1      45.374   1.965   8.797  0.00  0.00    +0.000 A 
ATOM     13  C   UNL     1      45.999   2.654   7.770  0.00  0.00    +0.000 A 
ATOM     14  N   UNL     1      46.084   4.001   7.711  0.00  0.00    +0.000 NA
ATOM     15  C   UNL     1      45.536   4.684   8.744  0.00  0.00    +0.000 A 
ENDBRANCH   9  10
ENDBRANCH   6   9
ENDBRANCH   2   3
BRANCH   2  16
ATOM     16  N   UNL     1      48.211   7.665  15.149  0.00  0.00    +0.000 N 
ATOM     17  C   UNL     1      48.601   8.504  16.159  0.00  0.00    +0.000 C 
ATOM     18  O   UNL     1      49.065   9.619  15.944  0.00  0.00    +0.000 OA
ATOM     19  H   UNL     1      47.710   6.815  15.389  0.00  0.00    +0.000 HD
BRANCH  17  20
ATOM     20  C   UNL     1      48.447   7.988  17.528  0.00  0.00    +0.000 A 
ATOM     21  C   UNL     1      47.894   8.793  18.514  0.00  0.00    +0.000 A 
ATOM     22  S   UNL     1      47.742   8.011  20.024  0.00  0.00    +0.000 S 
ATOM     23  C   UNL     1      48.358   6.551  19.398  0.00  0.00    +0.000 A 
ATOM     24  N   UNL     1      48.423   5.433  20.158  0.00  0.00    +0.000 NA
ATOM     25  C   UNL     1      48.845   4.381  19.535  0.00  0.00    +0.000 A 
ATOM     26  N   UNL     1      49.251   4.344  18.216  0.00  0.00    +0.000 N 
ATOM     27  C   UNL     1      49.708   3.113  17.609  0.00  0.00    +0.000 C 
ATOM     28  C   UNL     1      49.284   5.495  17.440  0.00  0.00    +0.000 A 
ATOM     29  O   UNL     1      49.764   5.515  16.310  0.00  0.00    +0.000 OA
ATOM     30  C   UNL     1      48.732   6.679  18.073  0.00  0.00    +0.000 A 
ENDBRANCH  17  20
ENDBRANCH   2  16
TORSDOF 5
ENDMDL
MODEL 4
REMARK VINA RESULT:    -7.610      2.595      4.589
REMARK INTER + INTRA:          -9.674
REMARK INTER:                  -8.328
REMARK INTRA:                  -1.346
REMARK UNBOUND:                 0.160
REMARK  Name = 
REMARK  7 active torsions:
REMARK  status: ('A' for Active; 'I' for Inactive)
REMARK    1  A    between atoms: C_1  and  C_2
REMARK    2  A    between atoms: C_2  and  N_3
REMARK    3  A    between atoms: C_2  and  C_17
REMARK    4  A    between atoms: C_4  and  C_6
REMARK    5  A    between atoms: N_12  and  C_13
REMARK    6  A    between atoms: C_20  and  O_21
REMARK    7  A    between atoms: O_21  and  C_22
REMARK                            x       y       z     vdW  Elec       q    Type
REMARK                         _______ _______ _______ _____ _____    ______ ____
ROOT
ATOM      1  C   UNL     1      46.991   4.076  16.939  0.00  0.00    +0.000 C 
ATOM      2  C   UNL     1      47.784   4.623  15.752  0.00  0.00    +0.000 C 
ENDROOT
BRANCH   2   3
ATOM      3  C   UNL     1      47.018   4.585  14.436  0.00  0.00    +0.000 A 
ATOM      4  C   UNL     1      46.446   5.767  13.936  0.00  0.00    +0.000 A 
ATOM      5  C   UNL     1      45.588   5.739  12.831  0.00  0.00    +0.000 A 
ATOM      6  C   UNL     1      45.318   4.532  12.183  0.00  0.00    +0.000 A 
ATOM      7  C   UNL     1      45.884   3.353  12.668  0.00  0.00    +0.000 A 
ATOM      8  C   UNL     1      46.723   3.378  13.784  0.00  0.00    +0.000 A 
BRANCH   6   9
ATOM      9  O   UNL     1      44.438   4.374  11.137  0.00  0.00    +0.000 OA
BRANCH   9  10
ATOM     10  C   UNL     1      44.894   3.984   9.907  0.00  0.00    +0.000 A 
ATOM     11  C   UNL     1      44.651   2.742   9.326  0.00  0.00    +0.000 A 
ATOM     12  C   UNL     1      45.175   2.464   8.067  0.00  0.00    +0.000 A 
ATOM     13  C   UNL     1      45.883   3.459   7.412  0.00  0.00    +0.000 A 
ATOM     14  N   UNL     1      46.091   4.693   7.921  0.00  0.00    +0.000 NA
ATOM     15  C   UNL     1      45.584   4.928   9.154  0.00  0.00    +0.000 A 
ENDBRANCH   9  10
ENDBRANCH   6   9
ENDBRANCH   2   3
BRANCH   2  16
ATOM     16  N   UNL     1      48.205   5.996  15.988  0.00  0.00    +0.000 N 
ATOM     17  C   UNL     1      49.471   6.340  16.380  0.00  0.00    +0.000 C 
ATOM     18  O   UNL     1      50.305   5.504  16.715  0.00  0.00    +0.000 OA
ATOM     19  H   UNL     1      47.606   6.714  15.592  0.00  0.00    +0.000 HD
BRANCH  17  20
ATOM     20  C   UNL     1      49.779   7.778  16.393  0.00  0.00    +0.000 A 
ATOM     21  C   UNL     1      49.985   8.433  17.599  0.00  0.00    +0.000 A 
ATOM     22  S   UNL     1      50.385  10.083  17.418  0.00  0.00    +0.000 S 
ATOM     23  C   UNL     1      50.351   9.966  15.718  0.00  0.00    +0.000 A 
ATOM     24  N   UNL     1      50.683  11.019  14.935  0.00  0.00    +0.000 NA
ATOM     25  C   UNL     1      50.683  10.769  13.667  0.00  0.00    +0.000 A 
ATOM     26  N   UNL     1      50.341   9.562  13.092  0.00  0.00    +0.000 N 
ATOM     27  C   UNL     1      50.372   9.382  11.657  0.00  0.00    +0.000 C 
ATOM     28  C   UNL     1      49.906   8.493  13.864  0.00  0.00    +0.000 A 
ATOM     29  O   UNL     1      49.470   7.457  13.370  0.00  0.00    +0.000 OA
ATOM     30  C   UNL     1      49.979   8.702  15.299  0.00  0.00    +0.000 A 
ENDBRANCH  17  20
ENDBRANCH   2  16
TORSDOF 5
ENDMDL
MODEL 5
REMARK VINA RESULT:    -7.321      1.953      2.593
REMARK INTER + INTRA:          -9.301
REMARK INTER:                  -8.797
REMARK INTRA:                  -0.504
REMARK UNBOUND:                 0.160
REMARK  Name = 
REMARK  7 active torsions:
REMARK  status: ('A' for Active; 'I' for Inactive)
REMARK    1  A    between atoms: C_1  and  C_2
REMARK    2  A    between atoms: C_2  and  N_3
REMARK    3  A    between atoms: C_2  and  C_17
REMARK    4  A    between atoms: C_4  and  C_6
REMARK    5  A    between atoms: N_12  and  C_13
REMARK    6  A    between atoms: C_20  and  O_21
REMARK    7  A    between atoms: O_21  and  C_22
REMARK                            x       y       z     vdW  Elec       q    Type
REMARK                         _______ _______ _______ _____ _____    ______ ____
ROOT
ATOM      1  C   UNL     1      45.296   8.757  12.507  0.00  0.00    +0.000 C 
ATOM      2  C   UNL     1      45.971   7.448  12.918  0.00  0.00    +0.000 C 
ENDROOT
BRANCH   2   3
ATOM      3  C   UNL     1      45.734   6.305  11.940  0.00  0.00    +0.000 A 
ATOM      4  C   UNL     1      46.214   6.412  10.625  0.00  0.00    +0.000 A 
ATOM      5  C   UNL     1      45.863   5.468   9.652  0.00  0.00    +0.000 A 
ATOM      6  C   UNL     1      45.056   4.380   9.990  0.00  0.00    +0.000 A 
ATOM      7  C   UNL     1      44.579   4.261  11.295  0.00  0.00    +0.000 A 
ATOM      8  C   UNL     1      44.911   5.214  12.260  0.00  0.00    +0.000 A 
BRANCH   6   9
ATOM      9  O   UNL     1      44.591   3.434   9.105  0.00  0.00    +0.000 OA
BRANCH   9  10
ATOM     10  C   UNL     1      45.464   2.758   8.298  0.00  0.00    +0.000 A 
ATOM     11  C   UNL     1      45.884   1.446   8.502  0.00  0.00    +0.000 A 
ATOM     12  C   UNL     1      46.781   0.870   7.608  0.00  0.00    +0.000 A 
ATOM     13  C   UNL     1      47.190   1.612   6.512  0.00  0.00    +0.000 A 
ATOM     14  N   UNL     1      46.761   2.866   6.252  0.00  0.00    +0.000 NA
ATOM     15  C   UNL     1      45.902   3.407   7.148  0.00  0.00    +0.000 A 
ENDBRANCH   9  10
ENDBRANCH   6   9
ENDBRANCH   2   3
BRANCH   2  16
ATOM     16  N   UNL     1      47.408   7.621  13.068  0.00  0.00    +0.000 N 
ATOM     17  C   UNL     1      47.983   8.276  14.124  0.00  0.00    +0.000 C 
ATOM     18  O   UNL     1      47.323   8.904  14.946  0.00  0.00    +0.000 OA
ATOM     19  H   UNL     1      47.986   7.008  12.503  0.00  0.00    +0.000 HD
BRANCH  17  20
ATOM     20  C   UNL     1      49.449   8.198  14.216  0.00  0.00    +0.000 A 
ATOM     21  C   UNL     1      50.238   9.014  13.418  0.00  0.00    +0.000 A 
ATOM     22  S   UNL     1      51.912   8.828  13.699  0.00  0.00    +0.000 S 
ATOM     23  C   UNL     1      51.638   7.689  14.937  0.00  0.00    +0.000 A 
ATOM     24  N   UNL     1      52.662   7.177  15.659  0.00  0.00    +0.000 NA
ATOM     25  C   UNL     1      52.304   6.379  16.611  0.00  0.00    +0.000 A 
ATOM     26  N   UNL     1      51.006   6.006  16.893  0.00  0.00    +0.000 N 
ATOM     27  C   UNL     1      50.707   5.105  17.985  0.00  0.00    +0.000 C 
ATOM     28  C   UNL     1      49.944   6.441  16.111  0.00  0.00    +0.000 A 
ATOM     29  O   UNL     1      48.800   6.020  16.258  0.00  0.00    +0.000 OA
ATOM     30  C   UNL     1      50.292   7.411  15.088  0.00  0.00    +0.000 A 
ENDBRANCH  17  20
ENDBRANCH   2  16
TORSDOF 5
ENDMDL
MODEL 6
REMARK VINA RESULT:    -7.286      2.908      3.966
REMARK INTER + INTRA:          -9.256
REMARK INTER:                  -8.774
REMARK INTRA:                  -0.482
REMARK UNBOUND:                 0.160
REMARK  Name = 
REMARK  7 active torsions:
REMARK  status: ('A' for Active; 'I' for Inactive)
REMARK    1  A    between atoms: C_1  and  C_2
REMARK    2  A    between atoms: C_2  and  N_3
REMARK    3  A    between atoms: C_2  and  C_17
REMARK    4  A    between atoms: C_4  and  C_6
REMARK    5  A    between atoms: N_12  and  C_13
REMARK    6  A    between atoms: C_20  and  O_21
REMARK    7  A    between atoms: O_21  and  C_22
REMARK                            x       y       z     vdW  Elec       q    Type
REMARK                         _______ _______ _______ _____ _____    ______ ____
ROOT
ATOM      1  C   UNL     1      45.169   8.748  12.901  0.00  0.00    +0.000 C 
ATOM      2  C   UNL     1      46.023   7.503  12.662  0.00  0.00    +0.000 C 
ENDROOT
BRANCH   2   3
ATOM      3  C   UNL     1      45.500   6.608  11.546  0.00  0.00    +0.000 A 
ATOM      4  C   UNL     1      44.252   5.982  11.691  0.00  0.00    +0.000 A 
ATOM      5  C   UNL     1      43.820   5.017  10.774  0.00  0.00    +0.000 A 
ATOM      6  C   UNL     1      44.615   4.691   9.673  0.00  0.00    +0.000 A 
ATOM      7  C   UNL     1      45.853   5.311   9.516  0.00  0.00    +0.000 A 
ATOM      8  C   UNL     1      46.294   6.258  10.442  0.00  0.00    +0.000 A 
BRANCH   6   9
ATOM      9  O   UNL     1      44.326   3.711   8.750  0.00  0.00    +0.000 OA
BRANCH   9  10
ATOM     10  C   UNL     1      45.338   3.021   8.140  0.00  0.00    +0.000 A 
ATOM     11  C   UNL     1      46.164   3.535   7.144  0.00  0.00    +0.000 A 
ATOM     12  C   UNL     1      47.158   2.729   6.598  0.00  0.00    +0.000 A 
ATOM     13  C   UNL     1      47.322   1.449   7.104  0.00  0.00    +0.000 A 
ATOM     14  N   UNL     1      46.577   0.936   8.107  0.00  0.00    +0.000 NA
ATOM     15  C   UNL     1      45.606   1.738   8.606  0.00  0.00    +0.000 A 
ENDBRANCH   9  10
ENDBRANCH   6   9
ENDBRANCH   2   3
BRANCH   2  16
ATOM     16  N   UNL     1      47.398   7.860  12.345  0.00  0.00    +0.000 N 
ATOM     17  C   UNL     1      48.479   7.389  13.041  0.00  0.00    +0.000 C 
ATOM     18  O   UNL     1      48.363   6.752  14.084  0.00  0.00    +0.000 OA
ATOM     19  H   UNL     1      47.548   8.258  11.424  0.00  0.00    +0.000 HD
BRANCH  17  20
ATOM     20  C   UNL     1      49.801   7.700  12.475  0.00  0.00    +0.000 A 
ATOM     21  C   UNL     1      50.121   7.283  11.191  0.00  0.00    +0.000 A 
ATOM     22  S   UNL     1      51.673   7.781  10.681  0.00  0.00    +0.000 S 
ATOM     23  C   UNL     1      51.948   8.619  12.139  0.00  0.00    +0.000 A 
ATOM     24  N   UNL     1      53.075   9.344  12.330  0.00  0.00    +0.000 NA
ATOM     25  C   UNL     1      53.121   9.985  13.452  0.00  0.00    +0.000 A 
ATOM     26  N   UNL     1      52.153   9.941  14.435  0.00  0.00    +0.000 N 
ATOM     27  C   UNL     1      52.298  10.697  15.660  0.00  0.00    +0.000 C 
ATOM     28  C   UNL     1      51.032   9.132  14.307  0.00  0.00    +0.000 A 
ATOM     29  O   UNL     1      50.226   8.973  15.220  0.00  0.00    +0.000 OA
ATOM     30  C   UNL     1      50.897   8.467  13.024  0.00  0.00    +0.000 A 
ENDBRANCH  17  20
ENDBRANCH   2  16
TORSDOF 5
ENDMDL
MODEL 7
REMARK VINA RESULT:    -6.050     10.602     13.144
REMARK INTER + INTRA:          -7.658
REMARK INTER:                  -6.733
REMARK INTRA:                  -0.925
REMARK UNBOUND:                 0.160
REMARK  Name = 
REMARK  7 active torsions:
REMARK  status: ('A' for Active; 'I' for Inactive)
REMARK    1  A    between atoms: C_1  and  C_2
REMARK    2  A    between atoms: C_2  and  N_3
REMARK    3  A    between atoms: C_2  and  C_17
REMARK    4  A    between atoms: C_4  and  C_6
REMARK    5  A    between atoms: N_12  and  C_13
REMARK    6  A    between atoms: C_20  and  O_21
REMARK    7  A    between atoms: O_21  and  C_22
REMARK                            x       y       z     vdW  Elec       q    Type
REMARK                         _______ _______ _______ _____ _____    ______ ____
ROOT
ATOM      1  C   UNL     1      39.598  -1.621  16.148  0.00  0.00    +0.000 C 
ATOM      2  C   UNL     1      40.600  -2.394  15.290  0.00  0.00    +0.000 C 
ENDROOT
BRANCH   2   3
ATOM      3  C   UNL     1      41.242  -3.571  16.012  0.00  0.00    +0.000 A 
ATOM      4  C   UNL     1      41.561  -3.454  17.375  0.00  0.00    +0.000 A 
ATOM      5  C   UNL     1      42.311  -4.441  18.026  0.00  0.00    +0.000 A 
ATOM      6  C   UNL     1      42.720  -5.581  17.332  0.00  0.00    +0.000 A 
ATOM      7  C   UNL     1      42.404  -5.710  15.980  0.00  0.00    +0.000 A 
ATOM      8  C   UNL     1      41.675  -4.716  15.325  0.00  0.00    +0.000 A 
BRANCH   6   9
ATOM      9  O   UNL     1      43.518  -6.578  17.847  0.00  0.00    +0.000 OA
BRANCH   9  10
ATOM     10  C   UNL     1      44.864  -6.577  17.603  0.00  0.00    +0.000 A 
ATOM     11  C   UNL     1      45.780  -5.715  18.200  0.00  0.00    +0.000 A 
ATOM     12  C   UNL     1      47.127  -5.811  17.865  0.00  0.00    +0.000 A 
ATOM     13  C   UNL     1      47.518  -6.801  16.978  0.00  0.00    +0.000 A 
ATOM     14  N   UNL     1      46.666  -7.690  16.422  0.00  0.00    +0.000 NA
ATOM     15  C   UNL     1      45.360  -7.561  16.754  0.00  0.00    +0.000 A 
ENDBRANCH   9  10
ENDBRANCH   6   9
ENDBRANCH   2   3
BRANCH   2  16
ATOM     16  N   UNL     1      39.975  -2.897  14.077  0.00  0.00    +0.000 N 
ATOM     17  C   UNL     1      40.549  -2.802  12.837  0.00  0.00    +0.000 C 
ATOM     18  O   UNL     1      41.564  -2.144  12.632  0.00  0.00    +0.000 OA
ATOM     19  H   UNL     1      39.220  -3.562  14.214  0.00  0.00    +0.000 HD
BRANCH  17  20
ATOM     20  C   UNL     1      39.870  -3.525  11.750  0.00  0.00    +0.000 A 
ATOM     21  C   UNL     1      40.066  -4.890  11.597  0.00  0.00    +0.000 A 
ATOM     22  S   UNL     1      39.157  -5.569  10.321  0.00  0.00    +0.000 S 
ATOM     23  C   UNL     1      38.428  -4.071   9.964  0.00  0.00    +0.000 A 
ATOM     24  N   UNL     1      37.473  -3.964   9.010  0.00  0.00    +0.000 NA
ATOM     25  C   UNL     1      36.957  -2.785   8.894  0.00  0.00    +0.000 A 
ATOM     26  N   UNL     1      37.333  -1.674   9.621  0.00  0.00    +0.000 N 
ATOM     27  C   UNL     1      36.691  -0.394   9.416  0.00  0.00    +0.000 C 
ATOM     28  C   UNL     1      38.373  -1.732  10.539  0.00  0.00    +0.000 A 
ATOM     29  O   UNL     1      38.814  -0.732  11.099  0.00  0.00    +0.000 OA
ATOM     30  C   UNL     1      38.919  -3.058  10.766  0.00  0.00    +0.000 A 
ENDBRANCH  17  20
ENDBRANCH   2  16
TORSDOF 5
ENDMDL
MODEL 8
REMARK VINA RESULT:    -5.777     10.057     12.073
REMARK INTER + INTRA:          -7.305
REMARK INTER:                  -5.827
REMARK INTRA:                  -1.478
REMARK UNBOUND:                 0.160
REMARK  Name = 
REMARK  7 active torsions:
REMARK  status: ('A' for Active; 'I' for Inactive)
REMARK    1  A    between atoms: C_1  and  C_2
REMARK    2  A    between atoms: C_2  and  N_3
REMARK    3  A    between atoms: C_2  and  C_17
REMARK    4  A    between atoms: C_4  and  C_6
REMARK    5  A    between atoms: N_12  and  C_13
REMARK    6  A    between atoms: C_20  and  O_21
REMARK    7  A    between atoms: O_21  and  C_22
REMARK                            x       y       z     vdW  Elec       q    Type
REMARK                         _______ _______ _______ _____ _____    ______ ____
ROOT
ATOM      1  C   UNL     1      36.537  -2.157  10.533  0.00  0.00    +0.000 C 
ATOM      2  C   UNL     1      37.579  -1.552  11.474  0.00  0.00    +0.000 C 
ENDROOT
BRANCH   2   3
ATOM      3  C   UNL     1      36.978  -0.713  12.593  0.00  0.00    +0.000 A 
ATOM      4  C   UNL     1      37.073   0.688  12.533  0.00  0.00    +0.000 A 
ATOM      5  C   UNL     1      36.695   1.482  13.622  0.00  0.00    +0.000 A 
ATOM      6  C   UNL     1      36.179   0.889  14.776  0.00  0.00    +0.000 A 
ATOM      7  C   UNL     1      36.076  -0.500  14.845  0.00  0.00    +0.000 A 
ATOM      8  C   UNL     1      36.473  -1.294  13.767  0.00  0.00    +0.000 A 
BRANCH   6   9
ATOM      9  O   UNL     1      35.843   1.562  15.930  0.00  0.00    +0.000 OA
BRANCH   9  10
ATOM     10  C   UNL     1      36.818   2.129  16.703  0.00  0.00    +0.000 A 
ATOM     11  C   UNL     1      37.159   3.479  16.689  0.00  0.00    +0.000 A 
ATOM     12  C   UNL     1      38.175   3.936  17.523  0.00  0.00    +0.000 A 
ATOM     13  C   UNL     1      38.781   3.031  18.380  0.00  0.00    +0.000 A 
ATOM     14  N   UNL     1      38.439   1.727  18.462  0.00  0.00    +0.000 NA
ATOM     15  C   UNL     1      37.459   1.309  17.625  0.00  0.00    +0.000 A 
ENDBRANCH   9  10
ENDBRANCH   6   9
ENDBRANCH   2   3
BRANCH   2  16
ATOM     16  N   UNL     1      38.403  -2.587  12.080  0.00  0.00    +0.000 N 
ATOM     17  C   UNL     1      39.766  -2.633  11.960  0.00  0.00    +0.000 C 
ATOM     18  O   UNL     1      40.385  -1.893  11.201  0.00  0.00    +0.000 OA
ATOM     19  H   UNL     1      37.961  -3.124  12.820  0.00  0.00    +0.000 HD
BRANCH  17  20
ATOM     20  C   UNL     1      40.457  -3.635  12.787  0.00  0.00    +0.000 A 
ATOM     21  C   UNL     1      41.029  -4.751  12.192  0.00  0.00    +0.000 A 
ATOM     22  S   UNL     1      41.834  -5.774  13.296  0.00  0.00    +0.000 S 
ATOM     23  C   UNL     1      41.495  -4.732  14.600  0.00  0.00    +0.000 A 
ATOM     24  N   UNL     1      41.973  -4.982  15.842  0.00  0.00    +0.000 NA
ATOM     25  C   UNL     1      41.698  -4.073  16.719  0.00  0.00    +0.000 A 
ATOM     26  N   UNL     1      40.947  -2.939  16.484  0.00  0.00    +0.000 N 
ATOM     27  C   UNL     1      40.695  -1.979  17.536  0.00  0.00    +0.000 C 
ATOM     28  C   UNL     1      40.365  -2.704  15.246  0.00  0.00    +0.000 A 
ATOM     29  O   UNL     1      39.586  -1.776  15.049  0.00  0.00    +0.000 OA
ATOM     30  C   UNL     1      40.725  -3.653  14.208  0.00  0.00    +0.000 A 
ENDBRANCH  17  20
ENDBRANCH   2  16
TORSDOF 5
ENDMDL
MODEL 9
REMARK VINA RESULT:    -5.776      3.011      4.064
REMARK INTER + INTRA:          -7.303
REMARK INTER:                  -6.283
REMARK INTRA:                  -1.020
REMARK UNBOUND:                 0.160
REMARK  Name = 
REMARK  7 active torsions:
REMARK  status: ('A' for Active; 'I' for Inactive)
REMARK    1  A    between atoms: C_1  and  C_2
REMARK    2  A    between atoms: C_2  and  N_3
REMARK    3  A    between atoms: C_2  and  C_17
REMARK    4  A    between atoms: C_4  and  C_6
REMARK    5  A    between atoms: N_12  and  C_13
REMARK    6  A    between atoms: C_20  and  O_21
REMARK    7  A    between atoms: O_21  and  C_22
REMARK                            x       y       z     vdW  Elec       q    Type
REMARK                         _______ _______ _______ _____ _____    ______ ____
ROOT
ATOM      1  C   UNL     1      47.185   4.040  16.537  0.00  0.00    +0.000 C 
ATOM      2  C   UNL     1      47.686   4.777  15.294  0.00  0.00    +0.000 C 
ENDROOT
BRANCH   2   3
ATOM      3  C   UNL     1      46.750   4.664  14.098  0.00  0.00    +0.000 A 
ATOM      4  C   UNL     1      46.383   3.392  13.627  0.00  0.00    +0.000 A 
ATOM      5  C   UNL     1      45.675   3.246  12.429  0.00  0.00    +0.000 A 
ATOM      6  C   UNL     1      45.288   4.373  11.701  0.00  0.00    +0.000 A 
ATOM      7  C   UNL     1      45.642   5.640  12.163  0.00  0.00    +0.000 A 
ATOM      8  C   UNL     1      46.367   5.786  13.347  0.00  0.00    +0.000 A 
BRANCH   6   9
ATOM      9  O   UNL     1      44.654   4.348  10.479  0.00  0.00    +0.000 OA
BRANCH   9  10
ATOM     10  C   UNL     1      45.266   3.776   9.398  0.00  0.00    +0.000 A 
ATOM     11  C   UNL     1      45.312   2.408   9.142  0.00  0.00    +0.000 A 
ATOM     12  C   UNL     1      45.971   1.948   8.006  0.00  0.00    +0.000 A 
ATOM     13  C   UNL     1      46.520   2.879   7.139  0.00  0.00    +0.000 A 
ATOM     14  N   UNL     1      46.447   4.215   7.326  0.00  0.00    +0.000 NA
ATOM     15  C   UNL     1      45.814   4.631   8.449  0.00  0.00    +0.000 A 
ENDBRANCH   9  10
ENDBRANCH   6   9
ENDBRANCH   2   3
BRANCH   2  16
ATOM     16  N   UNL     1      47.895   6.191  15.569  0.00  0.00    +0.000 N 
ATOM     17  C   UNL     1      49.129   6.745  15.776  0.00  0.00    +0.000 C 
ATOM     18  O   UNL     1      50.143   6.064  15.901  0.00  0.00    +0.000 OA
ATOM     19  H   UNL     1      47.119   6.803  15.338  0.00  0.00    +0.000 HD
BRANCH  17  20
ATOM     20  C   UNL     1      49.177   8.213  15.856  0.00  0.00    +0.000 A 
ATOM     21  C   UNL     1      49.723   8.947  14.813  0.00  0.00    +0.000 A 
ATOM     22  S   UNL     1      49.644  10.635  15.053  0.00  0.00    +0.000 S 
ATOM     23  C   UNL     1      48.825  10.445  16.536  0.00  0.00    +0.000 A 
ATOM     24  N   UNL     1      48.387  11.516  17.238  0.00  0.00    +0.000 NA
ATOM     25  C   UNL     1      47.722  11.224  18.308  0.00  0.00    +0.000 A 
ATOM     26  N   UNL     1      47.480   9.948  18.773  0.00  0.00    +0.000 N 
ATOM     27  C   UNL     1      46.722   9.724  19.984  0.00  0.00    +0.000 C 
ATOM     28  C   UNL     1      47.998   8.834  18.124  0.00  0.00    +0.000 A 
ATOM     29  O   UNL     1      47.911   7.701  18.589  0.00  0.00    +0.000 OA
ATOM     30  C   UNL     1      48.673   9.112  16.870  0.00  0.00    +0.000 A 
ENDBRANCH  17  20
ENDBRANCH   2  16
TORSDOF 5
ENDMDL
