MODEL 1
REMARK VINA RESULT:    -7.882      0.000      0.000
REMARK INTER + INTRA:         -12.894
REMARK INTER:                 -11.798
REMARK INTRA:                  -1.095
REMARK UNBOUND:                -1.095
REMARK  Name = 
REMARK  10 active torsions:
REMARK  status: ('A' for Active; 'I' for Inactive)
REMARK    1  A    between atoms: C_1  and  C_2
REMARK    2  A    between atoms: C_2  and  N_3
REMARK    3  A    between atoms: C_2  and  C_19
REMARK    4  A    between atoms: N_3  and  C_4
REMARK    5  A    between atoms: C_4  and  C_5
REMARK    6  A    between atoms: C_8  and  C_9
REMARK    7  A    between atoms: C_9  and  O_10
REMARK    8  A    between atoms: C_9  and  C_11
REMARK    9  A    between atoms: C_11  and  N_12
REMARK   10  A    between atoms: C_19  and  C_21
REMARK                            x       y       z     vdW  Elec       q    Type
REMARK                         _______ _______ _______ _____ _____    ______ ____
ROOT
ATOM      1  N   UNL     1      48.454   5.121  15.616  0.00  0.00    +0.000 NA
ATOM      2  H   UNL     1      47.892   4.274  15.557  0.00  0.00    +0.000 HD
ENDROOT
BRANCH   1   4
ATOM      3  C   UNL     1      48.931   7.076  17.103  0.00  0.00    +0.000 C 
ATOM      4  C   UNL     1      48.340   5.667  16.989  0.00  0.00    +0.000 C 
BRANCH   4   5
ATOM      5  C   UNL     1      48.915   4.714  18.066  0.00  0.00    +0.000 C 
ATOM      6  O   UNL     1      48.178   4.218  18.919  0.00  0.00    +0.000 OA
BRANCH   5   7
ATOM      7  C   UNL     1      50.359   4.421  18.091  0.00  0.00    +0.000 A 
ATOM      8  C   UNL     1      51.325   5.277  18.591  0.00  0.00    +0.000 A 
ATOM      9  S   UNL     1      52.868   4.548  18.721  0.00  0.00    +0.000 S 
ATOM     10  C   UNL     1      52.294   3.086  18.069  0.00  0.00    +0.000 A 
ATOM     11  N   UNL     1      53.094   1.991  17.965  0.00  0.00    +0.000 NA
ATOM     12  C   UNL     1      52.506   0.955  17.464  0.00  0.00    +0.000 A 
ATOM     13  N   UNL     1      51.209   0.925  17.016  0.00  0.00    +0.000 N 
ATOM     14  C   UNL     1      50.415   2.051  16.966  0.00  0.00    +0.000 A 
ATOM     15  O   UNL     1      49.400   2.088  16.283  0.00  0.00    +0.000 OA
ATOM     16  C   UNL     1      50.973   3.186  17.679  0.00  0.00    +0.000 A 
ATOM     17  H   UNL     1      50.852   0.117  16.530  0.00  0.00    +0.000 HD
ENDBRANCH   5   7
ENDBRANCH   4   5
ENDBRANCH   1   4
BRANCH   1  18
ATOM     18  C   UNL     1      48.034   6.034  14.550  0.00  0.00    +0.000 C 
BRANCH  18  19
ATOM     19  C   UNL     1      47.067   5.360  13.596  0.00  0.00    +0.000 A 
ATOM     20  C   UNL     1      46.715   4.013  13.754  0.00  0.00    +0.000 A 
ATOM     21  C   UNL     1      45.813   3.398  12.878  0.00  0.00    +0.000 A 
ATOM     22  C   UNL     1      45.226   4.117  11.827  0.00  0.00    +0.000 A 
ATOM     23  C   UNL     1      45.569   5.468  11.679  0.00  0.00    +0.000 A 
ATOM     24  C   UNL     1      46.475   6.082  12.552  0.00  0.00    +0.000 A 
BRANCH  22  25
ATOM     25  C   UNL     1      44.275   3.416  10.876  0.00  0.00    +0.000 C 
BRANCH  25  26
ATOM     26  O   UNL     1      42.952   3.412  11.426  0.00  0.00    +0.000 OA
ATOM     27  H   UNL     1      43.009   3.774  12.326  0.00  0.00    +0.000 HD
ENDBRANCH  25  26
BRANCH  25  28
ATOM     28  C   UNL     1      44.226   4.042   9.451  0.00  0.00    +0.000 C 
BRANCH  28  29
ATOM     29  N   UNL     1      44.671   3.159   8.367  0.00  0.00    +0.000 NA
ATOM     30  C   UNL     1      45.938   3.575   7.764  0.00  0.00    +0.000 C 
ATOM     31  C   UNL     1      46.560   2.258   7.351  0.00  0.00    +0.000 C 
ATOM     32  N   UNL     1      46.198   1.375   8.463  0.00  0.00    +0.000 NA
ATOM     33  C   UNL     1      44.833   1.774   8.795  0.00  0.00    +0.000 C 
ATOM     34  H   UNL     1      46.779   1.620   9.263  0.00  0.00    +0.000 HD
ENDBRANCH  28  29
ENDBRANCH  25  28
ENDBRANCH  22  25
ENDBRANCH  18  19
ENDBRANCH   1  18
TORSDOF 9
ENDMDL
MODEL 2
REMARK VINA RESULT:    -7.535      2.104      2.677
REMARK INTER + INTRA:         -12.375
REMARK INTER:                 -10.994
REMARK INTRA:                  -1.381
REMARK UNBOUND:                -1.095
REMARK  Name = 
REMARK  10 active torsions:
REMARK  status: ('A' for Active; 'I' for Inactive)
REMARK    1  A    between atoms: C_1  and  C_2
REMARK    2  A    between atoms: C_2  and  N_3
REMARK    3  A    between atoms: C_2  and  C_19
REMARK    4  A    between atoms: N_3  and  C_4
REMARK    5  A    between atoms: C_4  and  C_5
REMARK    6  A    between atoms: C_8  and  C_9
REMARK    7  A    between atoms: C_9  and  O_10
REMARK    8  A    between atoms: C_9  and  C_11
REMARK    9  A    between atoms: C_11  and  N_12
REMARK   10  A    between atoms: C_19  and  C_21
REMARK                            x       y       z     vdW  Elec       q    Type
REMARK                         _______ _______ _______ _____ _____    ______ ____
ROOT
ATOM      1  N   UNL     1      49.619   6.597  14.706  0.00  0.00    +0.000 NA
ATOM      2  H   UNL     1      49.034   5.824  15.018  0.00  0.00    +0.000 HD
ENDROOT
BRANCH   1   4
ATOM      3  C   UNL     1      51.659   7.423  15.896  0.00  0.00    +0.000 C 
ATOM      4  C   UNL     1      50.131   7.311  15.900  0.00  0.00    +0.000 C 
BRANCH   4   5
ATOM      5  C   UNL     1      49.602   6.719  17.229  0.00  0.00    +0.000 C 
ATOM      6  O   UNL     1      49.572   7.405  18.251  0.00  0.00    +0.000 OA
BRANCH   5   7
ATOM      7  C   UNL     1      49.156   5.315  17.281  0.00  0.00    +0.000 A 
ATOM      8  C   UNL     1      47.849   4.899  17.093  0.00  0.00    +0.000 A 
ATOM      9  S   UNL     1      47.697   3.200  16.952  0.00  0.00    +0.000 S 
ATOM     10  C   UNL     1      49.367   2.976  17.185  0.00  0.00    +0.000 A 
ATOM     11  N   UNL     1      49.936   1.742  17.111  0.00  0.00    +0.000 NA
ATOM     12  C   UNL     1      51.215   1.740  17.296  0.00  0.00    +0.000 A 
ATOM     13  N   UNL     1      51.969   2.848  17.592  0.00  0.00    +0.000 N 
ATOM     14  C   UNL     1      51.410   4.086  17.824  0.00  0.00    +0.000 A 
ATOM     15  O   UNL     1      52.034   4.974  18.392  0.00  0.00    +0.000 OA
ATOM     16  C   UNL     1      50.009   4.168  17.454  0.00  0.00    +0.000 A 
ATOM     17  H   UNL     1      52.942   2.755  17.839  0.00  0.00    +0.000 HD
ENDBRANCH   5   7
ENDBRANCH   4   5
ENDBRANCH   1   4
BRANCH   1  18
ATOM     18  C   UNL     1      48.844   7.423  13.776  0.00  0.00    +0.000 C 
BRANCH  18  19
ATOM     19  C   UNL     1      47.491   6.802  13.485  0.00  0.00    +0.000 A 
ATOM     20  C   UNL     1      47.228   5.460  13.793  0.00  0.00    +0.000 A 
ATOM     21  C   UNL     1      45.974   4.895  13.533  0.00  0.00    +0.000 A 
ATOM     22  C   UNL     1      44.944   5.660  12.969  0.00  0.00    +0.000 A 
ATOM     23  C   UNL     1      45.204   7.005  12.673  0.00  0.00    +0.000 A 
ATOM     24  C   UNL     1      46.459   7.569  12.928  0.00  0.00    +0.000 A 
BRANCH  22  25
ATOM     25  C   UNL     1      43.604   5.012  12.670  0.00  0.00    +0.000 C 
BRANCH  25  26
ATOM     26  O   UNL     1      42.609   5.516  13.569  0.00  0.00    +0.000 OA
ATOM     27  H   UNL     1      42.752   5.091  14.431  0.00  0.00    +0.000 HD
ENDBRANCH  25  26
BRANCH  25  28
ATOM     28  C   UNL     1      43.112   5.217  11.208  0.00  0.00    +0.000 C 
BRANCH  28  29
ATOM     29  N   UNL     1      43.335   4.077  10.310  0.00  0.00    +0.000 NA
ATOM     30  C   UNL     1      44.390   4.314   9.324  0.00  0.00    +0.000 C 
ATOM     31  C   UNL     1      44.973   2.932   9.120  0.00  0.00    +0.000 C 
ATOM     32  N   UNL     1      44.948   2.375  10.475  0.00  0.00    +0.000 NA
ATOM     33  C   UNL     1      43.681   2.853  11.024  0.00  0.00    +0.000 C 
ATOM     34  H   UNL     1      45.689   2.820  11.013  0.00  0.00    +0.000 HD
ENDBRANCH  28  29
ENDBRANCH  25  28
ENDBRANCH  22  25
ENDBRANCH  18  19
ENDBRANCH   1  18
TORSDOF 9
ENDMDL
MODEL 3
REMARK VINA RESULT:    -7.135      2.899      3.788
REMARK INTER + INTRA:         -11.776
REMARK INTER:                 -10.331
REMARK INTRA:                  -1.445
REMARK UNBOUND:                -1.095
REMARK  Name = 
REMARK  10 active torsions:
REMARK  status: ('A' for Active; 'I' for Inactive)
REMARK    1  A    between atoms: C_1  and  C_2
REMARK    2  A    between atoms: C_2  and  N_3
REMARK    3  A    between atoms: C_2  and  C_19
REMARK    4  A    between atoms: N_3  and  C_4
REMARK    5  A    between atoms: C_4  and  C_5
REMARK    6  A    between atoms: C_8  and  C_9
REMARK    7  A    between atoms: C_9  and  O_10
REMARK    8  A    between atoms: C_9  and  C_11
REMARK    9  A    between atoms: C_11  and  N_12
REMARK   10  A    between atoms: C_19  and  C_21
REMARK                            x       y       z     vdW  Elec       q    Type
REMARK                         _______ _______ _______ _____ _____    ______ ____
ROOT
ATOM      1  N   UNL     1      46.724   8.367  14.042  0.00  0.00    +0.000 NA
ATOM      2  H   UNL     1      46.301   8.759  14.881  0.00  0.00    +0.000 HD
ENDROOT
BRANCH   1   4
ATOM      3  C   UNL     1      48.336   9.798  12.771  0.00  0.00    +0.000 C 
ATOM      4  C   UNL     1      48.124   8.846  13.953  0.00  0.00    +0.000 C 
BRANCH   4   5
ATOM      5  C   UNL     1      49.157   7.692  13.954  0.00  0.00    +0.000 C 
ATOM      6  O   UNL     1      49.766   7.398  12.925  0.00  0.00    +0.000 OA
BRANCH   5   7
ATOM      7  C   UNL     1      49.393   6.919  15.186  0.00  0.00    +0.000 A 
ATOM      8  C   UNL     1      50.385   7.201  16.110  0.00  0.00    +0.000 A 
ATOM      9  S   UNL     1      50.238   6.293  17.554  0.00  0.00    +0.000 S 
ATOM     10  C   UNL     1      48.873   5.469  16.961  0.00  0.00    +0.000 A 
ATOM     11  N   UNL     1      48.190   4.579  17.731  0.00  0.00    +0.000 NA
ATOM     12  C   UNL     1      47.168   4.049  17.143  0.00  0.00    +0.000 A 
ATOM     13  N   UNL     1      46.795   4.291  15.844  0.00  0.00    +0.000 N 
ATOM     14  C   UNL     1      47.546   5.067  14.988  0.00  0.00    +0.000 A 
ATOM     15  O   UNL     1      47.388   5.017  13.775  0.00  0.00    +0.000 OA
ATOM     16  C   UNL     1      48.593   5.818  15.654  0.00  0.00    +0.000 A 
ATOM     17  H   UNL     1      46.057   3.754  15.414  0.00  0.00    +0.000 HD
ENDBRANCH   5   7
ENDBRANCH   4   5
ENDBRANCH   1   4
BRANCH   1  18
ATOM     18  C   UNL     1      45.880   8.705  12.893  0.00  0.00    +0.000 C 
BRANCH  18  19
ATOM     19  C   UNL     1      45.490   7.465  12.112  0.00  0.00    +0.000 A 
ATOM     20  C   UNL     1      44.294   6.785  12.382  0.00  0.00    +0.000 A 
ATOM     21  C   UNL     1      43.932   5.648  11.651  0.00  0.00    +0.000 A 
ATOM     22  C   UNL     1      44.750   5.165  10.620  0.00  0.00    +0.000 A 
ATOM     23  C   UNL     1      45.940   5.853  10.342  0.00  0.00    +0.000 A 
ATOM     24  C   UNL     1      46.304   6.988  11.077  0.00  0.00    +0.000 A 
BRANCH  22  25
ATOM     25  C   UNL     1      44.347   3.912   9.865  0.00  0.00    +0.000 C 
BRANCH  25  26
ATOM     26  O   UNL     1      43.747   4.270   8.614  0.00  0.00    +0.000 OA
ATOM     27  H   UNL     1      43.748   3.478   8.052  0.00  0.00    +0.000 HD
ENDBRANCH  25  26
BRANCH  25  28
ATOM     28  C   UNL     1      45.523   2.928   9.595  0.00  0.00    +0.000 C 
BRANCH  28  29
ATOM     29  N   UNL     1      45.708   2.549   8.189  0.00  0.00    +0.000 NA
ATOM     30  C   UNL     1      46.614   3.439   7.463  0.00  0.00    +0.000 C 
ATOM     31  C   UNL     1      47.258   2.511   6.455  0.00  0.00    +0.000 C 
ATOM     32  N   UNL     1      47.438   1.280   7.229  0.00  0.00    +0.000 NA
ATOM     33  C   UNL     1      46.220   1.192   8.031  0.00  0.00    +0.000 C 
ATOM     34  H   UNL     1      48.209   1.424   7.878  0.00  0.00    +0.000 HD
ENDBRANCH  28  29
ENDBRANCH  25  28
ENDBRANCH  22  25
ENDBRANCH  18  19
ENDBRANCH   1  18
TORSDOF 9
ENDMDL
MODEL 4
REMARK VINA RESULT:    -7.130      2.886      3.608
REMARK INTER + INTRA:         -11.768
REMARK INTER:                 -10.365
REMARK INTRA:                  -1.403
REMARK UNBOUND:                -1.095
REMARK  Name = 
REMARK  10 active torsions:
REMARK  status: ('A' for Active; 'I' for Inactive)
REMARK    1  A    between atoms: C_1  and  C_2
REMARK    2  A    between atoms: C_2  and  N_3
REMARK    3  A    between atoms: C_2  and  C_19
REMARK    4  A    between atoms: N_3  and  C_4
REMARK    5  A    between atoms: C_4  and  C_5
REMARK    6  A    between atoms: C_8  and  C_9
REMARK    7  A    between atoms: C_9  and  O_10
REMARK    8  A    between atoms: C_9  and  C_11
REMARK    9  A    between atoms: C_11  and  N_12
REMARK   10  A    between atoms: C_19  and  C_21
REMARK                            x       y       z     vdW  Elec       q    Type
REMARK                         _______ _______ _______ _____ _____    ______ ____
ROOT
ATOM      1  N   UNL     1      49.719   6.820  14.331  0.00  0.00    +0.000 NA
ATOM      2  H   UNL     1      49.124   6.253  14.933  0.00  0.00    +0.000 HD
ENDROOT
BRANCH   1   4
ATOM      3  C   UNL     1      51.658   8.400  14.383  0.00  0.00    +0.000 C 
ATOM      4  C   UNL     1      50.571   7.680  15.187  0.00  0.00    +0.000 C 
BRANCH   4   5
ATOM      5  C   UNL     1      51.160   6.924  16.403  0.00  0.00    +0.000 C 
ATOM      6  O   UNL     1      52.201   6.275  16.291  0.00  0.00    +0.000 OA
BRANCH   5   7
ATOM      7  C   UNL     1      50.457   6.956  17.698  0.00  0.00    +0.000 A 
ATOM      8  C   UNL     1      50.853   7.716  18.786  0.00  0.00    +0.000 A 
ATOM      9  S   UNL     1      49.693   7.742  20.045  0.00  0.00    +0.000 S 
ATOM     10  C   UNL     1      48.655   6.704  19.186  0.00  0.00    +0.000 A 
ATOM     11  N   UNL     1      47.428   6.368  19.666  0.00  0.00    +0.000 NA
ATOM     12  C   UNL     1      46.754   5.583  18.890  0.00  0.00    +0.000 A 
ATOM     13  N   UNL     1      47.212   5.069  17.703  0.00  0.00    +0.000 N 
ATOM     14  C   UNL     1      48.501   5.264  17.257  0.00  0.00    +0.000 A 
ATOM     15  O   UNL     1      48.991   4.555  16.387  0.00  0.00    +0.000 OA
ATOM     16  C   UNL     1      49.226   6.276  18.003  0.00  0.00    +0.000 A 
ATOM     17  H   UNL     1      46.679   4.371  17.207  0.00  0.00    +0.000 HD
ENDBRANCH   5   7
ENDBRANCH   4   5
ENDBRANCH   1   4
BRANCH   1  18
ATOM     18  C   UNL     1      48.867   7.542  13.382  0.00  0.00    +0.000 C 
BRANCH  18  19
ATOM     19  C   UNL     1      47.528   6.852  13.207  0.00  0.00    +0.000 A 
ATOM     20  C   UNL     1      47.366   5.496  13.523  0.00  0.00    +0.000 A 
ATOM     21  C   UNL     1      46.126   4.866  13.370  0.00  0.00    +0.000 A 
ATOM     22  C   UNL     1      45.009   5.577  12.910  0.00  0.00    +0.000 A 
ATOM     23  C   UNL     1      45.169   6.936  12.606  0.00  0.00    +0.000 A 
ATOM     24  C   UNL     1      46.411   7.565  12.753  0.00  0.00    +0.000 A 
BRANCH  22  25
ATOM     25  C   UNL     1      43.684   4.860  12.726  0.00  0.00    +0.000 C 
BRANCH  25  26
ATOM     26  O   UNL     1      42.635   5.609  13.351  0.00  0.00    +0.000 OA
ATOM     27  H   UNL     1      42.920   5.808  14.258  0.00  0.00    +0.000 HD
ENDBRANCH  25  26
BRANCH  25  28
ATOM     28  C   UNL     1      43.303   4.603  11.239  0.00  0.00    +0.000 C 
BRANCH  28  29
ATOM     29  N   UNL     1      44.369   4.024  10.412  0.00  0.00    +0.000 NA
ATOM     30  C   UNL     1      44.384   2.561  10.427  0.00  0.00    +0.000 C 
ATOM     31  C   UNL     1      44.898   2.218   9.045  0.00  0.00    +0.000 C 
ATOM     32  N   UNL     1      44.243   3.225   8.205  0.00  0.00    +0.000 NA
ATOM     33  C   UNL     1      44.292   4.439   9.016  0.00  0.00    +0.000 C 
ATOM     34  H   UNL     1      43.261   2.971   8.115  0.00  0.00    +0.000 HD
ENDBRANCH  28  29
ENDBRANCH  25  28
ENDBRANCH  22  25
ENDBRANCH  18  19
ENDBRANCH   1  18
TORSDOF 9
ENDMDL
MODEL 5
REMARK VINA RESULT:    -6.982      2.555      3.643
REMARK INTER + INTRA:         -11.547
REMARK INTER:                 -10.529
REMARK INTRA:                  -1.018
REMARK UNBOUND:                -1.095
REMARK  Name = 
REMARK  10 active torsions:
REMARK  status: ('A' for Active; 'I' for Inactive)
REMARK    1  A    between atoms: C_1  and  C_2
REMARK    2  A    between atoms: C_2  and  N_3
REMARK    3  A    between atoms: C_2  and  C_19
REMARK    4  A    between atoms: N_3  and  C_4
REMARK    5  A    between atoms: C_4  and  C_5
REMARK    6  A    between atoms: C_8  and  C_9
REMARK    7  A    between atoms: C_9  and  O_10
REMARK    8  A    between atoms: C_9  and  C_11
REMARK    9  A    between atoms: C_11  and  N_12
REMARK   10  A    between atoms: C_19  and  C_21
REMARK                            x       y       z     vdW  Elec       q    Type
REMARK                         _______ _______ _______ _____ _____    ______ ____
ROOT
ATOM      1  N   UNL     1      47.225   5.085  15.711  0.00  0.00    +0.000 NA
ATOM      2  H   UNL     1      47.183   5.856  16.375  0.00  0.00    +0.000 HD
ENDROOT
BRANCH   1   4
ATOM      3  C   UNL     1      47.125   3.078  17.201  0.00  0.00    +0.000 C 
ATOM      4  C   UNL     1      47.999   3.979  16.322  0.00  0.00    +0.000 C 
BRANCH   4   5
ATOM      5  C   UNL     1      49.259   4.470  17.076  0.00  0.00    +0.000 C 
ATOM      6  O   UNL     1      50.256   3.753  17.160  0.00  0.00    +0.000 OA
BRANCH   5   7
ATOM      7  C   UNL     1      49.257   5.794  17.724  0.00  0.00    +0.000 A 
ATOM      8  C   UNL     1      49.724   6.956  17.134  0.00  0.00    +0.000 A 
ATOM      9  S   UNL     1      49.346   8.364  18.031  0.00  0.00    +0.000 S 
ATOM     10  C   UNL     1      48.591   7.452  19.251  0.00  0.00    +0.000 A 
ATOM     11  N   UNL     1      47.973   8.048  20.306  0.00  0.00    +0.000 NA
ATOM     12  C   UNL     1      47.434   7.219  21.139  0.00  0.00    +0.000 A 
ATOM     13  N   UNL     1      47.494   5.852  21.038  0.00  0.00    +0.000 N 
ATOM     14  C   UNL     1      48.236   5.211  20.070  0.00  0.00    +0.000 A 
ATOM     15  O   UNL     1      48.544   4.030  20.176  0.00  0.00    +0.000 OA
ATOM     16  C   UNL     1      48.706   6.095  19.019  0.00  0.00    +0.000 A 
ATOM     17  H   UNL     1      47.152   5.267  21.785  0.00  0.00    +0.000 HD
ENDBRANCH   5   7
ENDBRANCH   4   5
ENDBRANCH   1   4
BRANCH   1  18
ATOM     18  C   UNL     1      47.762   5.590  14.444  0.00  0.00    +0.000 C 
BRANCH  18  19
ATOM     19  C   UNL     1      46.851   5.245  13.282  0.00  0.00    +0.000 A 
ATOM     20  C   UNL     1      46.096   4.064  13.280  0.00  0.00    +0.000 A 
ATOM     21  C   UNL     1      45.248   3.755  12.211  0.00  0.00    +0.000 A 
ATOM     22  C   UNL     1      45.120   4.625  11.119  0.00  0.00    +0.000 A 
ATOM     23  C   UNL     1      45.866   5.812  11.128  0.00  0.00    +0.000 A 
ATOM     24  C   UNL     1      46.719   6.118  12.195  0.00  0.00    +0.000 A 
BRANCH  22  25
ATOM     25  C   UNL     1      44.216   4.249   9.960  0.00  0.00    +0.000 C 
BRANCH  25  26
ATOM     26  O   UNL     1      43.127   5.177   9.872  0.00  0.00    +0.000 OA
ATOM     27  H   UNL     1      43.168   5.591   8.994  0.00  0.00    +0.000 HD
ENDBRANCH  25  26
BRANCH  25  28
ATOM     28  C   UNL     1      44.939   4.189   8.583  0.00  0.00    +0.000 C 
BRANCH  28  29
ATOM     29  N   UNL     1      46.065   3.249   8.510  0.00  0.00    +0.000 NA
ATOM     30  C   UNL     1      45.653   1.847   8.585  0.00  0.00    +0.000 C 
ATOM     31  C   UNL     1      46.693   1.148   7.734  0.00  0.00    +0.000 C 
ATOM     32  N   UNL     1      46.893   2.098   6.636  0.00  0.00    +0.000 NA
ATOM     33  C   UNL     1      46.852   3.402   7.292  0.00  0.00    +0.000 C 
ATOM     34  H   UNL     1      46.079   2.049   6.025  0.00  0.00    +0.000 HD
ENDBRANCH  28  29
ENDBRANCH  25  28
ENDBRANCH  22  25
ENDBRANCH  18  19
ENDBRANCH   1  18
TORSDOF 9
ENDMDL
MODEL 6
REMARK VINA RESULT:    -6.807      1.929      2.600
REMARK INTER + INTRA:         -11.284
REMARK INTER:                 -10.162
REMARK INTRA:                  -1.122
REMARK UNBOUND:                -1.095
REMARK  Name = 
REMARK  10 active torsions:
REMARK  status: ('A' for Active; 'I' for Inactive)
REMARK    1  A    between atoms: C_1  and  C_2
REMARK    2  A    between atoms: C_2  and  N_3
REMARK    3  A    between atoms: C_2  and  C_19
REMARK    4  A    between atoms: N_3  and  C_4
REMARK    5  A    between atoms: C_4  and  C_5
REMARK    6  A    between atoms: C_8  and  C_9
REMARK    7  A    between atoms: C_9  and  O_10
REMARK    8  A    between atoms: C_9  and  C_11
REMARK    9  A    between atoms: C_11  and  N_12
REMARK   10  A    between atoms: C_19  and  C_21
REMARK                            x       y       z     vdW  Elec       q    Type
REMARK                         _______ _______ _______ _____ _____    ______ ____
ROOT
ATOM      1  N   UNL     1      47.693   7.337  14.331  0.00  0.00    +0.000 NA
ATOM      2  H   UNL     1      47.165   6.855  15.056  0.00  0.00    +0.000 HD
ENDROOT
BRANCH   1   4
ATOM      3  C   UNL     1      49.477   9.062  14.019  0.00  0.00    +0.000 C 
ATOM      4  C   UNL     1      48.410   8.477  14.949  0.00  0.00    +0.000 C 
BRANCH   4   5
ATOM      5  C   UNL     1      48.987   8.139  16.346  0.00  0.00    +0.000 C 
ATOM      6  O   UNL     1      48.522   8.662  17.358  0.00  0.00    +0.000 OA
BRANCH   5   7
ATOM      7  C   UNL     1      50.122   7.206  16.464  0.00  0.00    +0.000 A 
ATOM      8  C   UNL     1      51.453   7.569  16.336  0.00  0.00    +0.000 A 
ATOM      9  S   UNL     1      52.536   6.322  16.785  0.00  0.00    +0.000 S 
ATOM     10  C   UNL     1      51.256   5.253  17.118  0.00  0.00    +0.000 A 
ATOM     11  N   UNL     1      51.480   4.010  17.623  0.00  0.00    +0.000 NA
ATOM     12  C   UNL     1      50.404   3.326  17.836  0.00  0.00    +0.000 A 
ATOM     13  N   UNL     1      49.132   3.751  17.549  0.00  0.00    +0.000 N 
ATOM     14  C   UNL     1      48.874   4.940  16.901  0.00  0.00    +0.000 A 
ATOM     15  O   UNL     1      47.793   5.158  16.370  0.00  0.00    +0.000 OA
ATOM     16  C   UNL     1      50.031   5.811  16.806  0.00  0.00    +0.000 A 
ATOM     17  H   UNL     1      48.349   3.121  17.633  0.00  0.00    +0.000 HD
ENDBRANCH   5   7
ENDBRANCH   4   5
ENDBRANCH   1   4
BRANCH   1  18
ATOM     18  C   UNL     1      46.773   7.698  13.248  0.00  0.00    +0.000 C 
BRANCH  18  19
ATOM     19  C   UNL     1      46.151   6.467  12.619  0.00  0.00    +0.000 A 
ATOM     20  C   UNL     1      46.143   5.236  13.291  0.00  0.00    +0.000 A 
ATOM     21  C   UNL     1      45.557   4.105  12.711  0.00  0.00    +0.000 A 
ATOM     22  C   UNL     1      44.951   4.175  11.449  0.00  0.00    +0.000 A 
ATOM     23  C   UNL     1      44.948   5.409  10.784  0.00  0.00    +0.000 A 
ATOM     24  C   UNL     1      45.539   6.540  11.361  0.00  0.00    +0.000 A 
BRANCH  22  25
ATOM     25  C   UNL     1      44.350   2.925  10.833  0.00  0.00    +0.000 C 
BRANCH  25  26
ATOM     26  O   UNL     1      42.981   2.795  11.234  0.00  0.00    +0.000 OA
ATOM     27  H   UNL     1      42.467   2.562  10.443  0.00  0.00    +0.000 HD
ENDBRANCH  25  26
BRANCH  25  28
ATOM     28  C   UNL     1      44.426   2.883   9.279  0.00  0.00    +0.000 C 
BRANCH  28  29
ATOM     29  N   UNL     1      45.779   2.752   8.725  0.00  0.00    +0.000 NA
ATOM     30  C   UNL     1      46.081   1.401   8.248  0.00  0.00    +0.000 C 
ATOM     31  C   UNL     1      47.030   1.658   7.096  0.00  0.00    +0.000 C 
ATOM     32  N   UNL     1      46.458   2.857   6.477  0.00  0.00    +0.000 NA
ATOM     33  C   UNL     1      46.028   3.665   7.615  0.00  0.00    +0.000 C 
ATOM     34  H   UNL     1      45.616   2.582   5.975  0.00  0.00    +0.000 HD
ENDBRANCH  28  29
ENDBRANCH  25  28
ENDBRANCH  22  25
ENDBRANCH  18  19
ENDBRANCH   1  18
TORSDOF 9
ENDMDL
MODEL 7
REMARK VINA RESULT:    -6.752      3.110      3.944
REMARK INTER + INTRA:         -11.203
REMARK INTER:                 -10.161
REMARK INTRA:                  -1.042
REMARK UNBOUND:                -1.095
REMARK  Name = 
REMARK  10 active torsions:
REMARK  status: ('A' for Active; 'I' for Inactive)
REMARK    1  A    between atoms: C_1  and  C_2
REMARK    2  A    between atoms: C_2  and  N_3
REMARK    3  A    between atoms: C_2  and  C_19
REMARK    4  A    between atoms: N_3  and  C_4
REMARK    5  A    between atoms: C_4  and  C_5
REMARK    6  A    between atoms: C_8  and  C_9
REMARK    7  A    between atoms: C_9  and  O_10
REMARK    8  A    between atoms: C_9  and  C_11
REMARK    9  A    between atoms: C_11  and  N_12
REMARK   10  A    between atoms: C_19  and  C_21
REMARK                            x       y       z     vdW  Elec       q    Type
REMARK                         _______ _______ _______ _____ _____    ______ ____
ROOT
ATOM      1  N   UNL     1      47.555   7.592  13.937  0.00  0.00    +0.000 NA
ATOM      2  H   UNL     1      47.377   7.040  14.774  0.00  0.00    +0.000 HD
ENDROOT
BRANCH   1   4
ATOM      3  C   UNL     1      48.612   9.711  13.129  0.00  0.00    +0.000 C 
ATOM      4  C   UNL     1      48.219   8.855  14.337  0.00  0.00    +0.000 C 
BRANCH   4   5
ATOM      5  C   UNL     1      49.414   8.630  15.296  0.00  0.00    +0.000 C 
ATOM      6  O   UNL     1      50.564   8.580  14.859  0.00  0.00    +0.000 OA
BRANCH   5   7
ATOM      7  C   UNL     1      49.174   8.446  16.738  0.00  0.00    +0.000 A 
ATOM      8  C   UNL     1      49.394   9.418  17.700  0.00  0.00    +0.000 A 
ATOM      9  S   UNL     1      48.776   8.993  19.238  0.00  0.00    +0.000 S 
ATOM     10  C   UNL     1      48.240   7.483  18.668  0.00  0.00    +0.000 A 
ATOM     11  N   UNL     1      47.546   6.627  19.465  0.00  0.00    +0.000 NA
ATOM     12  C   UNL     1      47.197   5.528  18.881  0.00  0.00    +0.000 A 
ATOM     13  N   UNL     1      47.517   5.187  17.591  0.00  0.00    +0.000 N 
ATOM     14  C   UNL     1      48.343   5.958  16.802  0.00  0.00    +0.000 A 
ATOM     15  O   UNL     1      48.875   5.504  15.797  0.00  0.00    +0.000 OA
ATOM     16  C   UNL     1      48.608   7.274  17.353  0.00  0.00    +0.000 A 
ATOM     17  H   UNL     1      47.312   4.265  17.238  0.00  0.00    +0.000 HD
ENDBRANCH   5   7
ENDBRANCH   4   5
ENDBRANCH   1   4
BRANCH   1  18
ATOM     18  C   UNL     1      46.293   7.759  13.211  0.00  0.00    +0.000 C 
BRANCH  18  19
ATOM     19  C   UNL     1      45.870   6.468  12.537  0.00  0.00    +0.000 A 
ATOM     20  C   UNL     1      45.672   5.295  13.277  0.00  0.00    +0.000 A 
ATOM     21  C   UNL     1      45.271   4.109  12.652  0.00  0.00    +0.000 A 
ATOM     22  C   UNL     1      45.043   4.066  11.270  0.00  0.00    +0.000 A 
ATOM     23  C   UNL     1      45.228   5.243  10.532  0.00  0.00    +0.000 A 
ATOM     24  C   UNL     1      45.635   6.428  11.156  0.00  0.00    +0.000 A 
BRANCH  22  25
ATOM     25  C   UNL     1      44.637   2.758  10.615  0.00  0.00    +0.000 C 
BRANCH  25  26
ATOM     26  O   UNL     1      43.332   2.374  11.064  0.00  0.00    +0.000 OA
ATOM     27  H   UNL     1      43.437   1.935  11.924  0.00  0.00    +0.000 HD
ENDBRANCH  25  26
BRANCH  25  28
ATOM     28  C   UNL     1      44.643   2.798   9.059  0.00  0.00    +0.000 C 
BRANCH  28  29
ATOM     29  N   UNL     1      45.971   2.719   8.439  0.00  0.00    +0.000 NA
ATOM     30  C   UNL     1      46.337   1.364   8.024  0.00  0.00    +0.000 C 
ATOM     31  C   UNL     1      47.205   1.610   6.809  0.00  0.00    +0.000 C 
ATOM     32  N   UNL     1      46.524   2.730   6.154  0.00  0.00    +0.000 NA
ATOM     33  C   UNL     1      46.100   3.577   7.266  0.00  0.00    +0.000 C 
ATOM     34  H   UNL     1      45.677   2.372   5.717  0.00  0.00    +0.000 HD
ENDBRANCH  28  29
ENDBRANCH  25  28
ENDBRANCH  22  25
ENDBRANCH  18  19
ENDBRANCH   1  18
TORSDOF 9
ENDMDL
MODEL 8
REMARK VINA RESULT:    -6.678      2.861      3.819
REMARK INTER + INTRA:         -11.092
REMARK INTER:                  -9.666
REMARK INTRA:                  -1.426
REMARK UNBOUND:                -1.095
REMARK  Name = 
REMARK  10 active torsions:
REMARK  status: ('A' for Active; 'I' for Inactive)
REMARK    1  A    between atoms: C_1  and  C_2
REMARK    2  A    between atoms: C_2  and  N_3
REMARK    3  A    between atoms: C_2  and  C_19
REMARK    4  A    between atoms: N_3  and  C_4
REMARK    5  A    between atoms: C_4  and  C_5
REMARK    6  A    between atoms: C_8  and  C_9
REMARK    7  A    between atoms: C_9  and  O_10
REMARK    8  A    between atoms: C_9  and  C_11
REMARK    9  A    between atoms: C_11  and  N_12
REMARK   10  A    between atoms: C_19  and  C_21
REMARK                            x       y       z     vdW  Elec       q    Type
REMARK                         _______ _______ _______ _____ _____    ______ ____
ROOT
ATOM      1  N   UNL     1      47.497   8.955  15.069  0.00  0.00    +0.000 NA
ATOM      2  H   UNL     1      46.639   9.294  15.501  0.00  0.00    +0.000 HD
ENDROOT
BRANCH   1   4
ATOM      3  C   UNL     1      49.454  10.373  14.423  0.00  0.00    +0.000 C 
ATOM      4  C   UNL     1      48.629   9.773  15.565  0.00  0.00    +0.000 C 
BRANCH   4   5
ATOM      5  C   UNL     1      49.519   9.016  16.581  0.00  0.00    +0.000 C 
ATOM      6  O   UNL     1      50.746   9.043  16.479  0.00  0.00    +0.000 OA
BRANCH   5   7
ATOM      7  C   UNL     1      48.895   8.233  17.663  0.00  0.00    +0.000 A 
ATOM      8  C   UNL     1      48.427   8.771  18.851  0.00  0.00    +0.000 A 
ATOM      9  S   UNL     1      47.525   7.655  19.784  0.00  0.00    +0.000 S 
ATOM     10  C   UNL     1      47.777   6.415  18.648  0.00  0.00    +0.000 A 
ATOM     11  N   UNL     1      47.206   5.189  18.794  0.00  0.00    +0.000 NA
ATOM     12  C   UNL     1      47.482   4.362  17.840  0.00  0.00    +0.000 A 
ATOM     13  N   UNL     1      48.309   4.632  16.779  0.00  0.00    +0.000 N 
ATOM     14  C   UNL     1      49.023   5.807  16.674  0.00  0.00    +0.000 A 
ATOM     15  O   UNL     1      49.981   5.908  15.919  0.00  0.00    +0.000 OA
ATOM     16  C   UNL     1      48.608   6.824  17.623  0.00  0.00    +0.000 A 
ATOM     17  H   UNL     1      48.572   3.903  16.134  0.00  0.00    +0.000 HD
ENDBRANCH   5   7
ENDBRANCH   4   5
ENDBRANCH   1   4
BRANCH   1  18
ATOM     18  C   UNL     1      47.320   8.961  13.614  0.00  0.00    +0.000 C 
BRANCH  18  19
ATOM     19  C   UNL     1      46.796   7.627  13.118  0.00  0.00    +0.000 A 
ATOM     20  C   UNL     1      45.684   7.558  12.267  0.00  0.00    +0.000 A 
ATOM     21  C   UNL     1      45.211   6.325  11.802  0.00  0.00    +0.000 A 
ATOM     22  C   UNL     1      45.843   5.128  12.165  0.00  0.00    +0.000 A 
ATOM     23  C   UNL     1      46.963   5.200  13.005  0.00  0.00    +0.000 A 
ATOM     24  C   UNL     1      47.434   6.432  13.475  0.00  0.00    +0.000 A 
BRANCH  22  25
ATOM     25  C   UNL     1      45.290   3.805  11.670  0.00  0.00    +0.000 C 
BRANCH  25  26
ATOM     26  O   UNL     1      44.959   2.968  12.785  0.00  0.00    +0.000 OA
ATOM     27  H   UNL     1      44.068   3.218  13.083  0.00  0.00    +0.000 HD
ENDBRANCH  25  26
BRANCH  25  28
ATOM     28  C   UNL     1      44.037   3.943  10.756  0.00  0.00    +0.000 C 
BRANCH  28  29
ATOM     29  N   UNL     1      44.219   3.476   9.375  0.00  0.00    +0.000 NA
ATOM     30  C   UNL     1      45.178   4.279   8.615  0.00  0.00    +0.000 C 
ATOM     31  C   UNL     1      45.786   3.264   7.669  0.00  0.00    +0.000 C 
ATOM     32  N   UNL     1      45.894   2.071   8.512  0.00  0.00    +0.000 NA
ATOM     33  C   UNL     1      44.665   2.089   9.301  0.00  0.00    +0.000 C 
ATOM     34  H   UNL     1      46.664   2.214   9.164  0.00  0.00    +0.000 HD
ENDBRANCH  28  29
ENDBRANCH  25  28
ENDBRANCH  22  25
ENDBRANCH  18  19
ENDBRANCH   1  18
TORSDOF 9
ENDMDL
MODEL 9
REMARK VINA RESULT:    -6.661      3.230      9.520
REMARK INTER + INTRA:         -11.066
REMARK INTER:                  -9.649
REMARK INTRA:                  -1.417
REMARK UNBOUND:                -1.095
REMARK  Name = 
REMARK  10 active torsions:
REMARK  status: ('A' for Active; 'I' for Inactive)
REMARK    1  A    between atoms: C_1  and  C_2
REMARK    2  A    between atoms: C_2  and  N_3
REMARK    3  A    between atoms: C_2  and  C_19
REMARK    4  A    between atoms: N_3  and  C_4
REMARK    5  A    between atoms: C_4  and  C_5
REMARK    6  A    between atoms: C_8  and  C_9
REMARK    7  A    between atoms: C_9  and  O_10
REMARK    8  A    between atoms: C_9  and  C_11
REMARK    9  A    between atoms: C_11  and  N_12
REMARK   10  A    between atoms: C_19  and  C_21
REMARK                            x       y       z     vdW  Elec       q    Type
REMARK                         _______ _______ _______ _____ _____    ______ ____
ROOT
ATOM      1  N   UNL     1      46.833   5.960  14.134  0.00  0.00    +0.000 NA
ATOM      2  H   UNL     1      45.822   6.080  14.101  0.00  0.00    +0.000 HD
ENDROOT
BRANCH   1   4
ATOM      3  C   UNL     1      48.603   7.101  12.784  0.00  0.00    +0.000 C 
ATOM      4  C   UNL     1      47.379   6.180  12.774  0.00  0.00    +0.000 C 
BRANCH   4   5
ATOM      5  C   UNL     1      46.307   6.659  11.765  0.00  0.00    +0.000 C 
ATOM      6  O   UNL     1      45.998   7.849  11.698  0.00  0.00    +0.000 OA
BRANCH   5   7
ATOM      7  C   UNL     1      45.628   5.680  10.896  0.00  0.00    +0.000 A 
ATOM      8  C   UNL     1      45.855   5.549   9.536  0.00  0.00    +0.000 A 
ATOM      9  S   UNL     1      45.116   4.160   8.862  0.00  0.00    +0.000 S 
ATOM     10  C   UNL     1      44.437   3.726  10.360  0.00  0.00    +0.000 A 
ATOM     11  N   UNL     1      43.727   2.576  10.512  0.00  0.00    +0.000 NA
ATOM     12  C   UNL     1      43.290   2.382  11.713  0.00  0.00    +0.000 A 
ATOM     13  N   UNL     1      43.458   3.251  12.762  0.00  0.00    +0.000 N 
ATOM     14  C   UNL     1      44.039   4.492  12.612  0.00  0.00    +0.000 A 
ATOM     15  O   UNL     1      43.898   5.371  13.453  0.00  0.00    +0.000 OA
ATOM     16  C   UNL     1      44.697   4.673  11.331  0.00  0.00    +0.000 A 
ATOM     17  H   UNL     1      42.990   3.091  13.641  0.00  0.00    +0.000 HD
ENDBRANCH   5   7
ENDBRANCH   4   5
ENDBRANCH   1   4
BRANCH   1  18
ATOM     18  C   UNL     1      47.126   4.646  14.714  0.00  0.00    +0.000 C 
BRANCH  18  19
ATOM     19  C   UNL     1      47.806   4.778  16.063  0.00  0.00    +0.000 A 
ATOM     20  C   UNL     1      48.668   5.848  16.339  0.00  0.00    +0.000 A 
ATOM     21  C   UNL     1      49.283   5.972  17.589  0.00  0.00    +0.000 A 
ATOM     22  C   UNL     1      49.044   5.036  18.605  0.00  0.00    +0.000 A 
ATOM     23  C   UNL     1      48.171   3.973  18.333  0.00  0.00    +0.000 A 
ATOM     24  C   UNL     1      47.560   3.846  17.080  0.00  0.00    +0.000 A 
BRANCH  22  25
ATOM     25  C   UNL     1      49.749   5.179  19.941  0.00  0.00    +0.000 C 
BRANCH  25  26
ATOM     26  O   UNL     1      49.455   4.047  20.770  0.00  0.00    +0.000 OA
ATOM     27  H   UNL     1      48.725   4.300  21.359  0.00  0.00    +0.000 HD
ENDBRANCH  25  26
BRANCH  25  28
ATOM     28  C   UNL     1      51.294   5.334  19.830  0.00  0.00    +0.000 C 
BRANCH  28  29
ATOM     29  N   UNL     1      52.045   4.074  19.780  0.00  0.00    +0.000 NA
ATOM     30  C   UNL     1      52.426   3.681  18.422  0.00  0.00    +0.000 C 
ATOM     31  C   UNL     1      53.737   2.955  18.641  0.00  0.00    +0.000 C 
ATOM     32  N   UNL     1      54.372   3.757  19.689  0.00  0.00    +0.000 NA
ATOM     33  C   UNL     1      53.266   4.110  20.576  0.00  0.00    +0.000 C 
ATOM     34  H   UNL     1      54.700   4.625  19.268  0.00  0.00    +0.000 HD
ENDBRANCH  28  29
ENDBRANCH  25  28
ENDBRANCH  22  25
ENDBRANCH  18  19
ENDBRANCH   1  18
TORSDOF 9
ENDMDL
