MODEL 1
REMARK VINA RESULT:    -7.116      0.000      0.000
REMARK INTER + INTRA:          -9.148
REMARK INTER:                  -8.988
REMARK INTRA:                  -0.161
REMARK UNBOUND:                -0.161
REMARK  Name = 
REMARK  5 active torsions:
REMARK  status: ('A' for Active; 'I' for Inactive)
REMARK    1  A    between atoms: N_1  and  C_2
REMARK    2  A    between atoms: C_2  and  C_3
REMARK    3  A    between atoms: C_7  and  O_8
REMARK    4  A    between atoms: O_8  and  C_9
REMARK    5  A    between atoms: C_9  and  C_10
REMARK                            x       y       z     vdW  Elec       q    Type
REMARK                         _______ _______ _______ _____ _____    ______ ____
ROOT
ATOM      1  C   UNL     1      46.570   1.957   7.675  0.00  0.00    +0.000 A 
ATOM      2  C   UNL     1      46.808   3.237   7.162  0.00  0.00    +0.000 A 
ATOM      3  C   UNL     1      46.050   4.322   7.609  0.00  0.00    +0.000 A 
ATOM      4  C   UNL     1      45.072   4.141   8.588  0.00  0.00    +0.000 A 
ATOM      5  C   UNL     1      44.864   2.879   9.140  0.00  0.00    +0.000 A 
ATOM      6  C   UNL     1      45.597   1.794   8.668  0.00  0.00    +0.000 A 
ENDROOT
BRANCH   1   7
ATOM      7  C   UNL     1      47.323   0.749   7.187  0.00  0.00    +0.000 C 
BRANCH   7   8
ATOM      8  N   UNL     1      46.757  -0.470   7.758  0.00  0.00    +0.000 NA
ATOM      9  H   UNL     1      46.643  -0.349   8.764  0.00  0.00    +0.000 HD
ATOM     10  H   UNL     1      47.424  -1.229   7.631  0.00  0.00    +0.000 HD
ENDBRANCH   7   8
ENDBRANCH   1   7
BRANCH   5  11
ATOM     11  O   UNL     1      43.924   2.796  10.132  0.00  0.00    +0.000 OA
BRANCH  11  12
ATOM     12  C   UNL     1      43.628   4.042  10.769  0.00  0.00    +0.000 C 
BRANCH  12  13
ATOM     13  C   UNL     1      44.602   4.260  11.871  0.00  0.00    +0.000 A 
ATOM     14  C   UNL     1      45.311   3.230  12.459  0.00  0.00    +0.000 A 
ATOM     15  N   UNL     1      46.232   3.417  13.421  0.00  0.00    +0.000 NA
ATOM     16  C   UNL     1      46.441   4.689  13.786  0.00  0.00    +0.000 A 
ATOM     17  N   UNL     1      45.831   5.770  13.284  0.00  0.00    +0.000 NA
ATOM     18  C   UNL     1      44.916   5.526  12.327  0.00  0.00    +0.000 A 
ENDBRANCH  12  13
ENDBRANCH  11  12
ENDBRANCH   5  11
TORSDOF 5
ENDMDL
MODEL 2
REMARK VINA RESULT:    -7.020      1.432      5.426
REMARK INTER + INTRA:          -9.027
REMARK INTER:                  -8.607
REMARK INTRA:                  -0.420
REMARK UNBOUND:                -0.161
REMARK  Name = 
REMARK  5 active torsions:
REMARK  status: ('A' for Active; 'I' for Inactive)
REMARK    1  A    between atoms: N_1  and  C_2
REMARK    2  A    between atoms: C_2  and  C_3
REMARK    3  A    between atoms: C_7  and  O_8
REMARK    4  A    between atoms: O_8  and  C_9
REMARK    5  A    between atoms: C_9  and  C_10
REMARK                            x       y       z     vdW  Elec       q    Type
REMARK                         _______ _______ _______ _____ _____    ______ ____
ROOT
ATOM      1  C   UNL     1      46.319   4.982  13.218  0.00  0.00    +0.000 A 
ATOM      2  C   UNL     1      46.701   6.241  12.742  0.00  0.00    +0.000 A 
ATOM      3  C   UNL     1      46.338   6.643  11.454  0.00  0.00    +0.000 A 
ATOM      4  C   UNL     1      45.570   5.801  10.647  0.00  0.00    +0.000 A 
ATOM      5  C   UNL     1      45.143   4.567  11.132  0.00  0.00    +0.000 A 
ATOM      6  C   UNL     1      45.536   4.157  12.403  0.00  0.00    +0.000 A 
ENDROOT
BRANCH   1   7
ATOM      7  C   UNL     1      46.732   4.484  14.577  0.00  0.00    +0.000 C 
BRANCH   7   8
ATOM      8  N   UNL     1      47.436   3.211  14.461  0.00  0.00    +0.000 NA
ATOM      9  H   UNL     1      47.738   2.907  15.386  0.00  0.00    +0.000 HD
ATOM     10  H   UNL     1      48.283   3.357  13.913  0.00  0.00    +0.000 HD
ENDBRANCH   7   8
ENDBRANCH   1   7
BRANCH   5  11
ATOM     11  O   UNL     1      44.351   3.826  10.297  0.00  0.00    +0.000 OA
BRANCH  11  12
ATOM     12  C   UNL     1      44.541   4.099   8.907  0.00  0.00    +0.000 C 
BRANCH  12  13
ATOM     13  C   UNL     1      45.519   3.123   8.356  0.00  0.00    +0.000 A 
ATOM     14  C   UNL     1      45.496   1.779   8.675  0.00  0.00    +0.000 A 
ATOM     15  N   UNL     1      46.341   0.875   8.147  0.00  0.00    +0.000 NA
ATOM     16  C   UNL     1      47.225   1.355   7.263  0.00  0.00    +0.000 A 
ATOM     17  N   UNL     1      47.338   2.628   6.862  0.00  0.00    +0.000 NA
ATOM     18  C   UNL     1      46.471   3.490   7.425  0.00  0.00    +0.000 A 
ENDBRANCH  12  13
ENDBRANCH  11  12
ENDBRANCH   5  11
TORSDOF 5
ENDMDL
MODEL 3
REMARK VINA RESULT:    -6.876      1.267      5.602
REMARK INTER + INTRA:          -8.845
REMARK INTER:                  -8.429
REMARK INTRA:                  -0.416
REMARK UNBOUND:                -0.161
REMARK  Name = 
REMARK  5 active torsions:
REMARK  status: ('A' for Active; 'I' for Inactive)
REMARK    1  A    between atoms: N_1  and  C_2
REMARK    2  A    between atoms: C_2  and  C_3
REMARK    3  A    between atoms: C_7  and  O_8
REMARK    4  A    between atoms: O_8  and  C_9
REMARK    5  A    between atoms: C_9  and  C_10
REMARK                            x       y       z     vdW  Elec       q    Type
REMARK                         _______ _______ _______ _____ _____    ______ ____
ROOT
ATOM      1  C   UNL     1      45.302   4.669  12.875  0.00  0.00    +0.000 A 
ATOM      2  C   UNL     1      44.168   5.403  13.238  0.00  0.00    +0.000 A 
ATOM      3  C   UNL     1      43.049   5.424  12.401  0.00  0.00    +0.000 A 
ATOM      4  C   UNL     1      43.047   4.692  11.213  0.00  0.00    +0.000 A 
ATOM      5  C   UNL     1      44.154   3.918  10.869  0.00  0.00    +0.000 A 
ATOM      6  C   UNL     1      45.279   3.927  11.688  0.00  0.00    +0.000 A 
ENDROOT
BRANCH   1   7
ATOM      7  C   UNL     1      46.550   4.659  13.716  0.00  0.00    +0.000 C 
BRANCH   7   8
ATOM      8  N   UNL     1      47.079   3.303  13.827  0.00  0.00    +0.000 NA
ATOM      9  H   UNL     1      47.447   3.161  14.767  0.00  0.00    +0.000 HD
ATOM     10  H   UNL     1      47.868   3.208  13.188  0.00  0.00    +0.000 HD
ENDBRANCH   7   8
ENDBRANCH   1   7
BRANCH   5  11
ATOM     11  O   UNL     1      44.051   3.189   9.714  0.00  0.00    +0.000 OA
BRANCH  11  12
ATOM     12  C   UNL     1      44.607   3.827   8.563  0.00  0.00    +0.000 C 
BRANCH  12  13
ATOM     13  C   UNL     1      45.678   2.960   8.004  0.00  0.00    +0.000 A 
ATOM     14  C   UNL     1      46.673   3.439   7.172  0.00  0.00    +0.000 A 
ATOM     15  N   UNL     1      47.676   2.679   6.700  0.00  0.00    +0.000 NA
ATOM     16  C   UNL     1      47.670   1.399   7.093  0.00  0.00    +0.000 A 
ATOM     17  N   UNL     1      46.773   0.821   7.904  0.00  0.00    +0.000 NA
ATOM     18  C   UNL     1      45.789   1.626   8.344  0.00  0.00    +0.000 A 
ENDBRANCH  12  13
ENDBRANCH  11  12
ENDBRANCH   5  11
TORSDOF 5
ENDMDL
MODEL 4
REMARK VINA RESULT:    -6.847      1.349      2.181
REMARK INTER + INTRA:          -8.808
REMARK INTER:                  -8.561
REMARK INTRA:                  -0.247
REMARK UNBOUND:                -0.161
REMARK  Name = 
REMARK  5 active torsions:
REMARK  status: ('A' for Active; 'I' for Inactive)
REMARK    1  A    between atoms: N_1  and  C_2
REMARK    2  A    between atoms: C_2  and  C_3
REMARK    3  A    between atoms: C_7  and  O_8
REMARK    4  A    between atoms: O_8  and  C_9
REMARK    5  A    between atoms: C_9  and  C_10
REMARK                            x       y       z     vdW  Elec       q    Type
REMARK                         _______ _______ _______ _____ _____    ______ ____
ROOT
ATOM      1  C   UNL     1      46.742   2.560   6.727  0.00  0.00    +0.000 A 
ATOM      2  C   UNL     1      46.661   1.276   7.275  0.00  0.00    +0.000 A 
ATOM      3  C   UNL     1      45.904   1.052   8.427  0.00  0.00    +0.000 A 
ATOM      4  C   UNL     1      45.203   2.103   9.022  0.00  0.00    +0.000 A 
ATOM      5  C   UNL     1      45.238   3.374   8.453  0.00  0.00    +0.000 A 
ATOM      6  C   UNL     1      46.021   3.600   7.325  0.00  0.00    +0.000 A 
ENDROOT
BRANCH   1   7
ATOM      7  C   UNL     1      47.588   2.861   5.518  0.00  0.00    +0.000 C 
BRANCH   7   8
ATOM      8  N   UNL     1      48.549   1.786   5.289  0.00  0.00    +0.000 NA
ATOM      9  H   UNL     1      49.049   1.590   6.155  0.00  0.00    +0.000 HD
ATOM     10  H   UNL     1      49.245   2.110   4.618  0.00  0.00    +0.000 HD
ENDBRANCH   7   8
ENDBRANCH   1   7
BRANCH   5  11
ATOM     11  O   UNL     1      44.482   4.336   9.067  0.00  0.00    +0.000 OA
BRANCH  11  12
ATOM     12  C   UNL     1      43.975   3.958  10.350  0.00  0.00    +0.000 C 
BRANCH  12  13
ATOM     13  C   UNL     1      44.949   4.375  11.393  0.00  0.00    +0.000 A 
ATOM     14  C   UNL     1      45.527   5.630  11.419  0.00  0.00    +0.000 A 
ATOM     15  N   UNL     1      46.371   6.040  12.383  0.00  0.00    +0.000 NA
ATOM     16  C   UNL     1      46.623   5.149  13.350  0.00  0.00    +0.000 A 
ATOM     17  N   UNL     1      46.117   3.912  13.444  0.00  0.00    +0.000 NA
ATOM     18  C   UNL     1      45.283   3.553  12.452  0.00  0.00    +0.000 A 
ENDBRANCH  12  13
ENDBRANCH  11  12
ENDBRANCH   5  11
TORSDOF 5
ENDMDL
MODEL 5
REMARK VINA RESULT:    -6.761      1.802      5.520
REMARK INTER + INTRA:          -8.701
REMARK INTER:                  -8.286
REMARK INTRA:                  -0.415
REMARK UNBOUND:                -0.161
REMARK  Name = 
REMARK  5 active torsions:
REMARK  status: ('A' for Active; 'I' for Inactive)
REMARK    1  A    between atoms: N_1  and  C_2
REMARK    2  A    between atoms: C_2  and  C_3
REMARK    3  A    between atoms: C_7  and  O_8
REMARK    4  A    between atoms: O_8  and  C_9
REMARK    5  A    between atoms: C_9  and  C_10
REMARK                            x       y       z     vdW  Elec       q    Type
REMARK                         _______ _______ _______ _____ _____    ______ ____
ROOT
ATOM      1  C   UNL     1      44.408   4.746  12.347  0.00  0.00    +0.000 A 
ATOM      2  C   UNL     1      45.063   5.810  12.976  0.00  0.00    +0.000 A 
ATOM      3  C   UNL     1      45.973   6.593  12.261  0.00  0.00    +0.000 A 
ATOM      4  C   UNL     1      46.213   6.334  10.910  0.00  0.00    +0.000 A 
ATOM      5  C   UNL     1      45.527   5.308  10.264  0.00  0.00    +0.000 A 
ATOM      6  C   UNL     1      44.647   4.509  10.988  0.00  0.00    +0.000 A 
ENDROOT
BRANCH   1   7
ATOM      7  C   UNL     1      43.460   3.842  13.089  0.00  0.00    +0.000 C 
BRANCH   7   8
ATOM      8  N   UNL     1      43.556   2.476  12.580  0.00  0.00    +0.000 NA
ATOM      9  H   UNL     1      43.676   2.501  11.569  0.00  0.00    +0.000 HD
ATOM     10  H   UNL     1      42.671   2.001  12.756  0.00  0.00    +0.000 HD
ENDBRANCH   7   8
ENDBRANCH   1   7
BRANCH   5  11
ATOM     11  O   UNL     1      45.780   5.154   8.927  0.00  0.00    +0.000 OA
BRANCH  11  12
ATOM     12  C   UNL     1      45.009   4.129   8.296  0.00  0.00    +0.000 C 
BRANCH  12  13
ATOM     13  C   UNL     1      45.909   2.999   7.945  0.00  0.00    +0.000 A 
ATOM     14  C   UNL     1      45.704   1.709   8.397  0.00  0.00    +0.000 A 
ATOM     15  N   UNL     1      46.479   0.667   8.048  0.00  0.00    +0.000 NA
ATOM     16  C   UNL     1      47.485   0.947   7.209  0.00  0.00    +0.000 A 
ATOM     17  N   UNL     1      47.779   2.148   6.693  0.00  0.00    +0.000 NA
ATOM     18  C   UNL     1      46.973   3.155   7.077  0.00  0.00    +0.000 A 
ENDBRANCH  12  13
ENDBRANCH  11  12
ENDBRANCH   5  11
TORSDOF 5
ENDMDL
MODEL 6
REMARK VINA RESULT:    -6.271      1.684      2.328
REMARK INTER + INTRA:          -8.082
REMARK INTER:                  -7.734
REMARK INTRA:                  -0.348
REMARK UNBOUND:                -0.161
REMARK  Name = 
REMARK  5 active torsions:
REMARK  status: ('A' for Active; 'I' for Inactive)
REMARK    1  A    between atoms: N_1  and  C_2
REMARK    2  A    between atoms: C_2  and  C_3
REMARK    3  A    between atoms: C_7  and  O_8
REMARK    4  A    between atoms: O_8  and  C_9
REMARK    5  A    between atoms: C_9  and  C_10
REMARK                            x       y       z     vdW  Elec       q    Type
REMARK                         _______ _______ _______ _____ _____    ______ ____
ROOT
ATOM      1  C   UNL     1      46.060   3.225   7.605  0.00  0.00    +0.000 A 
ATOM      2  C   UNL     1      45.627   1.947   7.974  0.00  0.00    +0.000 A 
ATOM      3  C   UNL     1      44.921   1.764   9.166  0.00  0.00    +0.000 A 
ATOM      4  C   UNL     1      44.622   2.858   9.980  0.00  0.00    +0.000 A 
ATOM      5  C   UNL     1      45.006   4.140   9.594  0.00  0.00    +0.000 A 
ATOM      6  C   UNL     1      45.739   4.314   8.423  0.00  0.00    +0.000 A 
ENDROOT
BRANCH   1   7
ATOM      7  C   UNL     1      46.870   3.464   6.359  0.00  0.00    +0.000 C 
BRANCH   7   8
ATOM      8  N   UNL     1      48.222   2.939   6.521  0.00  0.00    +0.000 NA
ATOM      9  H   UNL     1      48.653   3.363   7.342  0.00  0.00    +0.000 HD
ATOM     10  H   UNL     1      48.781   3.226   5.718  0.00  0.00    +0.000 HD
ENDBRANCH   7   8
ENDBRANCH   1   7
BRANCH   5  11
ATOM     11  O   UNL     1      44.628   5.163  10.421  0.00  0.00    +0.000 OA
BRANCH  11  12
ATOM     12  C   UNL     1      45.695   6.031  10.811  0.00  0.00    +0.000 C 
BRANCH  12  13
ATOM     13  C   UNL     1      46.156   5.644  12.171  0.00  0.00    +0.000 A 
ATOM     14  C   UNL     1      45.436   4.798  12.993  0.00  0.00    +0.000 A 
ATOM     15  N   UNL     1      45.864   4.398  14.205  0.00  0.00    +0.000 NA
ATOM     16  C   UNL     1      47.060   4.866  14.582  0.00  0.00    +0.000 A 
ATOM     17  N   UNL     1      47.856   5.677  13.872  0.00  0.00    +0.000 NA
ATOM     18  C   UNL     1      47.379   6.049  12.670  0.00  0.00    +0.000 A 
ENDBRANCH  12  13
ENDBRANCH  11  12
ENDBRANCH   5  11
TORSDOF 5
ENDMDL
MODEL 7
REMARK VINA RESULT:    -5.668      2.070      3.078
REMARK INTER + INTRA:          -7.320
REMARK INTER:                  -6.800
REMARK INTRA:                  -0.520
REMARK UNBOUND:                -0.161
REMARK  Name = 
REMARK  5 active torsions:
REMARK  status: ('A' for Active; 'I' for Inactive)
REMARK    1  A    between atoms: N_1  and  C_2
REMARK    2  A    between atoms: C_2  and  C_3
REMARK    3  A    between atoms: C_7  and  O_8
REMARK    4  A    between atoms: O_8  and  C_9
REMARK    5  A    between atoms: C_9  and  C_10
REMARK                            x       y       z     vdW  Elec       q    Type
REMARK                         _______ _______ _______ _____ _____    ______ ____
ROOT
ATOM      1  C   UNL     1      45.287   3.519   8.753  0.00  0.00    +0.000 A 
ATOM      2  C   UNL     1      44.663   2.437   9.383  0.00  0.00    +0.000 A 
ATOM      3  C   UNL     1      44.016   2.617  10.608  0.00  0.00    +0.000 A 
ATOM      4  C   UNL     1      43.966   3.882  11.196  0.00  0.00    +0.000 A 
ATOM      5  C   UNL     1      44.541   4.975  10.550  0.00  0.00    +0.000 A 
ATOM      6  C   UNL     1      45.214   4.784   9.347  0.00  0.00    +0.000 A 
ENDROOT
BRANCH   1   7
ATOM      7  C   UNL     1      46.042   3.363   7.460  0.00  0.00    +0.000 C 
BRANCH   7   8
ATOM      8  N   UNL     1      46.822   2.129   7.471  0.00  0.00    +0.000 NA
ATOM      9  H   UNL     1      47.154   1.932   6.527  0.00  0.00    +0.000 HD
ATOM     10  H   UNL     1      46.208   1.358   7.730  0.00  0.00    +0.000 HD
ENDBRANCH   7   8
ENDBRANCH   1   7
BRANCH   5  11
ATOM     11  O   UNL     1      44.402   6.188  11.168  0.00  0.00    +0.000 OA
BRANCH  11  12
ATOM     12  C   UNL     1      44.773   6.193  12.549  0.00  0.00    +0.000 C 
BRANCH  12  13
ATOM     13  C   UNL     1      46.233   6.455  12.653  0.00  0.00    +0.000 A 
ATOM     14  C   UNL     1      47.105   5.592  13.289  0.00  0.00    +0.000 A 
ATOM     15  N   UNL     1      48.434   5.789  13.348  0.00  0.00    +0.000 NA
ATOM     16  C   UNL     1      48.886   6.890  12.734  0.00  0.00    +0.000 A 
ATOM     17  N   UNL     1      48.147   7.793  12.075  0.00  0.00    +0.000 NA
ATOM     18  C   UNL     1      46.824   7.549  12.050  0.00  0.00    +0.000 A 
ENDBRANCH  12  13
ENDBRANCH  11  12
ENDBRANCH   5  11
TORSDOF 5
ENDMDL
MODEL 8
REMARK VINA RESULT:    -5.512      2.944      4.437
REMARK INTER + INTRA:          -7.122
REMARK INTER:                  -6.874
REMARK INTRA:                  -0.248
REMARK UNBOUND:                -0.161
REMARK  Name = 
REMARK  5 active torsions:
REMARK  status: ('A' for Active; 'I' for Inactive)
REMARK    1  A    between atoms: N_1  and  C_2
REMARK    2  A    between atoms: C_2  and  C_3
REMARK    3  A    between atoms: C_7  and  O_8
REMARK    4  A    between atoms: O_8  and  C_9
REMARK    5  A    between atoms: C_9  and  C_10
REMARK                            x       y       z     vdW  Elec       q    Type
REMARK                         _______ _______ _______ _____ _____    ______ ____
ROOT
ATOM      1  C   UNL     1      44.317   4.628  10.289  0.00  0.00    +0.000 A 
ATOM      2  C   UNL     1      43.185   4.248  11.018  0.00  0.00    +0.000 A 
ATOM      3  C   UNL     1      43.016   4.690  12.332  0.00  0.00    +0.000 A 
ATOM      4  C   UNL     1      43.962   5.535  12.916  0.00  0.00    +0.000 A 
ATOM      5  C   UNL     1      45.067   5.958  12.180  0.00  0.00    +0.000 A 
ATOM      6  C   UNL     1      45.248   5.488  10.883  0.00  0.00    +0.000 A 
ENDROOT
BRANCH   1   7
ATOM      7  C   UNL     1      44.569   4.134   8.890  0.00  0.00    +0.000 C 
BRANCH   7   8
ATOM      8  N   UNL     1      45.675   4.868   8.282  0.00  0.00    +0.000 NA
ATOM      9  H   UNL     1      45.970   4.390   7.432  0.00  0.00    +0.000 HD
ATOM     10  H   UNL     1      46.470   4.843   8.920  0.00  0.00    +0.000 HD
ENDBRANCH   7   8
ENDBRANCH   1   7
BRANCH   5  11
ATOM     11  O   UNL     1      45.919   6.827  12.808  0.00  0.00    +0.000 OA
BRANCH  11  12
ATOM     12  C   UNL     1      47.283   6.400  12.833  0.00  0.00    +0.000 C 
BRANCH  12  13
ATOM     13  C   UNL     1      47.526   5.643  14.090  0.00  0.00    +0.000 A 
ATOM     14  C   UNL     1      47.094   4.344  14.278  0.00  0.00    +0.000 A 
ATOM     15  N   UNL     1      47.349   3.630  15.388  0.00  0.00    +0.000 NA
ATOM     16  C   UNL     1      48.071   4.254  16.327  0.00  0.00    +0.000 A 
ATOM     17  N   UNL     1      48.557   5.501  16.258  0.00  0.00    +0.000 NA
ATOM     18  C   UNL     1      48.269   6.171  15.128  0.00  0.00    +0.000 A 
ENDBRANCH  12  13
ENDBRANCH  11  12
ENDBRANCH   5  11
TORSDOF 5
ENDMDL
MODEL 9
REMARK VINA RESULT:    -5.262      3.865      5.663
REMARK INTER + INTRA:          -6.807
REMARK INTER:                  -6.478
REMARK INTRA:                  -0.329
REMARK UNBOUND:                -0.161
REMARK  Name = 
REMARK  5 active torsions:
REMARK  status: ('A' for Active; 'I' for Inactive)
REMARK    1  A    between atoms: N_1  and  C_2
REMARK    2  A    between atoms: C_2  and  C_3
REMARK    3  A    between atoms: C_7  and  O_8
REMARK    4  A    between atoms: O_8  and  C_9
REMARK    5  A    between atoms: C_9  and  C_10
REMARK                            x       y       z     vdW  Elec       q    Type
REMARK                         _______ _______ _______ _____ _____    ______ ____
ROOT
ATOM      1  C   UNL     1      44.878   4.546  11.856  0.00  0.00    +0.000 A 
ATOM      2  C   UNL     1      45.229   5.561  10.959  0.00  0.00    +0.000 A 
ATOM      3  C   UNL     1      46.295   6.415  11.249  0.00  0.00    +0.000 A 
ATOM      4  C   UNL     1      47.033   6.243  12.422  0.00  0.00    +0.000 A 
ATOM      5  C   UNL     1      46.722   5.204  13.296  0.00  0.00    +0.000 A 
ATOM      6  C   UNL     1      45.637   4.377  13.020  0.00  0.00    +0.000 A 
ENDROOT
BRANCH   1   7
ATOM      7  C   UNL     1      43.704   3.636  11.613  0.00  0.00    +0.000 C 
BRANCH   7   8
ATOM      8  N   UNL     1      43.725   2.516  12.549  0.00  0.00    +0.000 NA
ATOM      9  H   UNL     1      44.442   1.851  12.264  0.00  0.00    +0.000 HD
ATOM     10  H   UNL     1      42.833   2.026  12.489  0.00  0.00    +0.000 HD
ENDBRANCH   7   8
ENDBRANCH   1   7
BRANCH   5  11
ATOM     11  O   UNL     1      47.526   5.073  14.396  0.00  0.00    +0.000 OA
BRANCH  11  12
ATOM     12  C   UNL     1      47.133   4.030  15.293  0.00  0.00    +0.000 C 
BRANCH  12  13
ATOM     13  C   UNL     1      47.847   4.214  16.584  0.00  0.00    +0.000 A 
ATOM     14  C   UNL     1      48.416   5.415  16.962  0.00  0.00    +0.000 A 
ATOM     15  N   UNL     1      49.021   5.611  18.147  0.00  0.00    +0.000 NA
ATOM     16  C   UNL     1      49.037   4.556  18.971  0.00  0.00    +0.000 A 
ATOM     17  N   UNL     1      48.511   3.348  18.728  0.00  0.00    +0.000 NA
ATOM     18  C   UNL     1      47.922   3.206  17.527  0.00  0.00    +0.000 A 
ENDBRANCH  12  13
ENDBRANCH  11  12
ENDBRANCH   5  11
TORSDOF 5
ENDMDL
