MODEL 1
REMARK VINA RESULT:    -8.457      0.000      0.000
REMARK INTER + INTRA:         -12.217
REMARK INTER:                 -11.423
REMARK INTRA:                  -0.794
REMARK UNBOUND:                -0.794
REMARK  Name = 
REMARK  6 active torsions:
REMARK  status: ('A' for Active; 'I' for Inactive)
REMARK    1  A    between atoms: C_2  and  C_3
REMARK    2  A    between atoms: N_7  and  C_8
REMARK    3  A    between atoms: C_8  and  C_9
REMARK    4  A    between atoms: C_9  and  C_12
REMARK    5  A    between atoms: C_14  and  N_15
REMARK    6  A    between atoms: N_15  and  C_16
REMARK                            x       y       z     vdW  Elec       q    Type
REMARK                         _______ _______ _______ _____ _____    ______ ____
ROOT
ATOM      1  C   UNL     1      43.450   5.151  12.232  0.00  0.00    +0.000 C 
ATOM      2  F   UNL     1      42.886   6.350  11.865  0.00  0.00    +0.000 F 
ATOM      3  F   UNL     1      42.655   4.695  13.253  0.00  0.00    +0.000 F 
ENDROOT
BRANCH   1   4
ATOM      4  C   UNL     1      44.892   5.347  12.702  0.00  0.00    +0.000 A 
ATOM      5  C   UNL     1      45.368   4.557  13.754  0.00  0.00    +0.000 A 
ATOM      6  C   UNL     1      46.683   4.708  14.213  0.00  0.00    +0.000 A 
ATOM      7  C   UNL     1      47.499   5.623  13.561  0.00  0.00    +0.000 A 
ATOM      8  C   UNL     1      46.958   6.383  12.535  0.00  0.00    +0.000 A 
ATOM      9  N   UNL     1      45.682   6.273  12.097  0.00  0.00    +0.000 NA
BRANCH   6  10
ATOM     10  N   UNL     1      47.147   3.858  15.232  0.00  0.00    +0.000 N 
ATOM     11  H   UNL     1      46.605   3.000  15.314  0.00  0.00    +0.000 HD
BRANCH  10  12
ATOM     12  C   UNL     1      47.924   4.190  16.394  0.00  0.00    +0.000 C 
ATOM     13  C   UNL     1      48.405   2.921  17.133  0.00  0.00    +0.000 C 
ATOM     14  N   UNL     1      47.897   3.464  18.403  0.00  0.00    +0.000 NA
ATOM     15  C   UNL     1      47.123   4.488  17.675  0.00  0.00    +0.000 C 
ATOM     16  H   UNL     1      48.629   3.845  19.003  0.00  0.00    +0.000 HD
ENDBRANCH  10  12
ENDBRANCH   6  10
ENDBRANCH   1   4
BRANCH   1  17
ATOM     17  C   UNL     1      43.314   4.184  11.026  0.00  0.00    +0.000 C 
BRANCH  17  22
ATOM     18  C   UNL     1      46.588   2.740   7.557  0.00  0.00    +0.000 A 
ATOM     19  C   UNL     1      45.708   2.095   8.391  0.00  0.00    +0.000 A 
ATOM     20  N   UNL     1      44.788   2.733   9.150  0.00  0.00    +0.000 NA
ATOM     21  C   UNL     1      44.735   4.071   9.063  0.00  0.00    +0.000 A 
ATOM     22  N   UNL     1      43.780   4.782   9.760  0.00  0.00    +0.000 N 
ATOM     23  N   UNL     1      45.567   4.789   8.293  0.00  0.00    +0.000 NA
ATOM     24  C   UNL     1      46.473   4.109   7.552  0.00  0.00    +0.000 A 
ATOM     25  H   UNL     1      44.069   5.754   9.806  0.00  0.00    +0.000 HD
BRANCH  18  27
ATOM     26  N   UNL     1      48.312   1.470   6.109  0.00  0.00    +0.000 NA
ATOM     27  C   UNL     1      47.538   2.044   6.758  0.00  0.00    +0.000 C 
ENDBRANCH  18  27
ENDBRANCH  17  22
ENDBRANCH   1  17
TORSDOF 6
ENDMDL
MODEL 2
REMARK VINA RESULT:    -7.939      1.965      3.818
REMARK INTER + INTRA:         -11.518
REMARK INTER:                 -10.815
REMARK INTRA:                  -0.703
REMARK UNBOUND:                -0.794
REMARK  Name = 
REMARK  6 active torsions:
REMARK  status: ('A' for Active; 'I' for Inactive)
REMARK    1  A    between atoms: C_2  and  C_3
REMARK    2  A    between atoms: N_7  and  C_8
REMARK    3  A    between atoms: C_8  and  C_9
REMARK    4  A    between atoms: C_9  and  C_12
REMARK    5  A    between atoms: C_14  and  N_15
REMARK    6  A    between atoms: N_15  and  C_16
REMARK                            x       y       z     vdW  Elec       q    Type
REMARK                         _______ _______ _______ _____ _____    ______ ____
ROOT
ATOM      1  C   UNL     1      43.451   4.188  12.637  0.00  0.00    +0.000 C 
ATOM      2  F   UNL     1      42.512   5.172  12.438  0.00  0.00    +0.000 F 
ATOM      3  F   UNL     1      42.964   3.454  13.689  0.00  0.00    +0.000 F 
ENDROOT
BRANCH   1   4
ATOM      4  C   UNL     1      44.815   4.794  12.971  0.00  0.00    +0.000 A 
ATOM      5  C   UNL     1      44.965   6.183  12.910  0.00  0.00    +0.000 A 
ATOM      6  C   UNL     1      46.199   6.775  13.207  0.00  0.00    +0.000 A 
ATOM      7  C   UNL     1      47.240   5.946  13.607  0.00  0.00    +0.000 A 
ATOM      8  C   UNL     1      47.025   4.576  13.631  0.00  0.00    +0.000 A 
ATOM      9  N   UNL     1      45.849   3.983  13.319  0.00  0.00    +0.000 NA
BRANCH   6  10
ATOM     10  N   UNL     1      46.299   8.177  13.194  0.00  0.00    +0.000 N 
ATOM     11  H   UNL     1      46.150   8.598  14.110  0.00  0.00    +0.000 HD
BRANCH  10  12
ATOM     12  C   UNL     1      46.138   9.078  12.087  0.00  0.00    +0.000 C 
ATOM     13  C   UNL     1      46.962  10.370  12.285  0.00  0.00    +0.000 C 
ATOM     14  N   UNL     1      45.772  11.180  11.979  0.00  0.00    +0.000 NA
ATOM     15  C   UNL     1      44.905   9.998  12.144  0.00  0.00    +0.000 C 
ATOM     16  H   UNL     1      45.776  11.565  11.034  0.00  0.00    +0.000 HD
ENDBRANCH  10  12
ENDBRANCH   6  10
ENDBRANCH   1   4
BRANCH   1  17
ATOM     17  C   UNL     1      43.462   3.292  11.370  0.00  0.00    +0.000 C 
BRANCH  17  22
ATOM     18  C   UNL     1      46.609   2.567   7.573  0.00  0.00    +0.000 A 
ATOM     19  C   UNL     1      45.878   1.749   8.399  0.00  0.00    +0.000 A 
ATOM     20  N   UNL     1      44.949   2.201   9.273  0.00  0.00    +0.000 NA
ATOM     21  C   UNL     1      44.733   3.525   9.317  0.00  0.00    +0.000 A 
ATOM     22  N   UNL     1      43.757   4.049  10.138  0.00  0.00    +0.000 N 
ATOM     23  N   UNL     1      45.414   4.404   8.565  0.00  0.00    +0.000 NA
ATOM     24  C   UNL     1      46.334   3.907   7.705  0.00  0.00    +0.000 A 
ATOM     25  H   UNL     1      43.933   5.042  10.257  0.00  0.00    +0.000 HD
BRANCH  18  27
ATOM     26  N   UNL     1      48.354   1.658   5.897  0.00  0.00    +0.000 NA
ATOM     27  C   UNL     1      47.570   2.065   6.653  0.00  0.00    +0.000 C 
ENDBRANCH  18  27
ENDBRANCH  17  22
ENDBRANCH   1  17
TORSDOF 6
ENDMDL
MODEL 3
REMARK VINA RESULT:    -7.918      1.886      3.080
REMARK INTER + INTRA:         -11.490
REMARK INTER:                 -10.800
REMARK INTRA:                  -0.690
REMARK UNBOUND:                -0.794
REMARK  Name = 
REMARK  6 active torsions:
REMARK  status: ('A' for Active; 'I' for Inactive)
REMARK    1  A    between atoms: C_2  and  C_3
REMARK    2  A    between atoms: N_7  and  C_8
REMARK    3  A    between atoms: C_8  and  C_9
REMARK    4  A    between atoms: C_9  and  C_12
REMARK    5  A    between atoms: C_14  and  N_15
REMARK    6  A    between atoms: N_15  and  C_16
REMARK                            x       y       z     vdW  Elec       q    Type
REMARK                         _______ _______ _______ _____ _____    ______ ____
ROOT
ATOM      1  C   UNL     1      43.487   5.049  12.335  0.00  0.00    +0.000 C 
ATOM      2  F   UNL     1      43.007   6.276  11.943  0.00  0.00    +0.000 F 
ATOM      3  F   UNL     1      42.620   4.635  13.314  0.00  0.00    +0.000 F 
ENDROOT
BRANCH   1   4
ATOM      4  C   UNL     1      44.913   5.168  12.877  0.00  0.00    +0.000 A 
ATOM      5  C   UNL     1      45.517   6.430  12.904  0.00  0.00    +0.000 A 
ATOM      6  C   UNL     1      46.822   6.578  13.391  0.00  0.00    +0.000 A 
ATOM      7  C   UNL     1      47.466   5.451  13.884  0.00  0.00    +0.000 A 
ATOM      8  C   UNL     1      46.813   4.229  13.812  0.00  0.00    +0.000 A 
ATOM      9  N   UNL     1      45.564   4.060  13.319  0.00  0.00    +0.000 NA
BRANCH   6  10
ATOM     10  N   UNL     1      47.377   7.868  13.459  0.00  0.00    +0.000 N 
ATOM     11  H   UNL     1      46.716   8.571  13.785  0.00  0.00    +0.000 HD
BRANCH  10  12
ATOM     12  C   UNL     1      48.515   8.394  12.758  0.00  0.00    +0.000 C 
ATOM     13  C   UNL     1      48.847   7.552  11.506  0.00  0.00    +0.000 C 
ATOM     14  N   UNL     1      50.254   7.470  11.930  0.00  0.00    +0.000 NA
ATOM     15  C   UNL     1      49.892   7.944  13.280  0.00  0.00    +0.000 C 
ATOM     16  H   UNL     1      50.868   8.103  11.417  0.00  0.00    +0.000 HD
ENDBRANCH  10  12
ENDBRANCH   6  10
ENDBRANCH   1   4
BRANCH   1  17
ATOM     17  C   UNL     1      43.361   4.091  11.121  0.00  0.00    +0.000 C 
BRANCH  17  22
ATOM     18  C   UNL     1      46.605   2.707   7.599  0.00  0.00    +0.000 A 
ATOM     19  C   UNL     1      45.737   2.047   8.435  0.00  0.00    +0.000 A 
ATOM     20  N   UNL     1      44.822   2.671   9.211  0.00  0.00    +0.000 NA
ATOM     21  C   UNL     1      44.762   4.010   9.142  0.00  0.00    +0.000 A 
ATOM     22  N   UNL     1      43.811   4.707   9.858  0.00  0.00    +0.000 N 
ATOM     23  N   UNL     1      45.583   4.742   8.373  0.00  0.00    +0.000 NA
ATOM     24  C   UNL     1      46.484   4.076   7.614  0.00  0.00    +0.000 A 
ATOM     25  H   UNL     1      44.097   5.680   9.914  0.00  0.00    +0.000 HD
BRANCH  18  27
ATOM     26  N   UNL     1      48.319   1.470   6.111  0.00  0.00    +0.000 NA
ATOM     27  C   UNL     1      47.550   2.025   6.783  0.00  0.00    +0.000 C 
ENDBRANCH  18  27
ENDBRANCH  17  22
ENDBRANCH   1  17
TORSDOF 6
ENDMDL
MODEL 4
REMARK VINA RESULT:    -7.802      2.577      3.074
REMARK INTER + INTRA:         -11.333
REMARK INTER:                 -10.540
REMARK INTRA:                  -0.793
REMARK UNBOUND:                -0.794
REMARK  Name = 
REMARK  6 active torsions:
REMARK  status: ('A' for Active; 'I' for Inactive)
REMARK    1  A    between atoms: C_2  and  C_3
REMARK    2  A    between atoms: N_7  and  C_8
REMARK    3  A    between atoms: C_8  and  C_9
REMARK    4  A    between atoms: C_9  and  C_12
REMARK    5  A    between atoms: C_14  and  N_15
REMARK    6  A    between atoms: N_15  and  C_16
REMARK                            x       y       z     vdW  Elec       q    Type
REMARK                         _______ _______ _______ _____ _____    ______ ____
ROOT
ATOM      1  C   UNL     1      44.229   4.256  12.366  0.00  0.00    +0.000 C 
ATOM      2  F   UNL     1      43.467   4.048  13.490  0.00  0.00    +0.000 F 
ATOM      3  F   UNL     1      45.278   3.381  12.492  0.00  0.00    +0.000 F 
ENDROOT
BRANCH   1   4
ATOM      4  C   UNL     1      44.723   5.702  12.302  0.00  0.00    +0.000 A 
ATOM      5  C   UNL     1      45.908   6.037  12.967  0.00  0.00    +0.000 A 
ATOM      6  C   UNL     1      46.391   7.351  12.933  0.00  0.00    +0.000 A 
ATOM      7  C   UNL     1      45.687   8.285  12.184  0.00  0.00    +0.000 A 
ATOM      8  C   UNL     1      44.513   7.887  11.561  0.00  0.00    +0.000 A 
ATOM      9  N   UNL     1      44.014   6.631  11.607  0.00  0.00    +0.000 NA
BRANCH   6  10
ATOM     10  N   UNL     1      47.614   7.640  13.562  0.00  0.00    +0.000 N 
ATOM     11  H   UNL     1      47.660   8.589  13.930  0.00  0.00    +0.000 HD
BRANCH  10  12
ATOM     12  C   UNL     1      48.890   7.005  13.381  0.00  0.00    +0.000 C 
ATOM     13  C   UNL     1      49.985   7.682  14.235  0.00  0.00    +0.000 C 
ATOM     14  N   UNL     1      50.853   7.779  13.051  0.00  0.00    +0.000 NA
ATOM     15  C   UNL     1      49.710   7.479  12.167  0.00  0.00    +0.000 C 
ATOM     16  H   UNL     1      51.590   7.074  13.031  0.00  0.00    +0.000 HD
ENDBRANCH  10  12
ENDBRANCH   6  10
ENDBRANCH   1   4
BRANCH   1  17
ATOM     17  C   UNL     1      43.376   3.836  11.140  0.00  0.00    +0.000 C 
BRANCH  17  22
ATOM     18  C   UNL     1      46.628   2.669   7.548  0.00  0.00    +0.000 A 
ATOM     19  C   UNL     1      45.789   1.955   8.368  0.00  0.00    +0.000 A 
ATOM     20  N   UNL     1      44.862   2.525   9.172  0.00  0.00    +0.000 NA
ATOM     21  C   UNL     1      44.761   3.863   9.149  0.00  0.00    +0.000 A 
ATOM     22  N   UNL     1      43.796   4.507   9.895  0.00  0.00    +0.000 N 
ATOM     23  N   UNL     1      45.552   4.645   8.398  0.00  0.00    +0.000 NA
ATOM     24  C   UNL     1      46.466   4.032   7.609  0.00  0.00    +0.000 A 
ATOM     25  H   UNL     1      44.052   5.485   9.981  0.00  0.00    +0.000 HD
BRANCH  18  27
ATOM     26  N   UNL     1      48.372   1.536   6.013  0.00  0.00    +0.000 NA
ATOM     27  C   UNL     1      47.586   2.044   6.701  0.00  0.00    +0.000 C 
ENDBRANCH  18  27
ENDBRANCH  17  22
ENDBRANCH   1  17
TORSDOF 6
ENDMDL
MODEL 5
REMARK VINA RESULT:    -7.471      1.581      7.902
REMARK INTER + INTRA:         -10.885
REMARK INTER:                 -10.175
REMARK INTRA:                  -0.710
REMARK UNBOUND:                -0.794
REMARK  Name = 
REMARK  6 active torsions:
REMARK  status: ('A' for Active; 'I' for Inactive)
REMARK    1  A    between atoms: C_2  and  C_3
REMARK    2  A    between atoms: N_7  and  C_8
REMARK    3  A    between atoms: C_8  and  C_9
REMARK    4  A    between atoms: C_9  and  C_12
REMARK    5  A    between atoms: C_14  and  N_15
REMARK    6  A    between atoms: N_15  and  C_16
REMARK                            x       y       z     vdW  Elec       q    Type
REMARK                         _______ _______ _______ _____ _____    ______ ____
ROOT
ATOM      1  C   UNL     1      45.403   5.892  11.491  0.00  0.00    +0.000 C 
ATOM      2  F   UNL     1      44.302   6.316  12.196  0.00  0.00    +0.000 F 
ATOM      3  F   UNL     1      45.735   6.957  10.694  0.00  0.00    +0.000 F 
ENDROOT
BRANCH   1   4
ATOM      4  C   UNL     1      45.073   4.657  10.652  0.00  0.00    +0.000 A 
ATOM      5  C   UNL     1      45.541   4.596   9.335  0.00  0.00    +0.000 A 
ATOM      6  C   UNL     1      45.257   3.482   8.534  0.00  0.00    +0.000 A 
ATOM      7  C   UNL     1      44.546   2.434   9.104  0.00  0.00    +0.000 A 
ATOM      8  C   UNL     1      44.101   2.568  10.412  0.00  0.00    +0.000 A 
ATOM      9  N   UNL     1      44.339   3.647  11.191  0.00  0.00    +0.000 NA
BRANCH   6  10
ATOM     10  N   UNL     1      45.792   3.427   7.235  0.00  0.00    +0.000 N 
ATOM     11  H   UNL     1      45.109   3.146   6.533  0.00  0.00    +0.000 HD
BRANCH  10  12
ATOM     12  C   UNL     1      47.162   3.273   6.834  0.00  0.00    +0.000 C 
ATOM     13  C   UNL     1      47.275   2.912   5.336  0.00  0.00    +0.000 C 
ATOM     14  N   UNL     1      48.166   1.790   5.669  0.00  0.00    +0.000 NA
ATOM     15  C   UNL     1      47.786   1.889   7.092  0.00  0.00    +0.000 C 
ATOM     16  H   UNL     1      49.151   1.987   5.488  0.00  0.00    +0.000 HD
ENDBRANCH  10  12
ENDBRANCH   6  10
ENDBRANCH   1   4
BRANCH   1  17
ATOM     17  C   UNL     1      46.549   5.661  12.513  0.00  0.00    +0.000 C 
BRANCH  17  22
ATOM     18  C   UNL     1      48.640   4.539  16.896  0.00  0.00    +0.000 A 
ATOM     19  C   UNL     1      48.605   5.652  16.093  0.00  0.00    +0.000 A 
ATOM     20  N   UNL     1      47.816   5.764  15.000  0.00  0.00    +0.000 NA
ATOM     21  C   UNL     1      47.021   4.726  14.701  0.00  0.00    +0.000 A 
ATOM     22  N   UNL     1      46.144   4.796  13.638  0.00  0.00    +0.000 N 
ATOM     23  N   UNL     1      47.003   3.588  15.413  0.00  0.00    +0.000 NA
ATOM     24  C   UNL     1      47.809   3.519  16.498  0.00  0.00    +0.000 A 
ATOM     25  H   UNL     1      45.856   3.854  13.394  0.00  0.00    +0.000 HD
BRANCH  18  27
ATOM     26  N   UNL     1      50.148   4.375  18.989  0.00  0.00    +0.000 NA
ATOM     27  C   UNL     1      49.470   4.451  18.048  0.00  0.00    +0.000 C 
ENDBRANCH  18  27
ENDBRANCH  17  22
ENDBRANCH   1  17
TORSDOF 6
ENDMDL
MODEL 6
REMARK VINA RESULT:    -7.082      1.852      7.937
REMARK INTER + INTRA:         -10.361
REMARK INTER:                  -9.619
REMARK INTRA:                  -0.742
REMARK UNBOUND:                -0.794
REMARK  Name = 
REMARK  6 active torsions:
REMARK  status: ('A' for Active; 'I' for Inactive)
REMARK    1  A    between atoms: C_2  and  C_3
REMARK    2  A    between atoms: N_7  and  C_8
REMARK    3  A    between atoms: C_8  and  C_9
REMARK    4  A    between atoms: C_9  and  C_12
REMARK    5  A    between atoms: C_14  and  N_15
REMARK    6  A    between atoms: N_15  and  C_16
REMARK                            x       y       z     vdW  Elec       q    Type
REMARK                         _______ _______ _______ _____ _____    ______ ____
ROOT
ATOM      1  C   UNL     1      46.652   6.345  12.500  0.00  0.00    +0.000 C 
ATOM      2  F   UNL     1      46.333   7.436  13.273  0.00  0.00    +0.000 F 
ATOM      3  F   UNL     1      47.379   6.860  11.458  0.00  0.00    +0.000 F 
ENDROOT
BRANCH   1   4
ATOM      4  C   UNL     1      45.389   5.643  11.998  0.00  0.00    +0.000 A 
ATOM      5  C   UNL     1      45.274   5.367  10.631  0.00  0.00    +0.000 A 
ATOM      6  C   UNL     1      44.131   4.727  10.133  0.00  0.00    +0.000 A 
ATOM      7  C   UNL     1      43.155   4.338  11.040  0.00  0.00    +0.000 A 
ATOM      8  C   UNL     1      43.328   4.657  12.379  0.00  0.00    +0.000 A 
ATOM      9  N   UNL     1      44.410   5.300  12.876  0.00  0.00    +0.000 NA
BRANCH   6  10
ATOM     10  N   UNL     1      44.074   4.413   8.764  0.00  0.00    +0.000 N 
ATOM     11  H   UNL     1      43.357   4.937   8.263  0.00  0.00    +0.000 HD
BRANCH  10  12
ATOM     12  C   UNL     1      44.524   3.225   8.095  0.00  0.00    +0.000 C 
ATOM     13  C   UNL     1      45.005   2.157   9.103  0.00  0.00    +0.000 C 
ATOM     14  N   UNL     1      46.255   1.997   8.344  0.00  0.00    +0.000 NA
ATOM     15  C   UNL     1      45.982   3.243   7.601  0.00  0.00    +0.000 C 
ATOM     16  H   UNL     1      46.270   1.160   7.760  0.00  0.00    +0.000 HD
ENDBRANCH  10  12
ENDBRANCH   6  10
ENDBRANCH   1   4
BRANCH   1  17
ATOM     17  C   UNL     1      47.577   5.430  13.347  0.00  0.00    +0.000 C 
BRANCH  17  22
ATOM     18  C   UNL     1      48.254   4.487  18.194  0.00  0.00    +0.000 A 
ATOM     19  C   UNL     1      48.489   5.561  17.371  0.00  0.00    +0.000 A 
ATOM     20  N   UNL     1      48.060   5.633  16.090  0.00  0.00    +0.000 NA
ATOM     21  C   UNL     1      47.357   4.594  15.613  0.00  0.00    +0.000 A 
ATOM     22  N   UNL     1      46.834   4.627  14.337  0.00  0.00    +0.000 N 
ATOM     23  N   UNL     1      47.097   3.492  16.334  0.00  0.00    +0.000 NA
ATOM     24  C   UNL     1      47.546   3.463  17.611  0.00  0.00    +0.000 A 
ATOM     25  H   UNL     1      46.602   3.679  14.058  0.00  0.00    +0.000 HD
BRANCH  18  27
ATOM     26  N   UNL     1      49.076   4.402  20.643  0.00  0.00    +0.000 NA
ATOM     27  C   UNL     1      48.705   4.442  19.542  0.00  0.00    +0.000 C 
ENDBRANCH  18  27
ENDBRANCH  17  22
ENDBRANCH   1  17
TORSDOF 6
ENDMDL
MODEL 7
REMARK VINA RESULT:    -7.031      2.484      7.912
REMARK INTER + INTRA:         -10.291
REMARK INTER:                  -9.687
REMARK INTRA:                  -0.604
REMARK UNBOUND:                -0.794
REMARK  Name = 
REMARK  6 active torsions:
REMARK  status: ('A' for Active; 'I' for Inactive)
REMARK    1  A    between atoms: C_2  and  C_3
REMARK    2  A    between atoms: N_7  and  C_8
REMARK    3  A    between atoms: C_8  and  C_9
REMARK    4  A    between atoms: C_9  and  C_12
REMARK    5  A    between atoms: C_14  and  N_15
REMARK    6  A    between atoms: N_15  and  C_16
REMARK                            x       y       z     vdW  Elec       q    Type
REMARK                         _______ _______ _______ _____ _____    ______ ____
ROOT
ATOM      1  C   UNL     1      46.890   4.727  13.802  0.00  0.00    +0.000 C 
ATOM      2  F   UNL     1      47.398   5.974  13.526  0.00  0.00    +0.000 F 
ATOM      3  F   UNL     1      47.832   3.855  13.318  0.00  0.00    +0.000 F 
ENDROOT
BRANCH   1   4
ATOM      4  C   UNL     1      45.542   4.521  13.111  0.00  0.00    +0.000 A 
ATOM      5  C   UNL     1      45.449   3.567  12.092  0.00  0.00    +0.000 A 
ATOM      6  C   UNL     1      44.231   3.351  11.434  0.00  0.00    +0.000 A 
ATOM      7  C   UNL     1      43.124   4.074  11.858  0.00  0.00    +0.000 A 
ATOM      8  C   UNL     1      43.291   5.014  12.865  0.00  0.00    +0.000 A 
ATOM      9  N   UNL     1      44.465   5.258  13.492  0.00  0.00    +0.000 NA
BRANCH   6  10
ATOM     10  N   UNL     1      44.159   2.344  10.456  0.00  0.00    +0.000 N 
ATOM     11  H   UNL     1      44.283   1.407  10.837  0.00  0.00    +0.000 HD
BRANCH  10  12
ATOM     12  C   UNL     1      44.377   2.449   9.040  0.00  0.00    +0.000 C 
ATOM     13  C   UNL     1      45.765   1.900   8.640  0.00  0.00    +0.000 C 
ATOM     14  N   UNL     1      46.038   3.133   7.884  0.00  0.00    +0.000 NA
ATOM     15  C   UNL     1      44.902   3.808   8.541  0.00  0.00    +0.000 C 
ATOM     16  H   UNL     1      45.929   3.022   6.875  0.00  0.00    +0.000 HD
ENDBRANCH  10  12
ENDBRANCH   6  10
ENDBRANCH   1   4
BRANCH   1  17
ATOM     17  C   UNL     1      46.826   4.582  15.346  0.00  0.00    +0.000 C 
BRANCH  17  22
ATOM     18  C   UNL     1      50.975   2.876  17.518  0.00  0.00    +0.000 A 
ATOM     19  C   UNL     1      50.271   4.054  17.560  0.00  0.00    +0.000 A 
ATOM     20  N   UNL     1      49.056   4.222  16.990  0.00  0.00    +0.000 NA
ATOM     21  C   UNL     1      48.515   3.167  16.361  0.00  0.00    +0.000 A 
ATOM     22  N   UNL     1      47.253   3.248  15.812  0.00  0.00    +0.000 N 
ATOM     23  N   UNL     1      49.138   1.983  16.249  0.00  0.00    +0.000 NA
ATOM     24  C   UNL     1      50.352   1.860  16.834  0.00  0.00    +0.000 A 
ATOM     25  H   UNL     1      47.138   2.487  15.149  0.00  0.00    +0.000 HD
BRANCH  18  27
ATOM     26  N   UNL     1      53.282   2.594  18.650  0.00  0.00    +0.000 NA
ATOM     27  C   UNL     1      52.246   2.722  18.139  0.00  0.00    +0.000 C 
ENDBRANCH  18  27
ENDBRANCH  17  22
ENDBRANCH   1  17
TORSDOF 6
ENDMDL
MODEL 8
REMARK VINA RESULT:    -6.474      3.899      7.875
REMARK INTER + INTRA:          -9.539
REMARK INTER:                  -9.314
REMARK INTRA:                  -0.225
REMARK UNBOUND:                -0.794
REMARK  Name = 
REMARK  6 active torsions:
REMARK  status: ('A' for Active; 'I' for Inactive)
REMARK    1  A    between atoms: C_2  and  C_3
REMARK    2  A    between atoms: N_7  and  C_8
REMARK    3  A    between atoms: C_8  and  C_9
REMARK    4  A    between atoms: C_9  and  C_12
REMARK    5  A    between atoms: C_14  and  N_15
REMARK    6  A    between atoms: N_15  and  C_16
REMARK                            x       y       z     vdW  Elec       q    Type
REMARK                         _______ _______ _______ _____ _____    ______ ____
ROOT
ATOM      1  C   UNL     1      46.768   4.395  13.686  0.00  0.00    +0.000 C 
ATOM      2  F   UNL     1      47.730   5.194  13.115  0.00  0.00    +0.000 F 
ATOM      3  F   UNL     1      47.090   3.124  13.281  0.00  0.00    +0.000 F 
ENDROOT
BRANCH   1   4
ATOM      4  C   UNL     1      45.372   4.790  13.205  0.00  0.00    +0.000 A 
ATOM      5  C   UNL     1      45.235   5.933  12.409  0.00  0.00    +0.000 A 
ATOM      6  C   UNL     1      43.972   6.329  11.951  0.00  0.00    +0.000 A 
ATOM      7  C   UNL     1      42.883   5.528  12.269  0.00  0.00    +0.000 A 
ATOM      8  C   UNL     1      43.089   4.417  13.074  0.00  0.00    +0.000 A 
ATOM      9  N   UNL     1      44.296   4.035  13.551  0.00  0.00    +0.000 NA
BRANCH   6  10
ATOM     10  N   UNL     1      43.878   7.449  11.105  0.00  0.00    +0.000 N 
ATOM     11  H   UNL     1      43.500   7.225  10.186  0.00  0.00    +0.000 HD
BRANCH  10  12
ATOM     12  C   UNL     1      44.605   8.686  11.169  0.00  0.00    +0.000 C 
ATOM     13  C   UNL     1      44.927   9.077  12.629  0.00  0.00    +0.000 C 
ATOM     14  N   UNL     1      44.387  10.425  12.391  0.00  0.00    +0.000 NA
ATOM     15  C   UNL     1      43.752   9.967  11.139  0.00  0.00    +0.000 C 
ATOM     16  H   UNL     1      45.110  11.132  12.256  0.00  0.00    +0.000 HD
ENDBRANCH  10  12
ENDBRANCH   6  10
ENDBRANCH   1   4
BRANCH   1  17
ATOM     17  C   UNL     1      46.944   4.485  15.226  0.00  0.00    +0.000 C 
BRANCH  17  22
ATOM     18  C   UNL     1      51.069   2.996  17.593  0.00  0.00    +0.000 A 
ATOM     19  C   UNL     1      50.369   4.174  17.509  0.00  0.00    +0.000 A 
ATOM     20  N   UNL     1      49.159   4.287  16.915  0.00  0.00    +0.000 NA
ATOM     21  C   UNL     1      48.619   3.175  16.393  0.00  0.00    +0.000 A 
ATOM     22  N   UNL     1      47.361   3.204  15.828  0.00  0.00    +0.000 N 
ATOM     23  N   UNL     1      49.238   1.984  16.407  0.00  0.00    +0.000 NA
ATOM     24  C   UNL     1      50.448   1.917  17.011  0.00  0.00    +0.000 A 
ATOM     25  H   UNL     1      47.249   2.380  15.246  0.00  0.00    +0.000 HD
BRANCH  18  27
ATOM     26  N   UNL     1      53.367   2.820  18.764  0.00  0.00    +0.000 NA
ATOM     27  C   UNL     1      52.335   2.902  18.236  0.00  0.00    +0.000 C 
ENDBRANCH  18  27
ENDBRANCH  17  22
ENDBRANCH   1  17
TORSDOF 6
ENDMDL
MODEL 9
REMARK VINA RESULT:    -6.048      3.361      5.079
REMARK INTER + INTRA:          -8.963
REMARK INTER:                  -8.355
REMARK INTRA:                  -0.608
REMARK UNBOUND:                -0.794
REMARK  Name = 
REMARK  6 active torsions:
REMARK  status: ('A' for Active; 'I' for Inactive)
REMARK    1  A    between atoms: C_2  and  C_3
REMARK    2  A    between atoms: N_7  and  C_8
REMARK    3  A    between atoms: C_8  and  C_9
REMARK    4  A    between atoms: C_9  and  C_12
REMARK    5  A    between atoms: C_14  and  N_15
REMARK    6  A    between atoms: N_15  and  C_16
REMARK                            x       y       z     vdW  Elec       q    Type
REMARK                         _______ _______ _______ _____ _____    ______ ____
ROOT
ATOM      1  C   UNL     1      48.949   7.804  14.138  0.00  0.00    +0.000 C 
ATOM      2  F   UNL     1      49.622   8.949  13.788  0.00  0.00    +0.000 F 
ATOM      3  F   UNL     1      47.708   8.238  14.531  0.00  0.00    +0.000 F 
ENDROOT
BRANCH   1   4
ATOM      4  C   UNL     1      49.664   7.076  15.277  0.00  0.00    +0.000 A 
ATOM      5  C   UNL     1      48.925   6.205  16.085  0.00  0.00    +0.000 A 
ATOM      6  C   UNL     1      49.544   5.522  17.140  0.00  0.00    +0.000 A 
ATOM      7  C   UNL     1      50.909   5.701  17.320  0.00  0.00    +0.000 A 
ATOM      8  C   UNL     1      51.577   6.591  16.491  0.00  0.00    +0.000 A 
ATOM      9  N   UNL     1      50.991   7.282  15.486  0.00  0.00    +0.000 NA
BRANCH   6  10
ATOM     10  N   UNL     1      48.786   4.610  17.895  0.00  0.00    +0.000 N 
ATOM     11  H   UNL     1      48.635   4.914  18.856  0.00  0.00    +0.000 HD
BRANCH  10  12
ATOM     12  C   UNL     1      48.590   3.205  17.674  0.00  0.00    +0.000 C 
ATOM     13  C   UNL     1      49.914   2.502  17.297  0.00  0.00    +0.000 C 
ATOM     14  N   UNL     1      49.258   1.880  16.136  0.00  0.00    +0.000 NA
ATOM     15  C   UNL     1      48.116   2.806  16.264  0.00  0.00    +0.000 C 
ATOM     16  H   UNL     1      49.016   0.900  16.285  0.00  0.00    +0.000 HD
ENDBRANCH  10  12
ENDBRANCH   6  10
ENDBRANCH   1   4
BRANCH   1  17
ATOM     17  C   UNL     1      48.791   6.946  12.854  0.00  0.00    +0.000 C 
BRANCH  17  22
ATOM     18  C   UNL     1      44.790   4.165  11.805  0.00  0.00    +0.000 A 
ATOM     19  C   UNL     1      45.681   4.232  12.848  0.00  0.00    +0.000 A 
ATOM     20  N   UNL     1      46.611   5.205  12.980  0.00  0.00    +0.000 NA
ATOM     21  C   UNL     1      46.648   6.158  12.036  0.00  0.00    +0.000 A 
ATOM     22  N   UNL     1      47.528   7.214  12.140  0.00  0.00    +0.000 N 
ATOM     23  N   UNL     1      45.834   6.164  10.969  0.00  0.00    +0.000 NA
ATOM     24  C   UNL     1      44.918   5.171  10.877  0.00  0.00    +0.000 A 
ATOM     25  H   UNL     1      47.617   7.653  11.228  0.00  0.00    +0.000 HD
BRANCH  18  27
ATOM     26  N   UNL     1      43.015   2.298  11.606  0.00  0.00    +0.000 NA
ATOM     27  C   UNL     1      43.811   3.138  11.697  0.00  0.00    +0.000 C 
ENDBRANCH  18  27
ENDBRANCH  17  22
ENDBRANCH   1  17
TORSDOF 6
ENDMDL
