MODEL 1
REMARK VINA RESULT:    -7.798      0.000      0.000
REMARK INTER + INTRA:         -10.232
REMARK INTER:                  -9.849
REMARK INTRA:                  -0.383
REMARK UNBOUND:                -0.383
REMARK  Name = 
REMARK  6 active torsions:
REMARK  status: ('A' for Active; 'I' for Inactive)
REMARK    1  A    between atoms: C_1  and  O_2
REMARK    2  A    between atoms: O_2  and  C_3
REMARK    3  A    between atoms: N_9  and  C_10
REMARK    4  A    between atoms: C_10  and  C_11
REMARK    5  A    between atoms: C_15  and  C_16
REMARK    6  A    between atoms: C_16  and  N_17
REMARK                            x       y       z     vdW  Elec       q    Type
REMARK                         _______ _______ _______ _____ _____    ______ ____
ROOT
ATOM      1  C   UNL     1      46.924   6.299  12.143  0.00  0.00    +0.000 A 
ATOM      2  C   UNL     1      46.703   5.840  13.439  0.00  0.00    +0.000 A 
ATOM      3  C   UNL     1      45.677   4.924  13.701  0.00  0.00    +0.000 A 
ATOM      4  C   UNL     1      44.870   4.454  12.649  0.00  0.00    +0.000 A 
ATOM      5  C   UNL     1      43.781   3.549  12.589  0.00  0.00    +0.000 A 
ATOM      6  C   UNL     1      43.393   3.451  11.275  0.00  0.00    +0.000 A 
ATOM      7  N   UNL     1      44.202   4.275  10.525  0.00  0.00    +0.000 N 
ATOM      8  C   UNL     1      45.104   4.922  11.350  0.00  0.00    +0.000 A 
ATOM      9  C   UNL     1      46.111   5.867  11.084  0.00  0.00    +0.000 A 
ENDROOT
BRANCH   1  11
ATOM     10  C   UNL     1      49.104   7.115  12.546  0.00  0.00    +0.000 C 
ATOM     11  O   UNL     1      47.896   7.204  11.797  0.00  0.00    +0.000 OA
ENDBRANCH   1  11
BRANCH   7  12
ATOM     12  C   UNL     1      44.151   4.347   9.068  0.00  0.00    +0.000 C 
BRANCH  12  13
ATOM     13  C   UNL     1      44.975   3.258   8.429  0.00  0.00    +0.000 A 
ATOM     14  C   UNL     1      45.043   1.986   9.009  0.00  0.00    +0.000 A 
ATOM     15  C   UNL     1      45.875   1.009   8.465  0.00  0.00    +0.000 A 
ATOM     16  C   UNL     1      46.649   1.292   7.339  0.00  0.00    +0.000 A 
ATOM     17  C   UNL     1      46.581   2.548   6.721  0.00  0.00    +0.000 A 
ATOM     18  C   UNL     1      45.734   3.521   7.276  0.00  0.00    +0.000 A 
BRANCH  17  19
ATOM     19  C   UNL     1      47.496   2.867   5.564  0.00  0.00    +0.000 C 
BRANCH  19  20
ATOM     20  N   UNL     1      48.538   1.864   5.360  0.00  0.00    +0.000 NA
ATOM     21  H   UNL     1      48.867   1.548   6.271  0.00  0.00    +0.000 HD
ATOM     22  H   UNL     1      49.335   2.307   4.906  0.00  0.00    +0.000 HD
ENDBRANCH  19  20
ENDBRANCH  17  19
ENDBRANCH  12  13
ENDBRANCH   7  12
TORSDOF 5
ENDMDL
MODEL 2
REMARK VINA RESULT:    -7.104      1.906      2.888
REMARK INTER + INTRA:          -9.355
REMARK INTER:                  -8.654
REMARK INTRA:                  -0.701
REMARK UNBOUND:                -0.383
REMARK  Name = 
REMARK  6 active torsions:
REMARK  status: ('A' for Active; 'I' for Inactive)
REMARK    1  A    between atoms: C_1  and  O_2
REMARK    2  A    between atoms: O_2  and  C_3
REMARK    3  A    between atoms: N_9  and  C_10
REMARK    4  A    between atoms: C_10  and  C_11
REMARK    5  A    between atoms: C_15  and  C_16
REMARK    6  A    between atoms: C_16  and  N_17
REMARK                            x       y       z     vdW  Elec       q    Type
REMARK                         _______ _______ _______ _____ _____    ______ ____
ROOT
ATOM      1  C   UNL     1      47.128   4.456  14.162  0.00  0.00    +0.000 A 
ATOM      2  C   UNL     1      47.809   5.631  14.466  0.00  0.00    +0.000 A 
ATOM      3  C   UNL     1      47.493   6.825  13.808  0.00  0.00    +0.000 A 
ATOM      4  C   UNL     1      46.473   6.843  12.839  0.00  0.00    +0.000 A 
ATOM      5  C   UNL     1      45.929   7.864  12.018  0.00  0.00    +0.000 A 
ATOM      6  C   UNL     1      44.921   7.304  11.271  0.00  0.00    +0.000 A 
ATOM      7  N   UNL     1      44.834   5.969  11.598  0.00  0.00    +0.000 N 
ATOM      8  C   UNL     1      45.794   5.655  12.543  0.00  0.00    +0.000 A 
ATOM      9  C   UNL     1      46.128   4.445  13.177  0.00  0.00    +0.000 A 
ENDROOT
BRANCH   1  11
ATOM     10  C   UNL     1      47.810   3.296  16.104  0.00  0.00    +0.000 C 
ATOM     11  O   UNL     1      47.380   3.240  14.746  0.00  0.00    +0.000 OA
ENDBRANCH   1  11
BRANCH   7  12
ATOM     12  C   UNL     1      43.802   5.078  11.078  0.00  0.00    +0.000 C 
BRANCH  12  13
ATOM     13  C   UNL     1      44.365   4.093  10.085  0.00  0.00    +0.000 A 
ATOM     14  C   UNL     1      44.142   2.720  10.242  0.00  0.00    +0.000 A 
ATOM     15  C   UNL     1      44.737   1.807   9.374  0.00  0.00    +0.000 A 
ATOM     16  C   UNL     1      45.561   2.254   8.341  0.00  0.00    +0.000 A 
ATOM     17  C   UNL     1      45.781   3.625   8.142  0.00  0.00    +0.000 A 
ATOM     18  C   UNL     1      45.172   4.534   9.022  0.00  0.00    +0.000 A 
BRANCH  17  19
ATOM     19  C   UNL     1      46.753   4.084   7.083  0.00  0.00    +0.000 C 
BRANCH  19  20
ATOM     20  N   UNL     1      47.834   3.132   6.841  0.00  0.00    +0.000 NA
ATOM     21  H   UNL     1      48.107   2.718   7.730  0.00  0.00    +0.000 HD
ATOM     22  H   UNL     1      48.647   3.641   6.499  0.00  0.00    +0.000 HD
ENDBRANCH  19  20
ENDBRANCH  17  19
ENDBRANCH  12  13
ENDBRANCH   7  12
TORSDOF 5
ENDMDL
MODEL 3
REMARK VINA RESULT:    -7.037      2.534      5.896
REMARK INTER + INTRA:          -9.271
REMARK INTER:                  -8.768
REMARK INTRA:                  -0.503
REMARK UNBOUND:                -0.383
REMARK  Name = 
REMARK  6 active torsions:
REMARK  status: ('A' for Active; 'I' for Inactive)
REMARK    1  A    between atoms: C_1  and  O_2
REMARK    2  A    between atoms: O_2  and  C_3
REMARK    3  A    between atoms: N_9  and  C_10
REMARK    4  A    between atoms: C_10  and  C_11
REMARK    5  A    between atoms: C_15  and  C_16
REMARK    6  A    between atoms: C_16  and  N_17
REMARK                            x       y       z     vdW  Elec       q    Type
REMARK                         _______ _______ _______ _____ _____    ______ ____
ROOT
ATOM      1  C   UNL     1      45.707   3.688   8.063  0.00  0.00    +0.000 A 
ATOM      2  C   UNL     1      45.490   2.337   8.319  0.00  0.00    +0.000 A 
ATOM      3  C   UNL     1      44.737   1.938   9.430  0.00  0.00    +0.000 A 
ATOM      4  C   UNL     1      44.187   2.906  10.289  0.00  0.00    +0.000 A 
ATOM      5  C   UNL     1      43.398   2.828  11.465  0.00  0.00    +0.000 A 
ATOM      6  C   UNL     1      43.128   4.112  11.871  0.00  0.00    +0.000 A 
ATOM      7  N   UNL     1      43.734   4.978  10.989  0.00  0.00    +0.000 N 
ATOM      8  C   UNL     1      44.411   4.262  10.020  0.00  0.00    +0.000 A 
ATOM      9  C   UNL     1      45.194   4.670   8.924  0.00  0.00    +0.000 A 
ENDROOT
BRANCH   1  11
ATOM     10  C   UNL     1      46.776   3.205   6.012  0.00  0.00    +0.000 C 
ATOM     11  O   UNL     1      46.441   4.168   7.008  0.00  0.00    +0.000 OA
ENDBRANCH   1  11
BRANCH   7  12
ATOM     12  C   UNL     1      43.572   6.428  11.045  0.00  0.00    +0.000 C 
BRANCH  12  13
ATOM     13  C   UNL     1      44.750   7.093  11.712  0.00  0.00    +0.000 A 
ATOM     14  C   UNL     1      44.858   8.489  11.733  0.00  0.00    +0.000 A 
ATOM     15  C   UNL     1      45.990   9.098  12.271  0.00  0.00    +0.000 A 
ATOM     16  C   UNL     1      47.026   8.322  12.791  0.00  0.00    +0.000 A 
ATOM     17  C   UNL     1      46.934   6.923  12.808  0.00  0.00    +0.000 A 
ATOM     18  C   UNL     1      45.786   6.322  12.268  0.00  0.00    +0.000 A 
BRANCH  17  19
ATOM     19  C   UNL     1      48.105   6.098  13.284  0.00  0.00    +0.000 C 
BRANCH  19  20
ATOM     20  N   UNL     1      49.397   6.651  12.889  0.00  0.00    +0.000 NA
ATOM     21  H   UNL     1      50.121   5.964  13.095  0.00  0.00    +0.000 HD
ATOM     22  H   UNL     1      49.598   7.462  13.471  0.00  0.00    +0.000 HD
ENDBRANCH  19  20
ENDBRANCH  17  19
ENDBRANCH  12  13
ENDBRANCH   7  12
TORSDOF 5
ENDMDL
MODEL 4
REMARK VINA RESULT:    -6.665      2.325      2.953
REMARK INTER + INTRA:          -8.800
REMARK INTER:                  -8.219
REMARK INTRA:                  -0.582
REMARK UNBOUND:                -0.383
REMARK  Name = 
REMARK  6 active torsions:
REMARK  status: ('A' for Active; 'I' for Inactive)
REMARK    1  A    between atoms: C_1  and  O_2
REMARK    2  A    between atoms: O_2  and  C_3
REMARK    3  A    between atoms: N_9  and  C_10
REMARK    4  A    between atoms: C_10  and  C_11
REMARK    5  A    between atoms: C_15  and  C_16
REMARK    6  A    between atoms: C_16  and  N_17
REMARK                            x       y       z     vdW  Elec       q    Type
REMARK                         _______ _______ _______ _____ _____    ______ ____
ROOT
ATOM      1  C   UNL     1      45.069   9.282  11.745  0.00  0.00    +0.000 A 
ATOM      2  C   UNL     1      46.119   9.313  12.660  0.00  0.00    +0.000 A 
ATOM      3  C   UNL     1      46.619   8.125  13.206  0.00  0.00    +0.000 A 
ATOM      4  C   UNL     1      46.067   6.889  12.821  0.00  0.00    +0.000 A 
ATOM      5  C   UNL     1      46.344   5.546  13.181  0.00  0.00    +0.000 A 
ATOM      6  C   UNL     1      45.495   4.739  12.463  0.00  0.00    +0.000 A 
ATOM      7  N   UNL     1      44.697   5.543  11.680  0.00  0.00    +0.000 N 
ATOM      8  C   UNL     1      45.013   6.872  11.899  0.00  0.00    +0.000 A 
ATOM      9  C   UNL     1      44.484   8.063  11.371  0.00  0.00    +0.000 A 
ENDROOT
BRANCH   1  11
ATOM     10  C   UNL     1      43.097  10.343  10.995  0.00  0.00    +0.000 C 
ATOM     11  O   UNL     1      44.509  10.396  11.172  0.00  0.00    +0.000 OA
ENDBRANCH   1  11
BRANCH   7  12
ATOM     12  C   UNL     1      43.746   5.026  10.701  0.00  0.00    +0.000 C 
BRANCH  12  13
ATOM     13  C   UNL     1      44.392   4.032   9.770  0.00  0.00    +0.000 A 
ATOM     14  C   UNL     1      44.177   2.658   9.937  0.00  0.00    +0.000 A 
ATOM     15  C   UNL     1      44.844   1.739   9.131  0.00  0.00    +0.000 A 
ATOM     16  C   UNL     1      45.734   2.179   8.150  0.00  0.00    +0.000 A 
ATOM     17  C   UNL     1      45.949   3.549   7.942  0.00  0.00    +0.000 A 
ATOM     18  C   UNL     1      45.266   4.464   8.758  0.00  0.00    +0.000 A 
BRANCH  17  19
ATOM     19  C   UNL     1      46.987   4.003   6.945  0.00  0.00    +0.000 C 
BRANCH  19  20
ATOM     20  N   UNL     1      47.100   3.119   5.788  0.00  0.00    +0.000 NA
ATOM     21  H   UNL     1      47.041   3.683   4.941  0.00  0.00    +0.000 HD
ATOM     22  H   UNL     1      46.296   2.495   5.773  0.00  0.00    +0.000 HD
ENDBRANCH  19  20
ENDBRANCH  17  19
ENDBRANCH  12  13
ENDBRANCH   7  12
TORSDOF 5
ENDMDL
MODEL 5
REMARK VINA RESULT:    -6.311      1.527      2.528
REMARK INTER + INTRA:          -8.354
REMARK INTER:                  -7.781
REMARK INTRA:                  -0.573
REMARK UNBOUND:                -0.383
REMARK  Name = 
REMARK  6 active torsions:
REMARK  status: ('A' for Active; 'I' for Inactive)
REMARK    1  A    between atoms: C_1  and  O_2
REMARK    2  A    between atoms: O_2  and  C_3
REMARK    3  A    between atoms: N_9  and  C_10
REMARK    4  A    between atoms: C_10  and  C_11
REMARK    5  A    between atoms: C_15  and  C_16
REMARK    6  A    between atoms: C_16  and  N_17
REMARK                            x       y       z     vdW  Elec       q    Type
REMARK                         _______ _______ _______ _____ _____    ______ ____
ROOT
ATOM      1  C   UNL     1      48.297   8.115  12.131  0.00  0.00    +0.000 A 
ATOM      2  C   UNL     1      49.035   7.613  13.200  0.00  0.00    +0.000 A 
ATOM      3  C   UNL     1      48.590   6.487  13.903  0.00  0.00    +0.000 A 
ATOM      4  C   UNL     1      47.394   5.850  13.523  0.00  0.00    +0.000 A 
ATOM      5  C   UNL     1      46.694   4.721  14.018  0.00  0.00    +0.000 A 
ATOM      6  C   UNL     1      45.582   4.544  13.231  0.00  0.00    +0.000 A 
ATOM      7  N   UNL     1      45.570   5.533  12.274  0.00  0.00    +0.000 N 
ATOM      8  C   UNL     1      46.662   6.364  12.446  0.00  0.00    +0.000 A 
ATOM      9  C   UNL     1      47.086   7.514  11.756  0.00  0.00    +0.000 A 
ENDROOT
BRANCH   1  11
ATOM     10  C   UNL     1      47.889  10.394  11.661  0.00  0.00    +0.000 C 
ATOM     11  O   UNL     1      48.650   9.218  11.396  0.00  0.00    +0.000 OA
ENDBRANCH   1  11
BRANCH   7  12
ATOM     12  C   UNL     1      44.591   5.597  11.194  0.00  0.00    +0.000 C 
BRANCH  12  13
ATOM     13  C   UNL     1      44.832   4.525  10.161  0.00  0.00    +0.000 A 
ATOM     14  C   UNL     1      44.298   3.242  10.331  0.00  0.00    +0.000 A 
ATOM     15  C   UNL     1      44.596   2.230   9.420  0.00  0.00    +0.000 A 
ATOM     16  C   UNL     1      45.430   2.487   8.331  0.00  0.00    +0.000 A 
ATOM     17  C   UNL     1      45.957   3.770   8.120  0.00  0.00    +0.000 A 
ATOM     18  C   UNL     1      45.645   4.781   9.043  0.00  0.00    +0.000 A 
BRANCH  17  19
ATOM     19  C   UNL     1      46.935   4.004   6.995  0.00  0.00    +0.000 C 
BRANCH  19  20
ATOM     20  N   UNL     1      47.451   2.768   6.413  0.00  0.00    +0.000 NA
ATOM     21  H   UNL     1      47.389   2.030   7.112  0.00  0.00    +0.000 HD
ATOM     22  H   UNL     1      48.442   2.890   6.211  0.00  0.00    +0.000 HD
ENDBRANCH  19  20
ENDBRANCH  17  19
ENDBRANCH  12  13
ENDBRANCH   7  12
TORSDOF 5
ENDMDL
MODEL 6
REMARK VINA RESULT:    -6.065      2.792      5.235
REMARK INTER + INTRA:          -8.043
REMARK INTER:                  -7.437
REMARK INTRA:                  -0.605
REMARK UNBOUND:                -0.383
REMARK  Name = 
REMARK  6 active torsions:
REMARK  status: ('A' for Active; 'I' for Inactive)
REMARK    1  A    between atoms: C_1  and  O_2
REMARK    2  A    between atoms: O_2  and  C_3
REMARK    3  A    between atoms: N_9  and  C_10
REMARK    4  A    between atoms: C_10  and  C_11
REMARK    5  A    between atoms: C_15  and  C_16
REMARK    6  A    between atoms: C_16  and  N_17
REMARK                            x       y       z     vdW  Elec       q    Type
REMARK                         _______ _______ _______ _____ _____    ______ ____
ROOT
ATOM      1  C   UNL     1      45.676  10.101  12.115  0.00  0.00    +0.000 A 
ATOM      2  C   UNL     1      46.834  10.680  11.601  0.00  0.00    +0.000 A 
ATOM      3  C   UNL     1      48.044   9.978  11.616  0.00  0.00    +0.000 A 
ATOM      4  C   UNL     1      48.092   8.674  12.142  0.00  0.00    +0.000 A 
ATOM      5  C   UNL     1      49.135   7.725  12.296  0.00  0.00    +0.000 A 
ATOM      6  C   UNL     1      48.590   6.596  12.857  0.00  0.00    +0.000 A 
ATOM      7  N   UNL     1      47.247   6.822  13.064  0.00  0.00    +0.000 N 
ATOM      8  C   UNL     1      46.921   8.102  12.654  0.00  0.00    +0.000 A 
ATOM      9  C   UNL     1      45.708   8.815  12.672  0.00  0.00    +0.000 A 
ENDROOT
BRANCH   1  11
ATOM     10  C   UNL     1      43.600  10.453  11.044  0.00  0.00    +0.000 C 
ATOM     11  O   UNL     1      44.452  10.721  12.153  0.00  0.00    +0.000 OA
ENDBRANCH   1  11
BRANCH   7  12
ATOM     12  C   UNL     1      46.323   5.802  13.547  0.00  0.00    +0.000 C 
BRANCH  12  13
ATOM     13  C   UNL     1      45.234   5.518  12.544  0.00  0.00    +0.000 A 
ATOM     14  C   UNL     1      43.887   5.618  12.912  0.00  0.00    +0.000 A 
ATOM     15  C   UNL     1      42.884   5.269  12.009  0.00  0.00    +0.000 A 
ATOM     16  C   UNL     1      43.215   4.815  10.732  0.00  0.00    +0.000 A 
ATOM     17  C   UNL     1      44.554   4.730  10.327  0.00  0.00    +0.000 A 
ATOM     18  C   UNL     1      45.554   5.090  11.244  0.00  0.00    +0.000 A 
BRANCH  17  19
ATOM     19  C   UNL     1      44.896   4.144   8.978  0.00  0.00    +0.000 C 
BRANCH  19  20
ATOM     20  N   UNL     1      45.879   4.933   8.240  0.00  0.00    +0.000 NA
ATOM     21  H   UNL     1      46.579   4.301   7.855  0.00  0.00    +0.000 HD
ATOM     22  H   UNL     1      46.369   5.540   8.895  0.00  0.00    +0.000 HD
ENDBRANCH  19  20
ENDBRANCH  17  19
ENDBRANCH  12  13
ENDBRANCH   7  12
TORSDOF 5
ENDMDL
MODEL 7
REMARK VINA RESULT:    -5.719      4.447      8.064
REMARK INTER + INTRA:          -7.606
REMARK INTER:                  -6.944
REMARK INTRA:                  -0.662
REMARK UNBOUND:                -0.383
REMARK  Name = 
REMARK  6 active torsions:
REMARK  status: ('A' for Active; 'I' for Inactive)
REMARK    1  A    between atoms: C_1  and  O_2
REMARK    2  A    between atoms: O_2  and  C_3
REMARK    3  A    between atoms: N_9  and  C_10
REMARK    4  A    between atoms: C_10  and  C_11
REMARK    5  A    between atoms: C_15  and  C_16
REMARK    6  A    between atoms: C_16  and  N_17
REMARK                            x       y       z     vdW  Elec       q    Type
REMARK                         _______ _______ _______ _____ _____    ______ ____
ROOT
ATOM      1  C   UNL     1      45.149   4.765  12.682  0.00  0.00    +0.000 A 
ATOM      2  C   UNL     1      44.300   5.652  12.025  0.00  0.00    +0.000 A 
ATOM      3  C   UNL     1      44.591   7.021  11.995  0.00  0.00    +0.000 A 
ATOM      4  C   UNL     1      45.753   7.505  12.623  0.00  0.00    +0.000 A 
ATOM      5  C   UNL     1      46.314   8.800  12.766  0.00  0.00    +0.000 A 
ATOM      6  C   UNL     1      47.489   8.669  13.464  0.00  0.00    +0.000 A 
ATOM      7  N   UNL     1      47.666   7.337  13.764  0.00  0.00    +0.000 N 
ATOM      8  C   UNL     1      46.600   6.603  13.278  0.00  0.00    +0.000 A 
ATOM      9  C   UNL     1      46.297   5.230  13.340  0.00  0.00    +0.000 A 
ENDROOT
BRANCH   1  11
ATOM     10  C   UNL     1      43.702   2.954  12.227  0.00  0.00    +0.000 C 
ATOM     11  O   UNL     1      44.936   3.412  12.772  0.00  0.00    +0.000 OA
ENDBRANCH   1  11
BRANCH   7  12
ATOM     12  C   UNL     1      48.864   6.809  14.409  0.00  0.00    +0.000 C 
BRANCH  12  13
ATOM     13  C   UNL     1      48.628   6.520  15.870  0.00  0.00    +0.000 A 
ATOM     14  C   UNL     1      48.779   7.531  16.826  0.00  0.00    +0.000 A 
ATOM     15  C   UNL     1      48.647   7.241  18.183  0.00  0.00    +0.000 A 
ATOM     16  C   UNL     1      48.366   5.939  18.599  0.00  0.00    +0.000 A 
ATOM     17  C   UNL     1      48.182   4.911  17.663  0.00  0.00    +0.000 A 
ATOM     18  C   UNL     1      48.312   5.219  16.299  0.00  0.00    +0.000 A 
BRANCH  17  19
ATOM     19  C   UNL     1      47.976   3.493  18.134  0.00  0.00    +0.000 C 
BRANCH  19  20
ATOM     20  N   UNL     1      46.699   2.925  17.710  0.00  0.00    +0.000 NA
ATOM     21  H   UNL     1      46.722   2.793  16.700  0.00  0.00    +0.000 HD
ATOM     22  H   UNL     1      45.962   3.603  17.894  0.00  0.00    +0.000 HD
ENDBRANCH  19  20
ENDBRANCH  17  19
ENDBRANCH  12  13
ENDBRANCH   7  12
TORSDOF 5
ENDMDL
MODEL 8
REMARK VINA RESULT:    -5.637      4.074      6.687
REMARK INTER + INTRA:          -7.503
REMARK INTER:                  -6.793
REMARK INTRA:                  -0.709
REMARK UNBOUND:                -0.383
REMARK  Name = 
REMARK  6 active torsions:
REMARK  status: ('A' for Active; 'I' for Inactive)
REMARK    1  A    between atoms: C_1  and  O_2
REMARK    2  A    between atoms: O_2  and  C_3
REMARK    3  A    between atoms: N_9  and  C_10
REMARK    4  A    between atoms: C_10  and  C_11
REMARK    5  A    between atoms: C_15  and  C_16
REMARK    6  A    between atoms: C_16  and  N_17
REMARK                            x       y       z     vdW  Elec       q    Type
REMARK                         _______ _______ _______ _____ _____    ______ ____
ROOT
ATOM      1  C   UNL     1      46.691   3.870  13.710  0.00  0.00    +0.000 A 
ATOM      2  C   UNL     1      45.912   3.232  12.749  0.00  0.00    +0.000 A 
ATOM      3  C   UNL     1      45.127   3.978  11.863  0.00  0.00    +0.000 A 
ATOM      4  C   UNL     1      45.133   5.384  11.934  0.00  0.00    +0.000 A 
ATOM      5  C   UNL     1      44.468   6.397  11.198  0.00  0.00    +0.000 A 
ATOM      6  C   UNL     1      44.878   7.610  11.696  0.00  0.00    +0.000 A 
ATOM      7  N   UNL     1      45.767   7.375  12.722  0.00  0.00    +0.000 N 
ATOM      8  C   UNL     1      45.923   6.013  12.903  0.00  0.00    +0.000 A 
ATOM      9  C   UNL     1      46.688   5.268  13.819  0.00  0.00    +0.000 A 
ENDROOT
BRANCH   1  11
ATOM     10  C   UNL     1      47.504   3.798  15.927  0.00  0.00    +0.000 C 
ATOM     11  O   UNL     1      47.479   3.218  14.626  0.00  0.00    +0.000 OA
ENDBRANCH   1  11
BRANCH   7  12
ATOM     12  C   UNL     1      46.492   8.434  13.416  0.00  0.00    +0.000 C 
BRANCH  12  13
ATOM     13  C   UNL     1      47.966   8.398  13.100  0.00  0.00    +0.000 A 
ATOM     14  C   UNL     1      48.410   8.478  11.775  0.00  0.00    +0.000 A 
ATOM     15  C   UNL     1      49.766   8.356  11.479  0.00  0.00    +0.000 A 
ATOM     16  C   UNL     1      50.693   8.150  12.502  0.00  0.00    +0.000 A 
ATOM     17  C   UNL     1      50.281   8.091  13.841  0.00  0.00    +0.000 A 
ATOM     18  C   UNL     1      48.912   8.222  14.125  0.00  0.00    +0.000 A 
BRANCH  17  19
ATOM     19  C   UNL     1      51.283   7.770  14.922  0.00  0.00    +0.000 C 
BRANCH  19  20
ATOM     20  N   UNL     1      50.917   6.602  15.719  0.00  0.00    +0.000 NA
ATOM     21  H   UNL     1      50.855   6.883  16.696  0.00  0.00    +0.000 HD
ATOM     22  H   UNL     1      51.670   5.919  15.664  0.00  0.00    +0.000 HD
ENDBRANCH  19  20
ENDBRANCH  17  19
ENDBRANCH  12  13
ENDBRANCH   7  12
TORSDOF 5
ENDMDL
MODEL 9
REMARK VINA RESULT:    -5.569      1.897      3.039
REMARK INTER + INTRA:          -7.417
REMARK INTER:                  -7.008
REMARK INTRA:                  -0.408
REMARK UNBOUND:                -0.383
REMARK  Name = 
REMARK  6 active torsions:
REMARK  status: ('A' for Active; 'I' for Inactive)
REMARK    1  A    between atoms: C_1  and  O_2
REMARK    2  A    between atoms: O_2  and  C_3
REMARK    3  A    between atoms: N_9  and  C_10
REMARK    4  A    between atoms: C_10  and  C_11
REMARK    5  A    between atoms: C_15  and  C_16
REMARK    6  A    between atoms: C_16  and  N_17
REMARK                            x       y       z     vdW  Elec       q    Type
REMARK                         _______ _______ _______ _____ _____    ______ ____
ROOT
ATOM      1  C   UNL     1      48.270   7.276  13.746  0.00  0.00    +0.000 A 
ATOM      2  C   UNL     1      48.122   8.640  13.509  0.00  0.00    +0.000 A 
ATOM      3  C   UNL     1      47.015   9.121  12.801  0.00  0.00    +0.000 A 
ATOM      4  C   UNL     1      46.037   8.222  12.334  0.00  0.00    +0.000 A 
ATOM      5  C   UNL     1      44.832   8.390  11.606  0.00  0.00    +0.000 A 
ATOM      6  C   UNL     1      44.265   7.148  11.450  0.00  0.00    +0.000 A 
ATOM      7  N   UNL     1      45.088   6.221  12.049  0.00  0.00    +0.000 N 
ATOM      8  C   UNL     1      46.197   6.853  12.580  0.00  0.00    +0.000 A 
ATOM      9  C   UNL     1      47.324   6.360  13.262  0.00  0.00    +0.000 A 
ENDROOT
BRANCH   1  11
ATOM     10  C   UNL     1      50.421   7.596  14.671  0.00  0.00    +0.000 C 
ATOM     11  O   UNL     1      49.328   6.717  14.418  0.00  0.00    +0.000 OA
ENDBRANCH   1  11
BRANCH   7  12
ATOM     12  C   UNL     1      44.751   4.807  12.174  0.00  0.00    +0.000 C 
BRANCH  12  13
ATOM     13  C   UNL     1      44.804   4.102  10.842  0.00  0.00    +0.000 A 
ATOM     14  C   UNL     1      44.152   2.876  10.661  0.00  0.00    +0.000 A 
ATOM     15  C   UNL     1      44.276   2.185   9.458  0.00  0.00    +0.000 A 
ATOM     16  C   UNL     1      45.053   2.709   8.423  0.00  0.00    +0.000 A 
ATOM     17  C   UNL     1      45.695   3.947   8.566  0.00  0.00    +0.000 A 
ATOM     18  C   UNL     1      45.557   4.635   9.782  0.00  0.00    +0.000 A 
BRANCH  17  19
ATOM     19  C   UNL     1      46.609   4.450   7.475  0.00  0.00    +0.000 C 
BRANCH  19  20
ATOM     20  N   UNL     1      47.121   3.385   6.617  0.00  0.00    +0.000 NA
ATOM     21  H   UNL     1      46.332   2.906   6.187  0.00  0.00    +0.000 HD
ATOM     22  H   UNL     1      47.593   2.695   7.199  0.00  0.00    +0.000 HD
ENDBRANCH  19  20
ENDBRANCH  17  19
ENDBRANCH  12  13
ENDBRANCH   7  12
TORSDOF 5
ENDMDL
