MODEL 1
REMARK VINA RESULT:    -6.715      0.000      0.000
REMARK INTER + INTRA:          -9.651
REMARK INTER:                  -8.874
REMARK INTRA:                  -0.777
REMARK UNBOUND:                -0.777
REMARK  Name = 
REMARK  6 active torsions:
REMARK  status: ('A' for Active; 'I' for Inactive)
REMARK    1  A    between atoms: N_1  and  C_2
REMARK    2  A    between atoms: C_2  and  C_3
REMARK    3  A    between atoms: C_3  and  C_4
REMARK    4  A    between atoms: C_4  and  C_5
REMARK    5  A    between atoms: N_7  and  C_8
REMARK    6  A    between atoms: C_8  and  C_9
REMARK                            x       y       z     vdW  Elec       q    Type
REMARK                         _______ _______ _______ _____ _____    ______ ____
ROOT
ATOM      1  C   UNL     1      45.982   6.023  11.094  0.00  0.00    +0.000 A 
ATOM      2  C   UNL     1      46.000   5.718   9.748  0.00  0.00    +0.000 A 
ATOM      3  N   UNL     1      45.147   4.666   9.528  0.00  0.00    +0.000 N 
ATOM      4  C   UNL     1      44.597   4.241  10.720  0.00  0.00    +0.000 A 
ATOM      5  C   UNL     1      43.692   3.206  11.010  0.00  0.00    +0.000 A 
ATOM      6  C   UNL     1      43.311   3.014  12.341  0.00  0.00    +0.000 A 
ATOM      7  C   UNL     1      43.808   3.828  13.352  0.00  0.00    +0.000 A 
ATOM      8  C   UNL     1      44.696   4.865  13.052  0.00  0.00    +0.000 A 
ATOM      9  C   UNL     1      45.105   5.079  11.719  0.00  0.00    +0.000 A 
ENDROOT
BRANCH   1  10
ATOM     10  C   UNL     1      46.729   7.139  11.754  0.00  0.00    +0.000 C 
BRANCH  10  11
ATOM     11  C   UNL     1      47.982   6.658  12.487  0.00  0.00    +0.000 C 
BRANCH  11  12
ATOM     12  C   UNL     1      47.869   6.898  13.989  0.00  0.00    +0.000 C 
BRANCH  12  13
ATOM     13  N   UNL     1      47.775   5.624  14.694  0.00  0.00    +0.000 NA
ATOM     14  H   UNL     1      48.402   5.630  15.496  0.00  0.00    +0.000 HD
ATOM     15  H   UNL     1      48.089   4.870  14.085  0.00  0.00    +0.000 HD
ENDBRANCH  12  13
ENDBRANCH  11  12
ENDBRANCH  10  11
ENDBRANCH   1  10
BRANCH   3  16
ATOM     16  C   UNL     1      44.872   4.099   8.213  0.00  0.00    +0.000 C 
BRANCH  16  17
ATOM     17  C   UNL     1      45.859   3.031   7.867  0.00  0.00    +0.000 A 
ATOM     18  C   UNL     1      46.958   3.261   7.060  0.00  0.00    +0.000 A 
ATOM     19  N   UNL     1      47.849   2.311   6.711  0.00  0.00    +0.000 NA
ATOM     20  C   UNL     1      47.607   1.084   7.194  0.00  0.00    +0.000 A 
ATOM     21  N   UNL     1      46.591   0.740   8.000  0.00  0.00    +0.000 NA
ATOM     22  C   UNL     1      45.736   1.732   8.318  0.00  0.00    +0.000 A 
ENDBRANCH  16  17
ENDBRANCH   3  16
TORSDOF 6
ENDMDL
MODEL 2
REMARK VINA RESULT:    -6.690      2.164      3.359
REMARK INTER + INTRA:          -9.618
REMARK INTER:                  -9.111
REMARK INTRA:                  -0.507
REMARK UNBOUND:                -0.777
REMARK  Name = 
REMARK  6 active torsions:
REMARK  status: ('A' for Active; 'I' for Inactive)
REMARK    1  A    between atoms: N_1  and  C_2
REMARK    2  A    between atoms: C_2  and  C_3
REMARK    3  A    between atoms: C_3  and  C_4
REMARK    4  A    between atoms: C_4  and  C_5
REMARK    5  A    between atoms: N_7  and  C_8
REMARK    6  A    between atoms: C_8  and  C_9
REMARK                            x       y       z     vdW  Elec       q    Type
REMARK                         _______ _______ _______ _____ _____    ______ ____
ROOT
ATOM      1  C   UNL     1      46.451   4.116  13.355  0.00  0.00    +0.000 A 
ATOM      2  C   UNL     1      45.688   3.335  12.510  0.00  0.00    +0.000 A 
ATOM      3  N   UNL     1      45.049   4.156  11.616  0.00  0.00    +0.000 N 
ATOM      4  C   UNL     1      45.346   5.477  11.886  0.00  0.00    +0.000 A 
ATOM      5  C   UNL     1      44.930   6.668  11.267  0.00  0.00    +0.000 A 
ATOM      6  C   UNL     1      45.410   7.878  11.775  0.00  0.00    +0.000 A 
ATOM      7  C   UNL     1      46.279   7.905  12.860  0.00  0.00    +0.000 A 
ATOM      8  C   UNL     1      46.699   6.714  13.459  0.00  0.00    +0.000 A 
ATOM      9  C   UNL     1      46.227   5.477  12.973  0.00  0.00    +0.000 A 
ENDROOT
BRANCH   1  10
ATOM     10  C   UNL     1      47.349   3.617  14.444  0.00  0.00    +0.000 C 
BRANCH  10  11
ATOM     11  C   UNL     1      47.068   4.284  15.791  0.00  0.00    +0.000 C 
BRANCH  11  12
ATOM     12  C   UNL     1      47.660   3.475  16.941  0.00  0.00    +0.000 C 
BRANCH  12  13
ATOM     13  N   UNL     1      46.592   2.861  17.722  0.00  0.00    +0.000 NA
ATOM     14  H   UNL     1      46.384   3.443  18.533  0.00  0.00    +0.000 HD
ATOM     15  H   UNL     1      46.903   1.960  18.084  0.00  0.00    +0.000 HD
ENDBRANCH  12  13
ENDBRANCH  11  12
ENDBRANCH  10  11
ENDBRANCH   1  10
BRANCH   3  16
ATOM     16  C   UNL     1      44.189   3.679  10.540  0.00  0.00    +0.000 C 
BRANCH  16  17
ATOM     17  C   UNL     1      44.987   3.329   9.325  0.00  0.00    +0.000 A 
ATOM     18  C   UNL     1      45.391   2.037   9.043  0.00  0.00    +0.000 A 
ATOM     19  N   UNL     1      46.132   1.698   7.969  0.00  0.00    +0.000 NA
ATOM     20  C   UNL     1      46.480   2.710   7.161  0.00  0.00    +0.000 A 
ATOM     21  N   UNL     1      46.133   3.997   7.316  0.00  0.00    +0.000 NA
ATOM     22  C   UNL     1      45.389   4.275   8.404  0.00  0.00    +0.000 A 
ENDBRANCH  16  17
ENDBRANCH   3  16
TORSDOF 6
ENDMDL
MODEL 3
REMARK VINA RESULT:    -6.273      1.295      5.574
REMARK INTER + INTRA:          -9.066
REMARK INTER:                  -8.438
REMARK INTRA:                  -0.628
REMARK UNBOUND:                -0.777
REMARK  Name = 
REMARK  6 active torsions:
REMARK  status: ('A' for Active; 'I' for Inactive)
REMARK    1  A    between atoms: N_1  and  C_2
REMARK    2  A    between atoms: C_2  and  C_3
REMARK    3  A    between atoms: C_3  and  C_4
REMARK    4  A    between atoms: C_4  and  C_5
REMARK    5  A    between atoms: N_7  and  C_8
REMARK    6  A    between atoms: C_8  and  C_9
REMARK                            x       y       z     vdW  Elec       q    Type
REMARK                         _______ _______ _______ _____ _____    ______ ____
ROOT
ATOM      1  C   UNL     1      45.264   4.285   9.100  0.00  0.00    +0.000 A 
ATOM      2  C   UNL     1      45.675   5.570   9.395  0.00  0.00    +0.000 A 
ATOM      3  N   UNL     1      45.341   5.846  10.697  0.00  0.00    +0.000 N 
ATOM      4  C   UNL     1      44.673   4.775  11.255  0.00  0.00    +0.000 A 
ATOM      5  C   UNL     1      44.127   4.585  12.536  0.00  0.00    +0.000 A 
ATOM      6  C   UNL     1      43.499   3.368  12.812  0.00  0.00    +0.000 A 
ATOM      7  C   UNL     1      43.420   2.368  11.849  0.00  0.00    +0.000 A 
ATOM      8  C   UNL     1      43.980   2.560  10.583  0.00  0.00    +0.000 A 
ATOM      9  C   UNL     1      44.614   3.781  10.272  0.00  0.00    +0.000 A 
ENDROOT
BRANCH   1  10
ATOM     10  C   UNL     1      45.480   3.568   7.805  0.00  0.00    +0.000 C 
BRANCH  10  11
ATOM     11  C   UNL     1      46.915   3.691   7.293  0.00  0.00    +0.000 C 
BRANCH  11  12
ATOM     12  C   UNL     1      47.524   2.320   7.017  0.00  0.00    +0.000 C 
BRANCH  12  13
ATOM     13  N   UNL     1      48.656   2.449   6.107  0.00  0.00    +0.000 NA
ATOM     14  H   UNL     1      48.478   1.908   5.262  0.00  0.00    +0.000 HD
ATOM     15  H   UNL     1      49.490   2.051   6.536  0.00  0.00    +0.000 HD
ENDBRANCH  12  13
ENDBRANCH  11  12
ENDBRANCH  10  11
ENDBRANCH   1  10
BRANCH   3  16
ATOM     16  C   UNL     1      45.661   7.098  11.374  0.00  0.00    +0.000 C 
BRANCH  16  17
ATOM     17  C   UNL     1      47.020   7.045  11.993  0.00  0.00    +0.000 A 
ATOM     18  C   UNL     1      47.284   6.353  13.160  0.00  0.00    +0.000 A 
ATOM     19  N   UNL     1      48.493   6.310  13.754  0.00  0.00    +0.000 NA
ATOM     20  C   UNL     1      49.465   7.003  13.142  0.00  0.00    +0.000 A 
ATOM     21  N   UNL     1      49.339   7.694  11.999  0.00  0.00    +0.000 NA
ATOM     22  C   UNL     1      48.109   7.697  11.449  0.00  0.00    +0.000 A 
ENDBRANCH  16  17
ENDBRANCH   3  16
TORSDOF 6
ENDMDL
MODEL 4
REMARK VINA RESULT:    -6.225      2.262      4.121
REMARK INTER + INTRA:          -9.003
REMARK INTER:                  -8.422
REMARK INTRA:                  -0.581
REMARK UNBOUND:                -0.777
REMARK  Name = 
REMARK  6 active torsions:
REMARK  status: ('A' for Active; 'I' for Inactive)
REMARK    1  A    between atoms: N_1  and  C_2
REMARK    2  A    between atoms: C_2  and  C_3
REMARK    3  A    between atoms: C_3  and  C_4
REMARK    4  A    between atoms: C_4  and  C_5
REMARK    5  A    between atoms: N_7  and  C_8
REMARK    6  A    between atoms: C_8  and  C_9
REMARK                            x       y       z     vdW  Elec       q    Type
REMARK                         _______ _______ _______ _____ _____    ______ ____
ROOT
ATOM      1  C   UNL     1      46.816   4.638  13.996  0.00  0.00    +0.000 A 
ATOM      2  C   UNL     1      45.676   4.399  13.255  0.00  0.00    +0.000 A 
ATOM      3  N   UNL     1      45.569   5.373  12.295  0.00  0.00    +0.000 N 
ATOM      4  C   UNL     1      46.601   6.281  12.420  0.00  0.00    +0.000 A 
ATOM      5  C   UNL     1      46.912   7.441  11.690  0.00  0.00    +0.000 A 
ATOM      6  C   UNL     1      48.046   8.169  12.059  0.00  0.00    +0.000 A 
ATOM      7  C   UNL     1      48.851   7.756  13.115  0.00  0.00    +0.000 A 
ATOM      8  C   UNL     1      48.542   6.592  13.824  0.00  0.00    +0.000 A 
ATOM      9  C   UNL     1      47.400   5.840  13.480  0.00  0.00    +0.000 A 
ENDROOT
BRANCH   1  10
ATOM     10  C   UNL     1      47.337   3.786  15.111  0.00  0.00    +0.000 C 
BRANCH  10  11
ATOM     11  C   UNL     1      47.420   4.537  16.440  0.00  0.00    +0.000 C 
BRANCH  11  12
ATOM     12  C   UNL     1      47.733   3.588  17.593  0.00  0.00    +0.000 C 
BRANCH  12  13
ATOM     13  N   UNL     1      46.612   2.679  17.810  0.00  0.00    +0.000 NA
ATOM     14  H   UNL     1      46.675   2.278  18.744  0.00  0.00    +0.000 HD
ATOM     15  H   UNL     1      46.668   1.900  17.155  0.00  0.00    +0.000 HD
ENDBRANCH  12  13
ENDBRANCH  11  12
ENDBRANCH  10  11
ENDBRANCH   1  10
BRANCH   3  16
ATOM     16  C   UNL     1      44.510   5.419  11.294  0.00  0.00    +0.000 C 
BRANCH  16  17
ATOM     17  C   UNL     1      44.865   4.602  10.094  0.00  0.00    +0.000 A 
ATOM     18  C   UNL     1      45.682   5.073   9.083  0.00  0.00    +0.000 A 
ATOM     19  N   UNL     1      45.997   4.368   7.979  0.00  0.00    +0.000 NA
ATOM     20  C   UNL     1      45.455   3.144   7.897  0.00  0.00    +0.000 A 
ATOM     21  N   UNL     1      44.667   2.568   8.819  0.00  0.00    +0.000 NA
ATOM     22  C   UNL     1      44.390   3.319   9.902  0.00  0.00    +0.000 A 
ENDBRANCH  16  17
ENDBRANCH   3  16
TORSDOF 6
ENDMDL
MODEL 5
REMARK VINA RESULT:    -6.141      2.388      3.173
REMARK INTER + INTRA:          -8.892
REMARK INTER:                  -8.314
REMARK INTRA:                  -0.578
REMARK UNBOUND:                -0.777
REMARK  Name = 
REMARK  6 active torsions:
REMARK  status: ('A' for Active; 'I' for Inactive)
REMARK    1  A    between atoms: N_1  and  C_2
REMARK    2  A    between atoms: C_2  and  C_3
REMARK    3  A    between atoms: C_3  and  C_4
REMARK    4  A    between atoms: C_4  and  C_5
REMARK    5  A    between atoms: N_7  and  C_8
REMARK    6  A    between atoms: C_8  and  C_9
REMARK                            x       y       z     vdW  Elec       q    Type
REMARK                         _______ _______ _______ _____ _____    ______ ____
ROOT
ATOM      1  C   UNL     1      45.329   7.093  12.359  0.00  0.00    +0.000 A 
ATOM      2  C   UNL     1      44.544   6.659  11.309  0.00  0.00    +0.000 A 
ATOM      3  N   UNL     1      44.592   5.288  11.267  0.00  0.00    +0.000 N 
ATOM      4  C   UNL     1      45.435   4.811  12.251  0.00  0.00    +0.000 A 
ATOM      5  C   UNL     1      45.814   3.502  12.594  0.00  0.00    +0.000 A 
ATOM      6  C   UNL     1      46.702   3.330  13.660  0.00  0.00    +0.000 A 
ATOM      7  C   UNL     1      47.194   4.422  14.365  0.00  0.00    +0.000 A 
ATOM      8  C   UNL     1      46.799   5.719  14.026  0.00  0.00    +0.000 A 
ATOM      9  C   UNL     1      45.909   5.925  12.951  0.00  0.00    +0.000 A 
ENDROOT
BRANCH   1  10
ATOM     10  C   UNL     1      45.514   8.513  12.791  0.00  0.00    +0.000 C 
BRANCH  10  11
ATOM     11  C   UNL     1      45.721   9.467  11.614  0.00  0.00    +0.000 C 
BRANCH  11  12
ATOM     12  C   UNL     1      44.934  10.759  11.804  0.00  0.00    +0.000 C 
BRANCH  12  13
ATOM     13  N   UNL     1      43.544  10.455  12.125  0.00  0.00    +0.000 NA
ATOM     14  H   UNL     1      43.458  10.260  13.121  0.00  0.00    +0.000 HD
ATOM     15  H   UNL     1      43.255   9.607  11.638  0.00  0.00    +0.000 HD
ENDBRANCH  12  13
ENDBRANCH  11  12
ENDBRANCH  10  11
ENDBRANCH   1  10
BRANCH   3  16
ATOM     16  C   UNL     1      43.845   4.474  10.316  0.00  0.00    +0.000 C 
BRANCH  16  17
ATOM     17  C   UNL     1      44.760   3.799   9.346  0.00  0.00    +0.000 A 
ATOM     18  C   UNL     1      44.914   2.426   9.295  0.00  0.00    +0.000 A 
ATOM     19  N   UNL     1      45.751   1.793   8.449  0.00  0.00    +0.000 NA
ATOM     20  C   UNL     1      46.460   2.586   7.634  0.00  0.00    +0.000 A 
ATOM     21  N   UNL     1      46.384   3.924   7.573  0.00  0.00    +0.000 NA
ATOM     22  C   UNL     1      45.529   4.501   8.439  0.00  0.00    +0.000 A 
ENDBRANCH  16  17
ENDBRANCH   3  16
TORSDOF 6
ENDMDL
MODEL 6
REMARK VINA RESULT:    -5.877      2.069      2.570
REMARK INTER + INTRA:          -8.544
REMARK INTER:                  -7.930
REMARK INTRA:                  -0.614
REMARK UNBOUND:                -0.777
REMARK  Name = 
REMARK  6 active torsions:
REMARK  status: ('A' for Active; 'I' for Inactive)
REMARK    1  A    between atoms: N_1  and  C_2
REMARK    2  A    between atoms: C_2  and  C_3
REMARK    3  A    between atoms: C_3  and  C_4
REMARK    4  A    between atoms: C_4  and  C_5
REMARK    5  A    between atoms: N_7  and  C_8
REMARK    6  A    between atoms: C_8  and  C_9
REMARK                            x       y       z     vdW  Elec       q    Type
REMARK                         _______ _______ _______ _____ _____    ______ ____
ROOT
ATOM      1  C   UNL     1      45.306   7.060  12.353  0.00  0.00    +0.000 A 
ATOM      2  C   UNL     1      44.528   6.598  11.310  0.00  0.00    +0.000 A 
ATOM      3  N   UNL     1      44.588   5.227  11.296  0.00  0.00    +0.000 N 
ATOM      4  C   UNL     1      45.432   4.777  12.291  0.00  0.00    +0.000 A 
ATOM      5  C   UNL     1      45.822   3.479  12.662  0.00  0.00    +0.000 A 
ATOM      6  C   UNL     1      46.708   3.336  13.733  0.00  0.00    +0.000 A 
ATOM      7  C   UNL     1      47.187   4.446  14.419  0.00  0.00    +0.000 A 
ATOM      8  C   UNL     1      46.782   5.733  14.052  0.00  0.00    +0.000 A 
ATOM      9  C   UNL     1      45.894   5.909  12.970  0.00  0.00    +0.000 A 
ENDROOT
BRANCH   1  10
ATOM     10  C   UNL     1      45.476   8.490  12.758  0.00  0.00    +0.000 C 
BRANCH  10  11
ATOM     11  C   UNL     1      46.815   9.077  12.306  0.00  0.00    +0.000 C 
BRANCH  11  12
ATOM     12  C   UNL     1      47.751   9.294  13.490  0.00  0.00    +0.000 C 
BRANCH  12  13
ATOM     13  N   UNL     1      48.164  10.692  13.550  0.00  0.00    +0.000 NA
ATOM     14  H   UNL     1      49.174  10.754  13.436  0.00  0.00    +0.000 HD
ATOM     15  H   UNL     1      47.952  11.075  14.470  0.00  0.00    +0.000 HD
ENDBRANCH  12  13
ENDBRANCH  11  12
ENDBRANCH  10  11
ENDBRANCH   1  10
BRANCH   3  16
ATOM     16  C   UNL     1      43.852   4.388  10.358  0.00  0.00    +0.000 C 
BRANCH  16  17
ATOM     17  C   UNL     1      44.770   3.751   9.365  0.00  0.00    +0.000 A 
ATOM     18  C   UNL     1      45.442   4.474   8.397  0.00  0.00    +0.000 A 
ATOM     19  N   UNL     1      46.255   3.922   7.475  0.00  0.00    +0.000 NA
ATOM     20  C   UNL     1      46.381   2.589   7.535  0.00  0.00    +0.000 A 
ATOM     21  N   UNL     1      45.800   1.782   8.436  0.00  0.00    +0.000 NA
ATOM     22  C   UNL     1      45.002   2.390   9.336  0.00  0.00    +0.000 A 
ENDBRANCH  16  17
ENDBRANCH   3  16
TORSDOF 6
ENDMDL
MODEL 7
REMARK VINA RESULT:    -5.701      3.287      5.658
REMARK INTER + INTRA:          -8.310
REMARK INTER:                  -7.668
REMARK INTRA:                  -0.642
REMARK UNBOUND:                -0.777
REMARK  Name = 
REMARK  6 active torsions:
REMARK  status: ('A' for Active; 'I' for Inactive)
REMARK    1  A    between atoms: N_1  and  C_2
REMARK    2  A    between atoms: C_2  and  C_3
REMARK    3  A    between atoms: C_3  and  C_4
REMARK    4  A    between atoms: C_4  and  C_5
REMARK    5  A    between atoms: N_7  and  C_8
REMARK    6  A    between atoms: C_8  and  C_9
REMARK                            x       y       z     vdW  Elec       q    Type
REMARK                         _______ _______ _______ _____ _____    ______ ____
ROOT
ATOM      1  C   UNL     1      47.622   4.805  15.561  0.00  0.00    +0.000 A 
ATOM      2  C   UNL     1      46.865   3.892  14.853  0.00  0.00    +0.000 A 
ATOM      3  N   UNL     1      46.717   4.352  13.569  0.00  0.00    +0.000 N 
ATOM      4  C   UNL     1      47.332   5.580  13.429  0.00  0.00    +0.000 A 
ATOM      5  C   UNL     1      47.442   6.443  12.325  0.00  0.00    +0.000 A 
ATOM      6  C   UNL     1      48.140   7.642  12.492  0.00  0.00    +0.000 A 
ATOM      7  C   UNL     1      48.714   7.972  13.715  0.00  0.00    +0.000 A 
ATOM      8  C   UNL     1      48.612   7.100  14.802  0.00  0.00    +0.000 A 
ATOM      9  C   UNL     1      47.908   5.885  14.666  0.00  0.00    +0.000 A 
ENDROOT
BRANCH   1  10
ATOM     10  C   UNL     1      48.062   4.667  16.984  0.00  0.00    +0.000 C 
BRANCH  10  11
ATOM     11  C   UNL     1      48.169   3.208  17.431  0.00  0.00    +0.000 C 
BRANCH  11  12
ATOM     12  C   UNL     1      49.574   2.661  17.201  0.00  0.00    +0.000 C 
BRANCH  12  13
ATOM     13  N   UNL     1      49.573   1.741  16.069  0.00  0.00    +0.000 NA
ATOM     14  H   UNL     1      49.500   0.783  16.408  0.00  0.00    +0.000 HD
ATOM     15  H   UNL     1      50.460   1.806  15.571  0.00  0.00    +0.000 HD
ENDBRANCH  12  13
ENDBRANCH  11  12
ENDBRANCH  10  11
ENDBRANCH   1  10
BRANCH   3  16
ATOM     16  C   UNL     1      46.014   3.625  12.518  0.00  0.00    +0.000 C 
BRANCH  16  17
ATOM     17  C   UNL     1      44.692   4.254  12.217  0.00  0.00    +0.000 A 
ATOM     18  C   UNL     1      44.310   4.616  10.938  0.00  0.00    +0.000 A 
ATOM     19  N   UNL     1      43.135   5.207  10.643  0.00  0.00    +0.000 NA
ATOM     20  C   UNL     1      42.327   5.446  11.686  0.00  0.00    +0.000 A 
ATOM     21  N   UNL     1      42.575   5.124  12.965  0.00  0.00    +0.000 NA
ATOM     22  C   UNL     1      43.762   4.532  13.199  0.00  0.00    +0.000 A 
ENDBRANCH  16  17
ENDBRANCH   3  16
TORSDOF 6
ENDMDL
MODEL 8
REMARK VINA RESULT:    -5.695      3.264      7.337
REMARK INTER + INTRA:          -8.302
REMARK INTER:                  -7.733
REMARK INTRA:                  -0.569
REMARK UNBOUND:                -0.777
REMARK  Name = 
REMARK  6 active torsions:
REMARK  status: ('A' for Active; 'I' for Inactive)
REMARK    1  A    between atoms: N_1  and  C_2
REMARK    2  A    between atoms: C_2  and  C_3
REMARK    3  A    between atoms: C_3  and  C_4
REMARK    4  A    between atoms: C_4  and  C_5
REMARK    5  A    between atoms: N_7  and  C_8
REMARK    6  A    between atoms: C_8  and  C_9
REMARK                            x       y       z     vdW  Elec       q    Type
REMARK                         _______ _______ _______ _____ _____    ______ ____
ROOT
ATOM      1  C   UNL     1      46.490   5.121  13.197  0.00  0.00    +0.000 A 
ATOM      2  C   UNL     1      46.412   4.499  14.427  0.00  0.00    +0.000 A 
ATOM      3  N   UNL     1      47.341   5.067  15.262  0.00  0.00    +0.000 N 
ATOM      4  C   UNL     1      48.064   6.029  14.586  0.00  0.00    +0.000 A 
ATOM      5  C   UNL     1      49.116   6.863  15.001  0.00  0.00    +0.000 A 
ATOM      6  C   UNL     1      49.658   7.755  14.071  0.00  0.00    +0.000 A 
ATOM      7  C   UNL     1      49.167   7.822  12.772  0.00  0.00    +0.000 A 
ATOM      8  C   UNL     1      48.110   6.999  12.374  0.00  0.00    +0.000 A 
ATOM      9  C   UNL     1      47.547   6.083  13.287  0.00  0.00    +0.000 A 
ENDROOT
BRANCH   1  10
ATOM     10  C   UNL     1      45.618   4.843  12.013  0.00  0.00    +0.000 C 
BRANCH  10  11
ATOM     11  C   UNL     1      45.118   3.398  11.975  0.00  0.00    +0.000 C 
BRANCH  11  12
ATOM     12  C   UNL     1      43.844   3.277  11.144  0.00  0.00    +0.000 C 
BRANCH  12  13
ATOM     13  N   UNL     1      43.028   2.175  11.640  0.00  0.00    +0.000 NA
ATOM     14  H   UNL     1      43.541   1.665  12.357  0.00  0.00    +0.000 HD
ATOM     15  H   UNL     1      42.848   1.513  10.886  0.00  0.00    +0.000 HD
ENDBRANCH  12  13
ENDBRANCH  11  12
ENDBRANCH  10  11
ENDBRANCH   1  10
BRANCH   3  16
ATOM     16  C   UNL     1      47.516   4.696  16.661  0.00  0.00    +0.000 C 
BRANCH  16  17
ATOM     17  C   UNL     1      48.650   3.736  16.829  0.00  0.00    +0.000 A 
ATOM     18  C   UNL     1      49.777   4.033  17.572  0.00  0.00    +0.000 A 
ATOM     19  N   UNL     1      50.824   3.197  17.718  0.00  0.00    +0.000 NA
ATOM     20  C   UNL     1      50.723   2.023  17.078  0.00  0.00    +0.000 A 
ATOM     21  N   UNL     1      49.675   1.611  16.347  0.00  0.00    +0.000 NA
ATOM     22  C   UNL     1      48.657   2.487  16.240  0.00  0.00    +0.000 A 
ENDBRANCH  16  17
ENDBRANCH   3  16
TORSDOF 6
ENDMDL
MODEL 9
REMARK VINA RESULT:    -5.257      2.232      4.370
REMARK INTER + INTRA:          -7.724
REMARK INTER:                  -7.086
REMARK INTRA:                  -0.639
REMARK UNBOUND:                -0.777
REMARK  Name = 
REMARK  6 active torsions:
REMARK  status: ('A' for Active; 'I' for Inactive)
REMARK    1  A    between atoms: N_1  and  C_2
REMARK    2  A    between atoms: C_2  and  C_3
REMARK    3  A    between atoms: C_3  and  C_4
REMARK    4  A    between atoms: C_4  and  C_5
REMARK    5  A    between atoms: N_7  and  C_8
REMARK    6  A    between atoms: C_8  and  C_9
REMARK                            x       y       z     vdW  Elec       q    Type
REMARK                         _______ _______ _______ _____ _____    ______ ____
ROOT
ATOM      1  C   UNL     1      46.904   7.043  12.568  0.00  0.00    +0.000 A 
ATOM      2  C   UNL     1      45.914   6.097  12.393  0.00  0.00    +0.000 A 
ATOM      3  N   UNL     1      44.814   6.713  11.851  0.00  0.00    +0.000 N 
ATOM      4  C   UNL     1      45.048   8.065  11.706  0.00  0.00    +0.000 A 
ATOM      5  C   UNL     1      44.235   9.102  11.217  0.00  0.00    +0.000 A 
ATOM      6  C   UNL     1      44.760  10.397  11.192  0.00  0.00    +0.000 A 
ATOM      7  C   UNL     1      46.053  10.654  11.634  0.00  0.00    +0.000 A 
ATOM      8  C   UNL     1      46.859   9.614  12.105  0.00  0.00    +0.000 A 
ATOM      9  C   UNL     1      46.355   8.297  12.149  0.00  0.00    +0.000 A 
ENDROOT
BRANCH   1  10
ATOM     10  C   UNL     1      48.285   6.787  13.084  0.00  0.00    +0.000 C 
BRANCH  10  11
ATOM     11  C   UNL     1      48.373   6.881  14.608  0.00  0.00    +0.000 C 
BRANCH  11  12
ATOM     12  C   UNL     1      48.783   8.281  15.053  0.00  0.00    +0.000 C 
BRANCH  12  13
ATOM     13  N   UNL     1      47.630   8.992  15.592  0.00  0.00    +0.000 NA
ATOM     14  H   UNL     1      47.787   9.202  16.576  0.00  0.00    +0.000 HD
ATOM     15  H   UNL     1      46.806   8.394  15.552  0.00  0.00    +0.000 HD
ENDBRANCH  12  13
ENDBRANCH  11  12
ENDBRANCH  10  11
ENDBRANCH   1  10
BRANCH   3  16
ATOM     16  C   UNL     1      43.587   6.016  11.484  0.00  0.00    +0.000 C 
BRANCH  16  17
ATOM     17  C   UNL     1      43.883   4.754  10.740  0.00  0.00    +0.000 A 
ATOM     18  C   UNL     1      43.495   3.508  11.197  0.00  0.00    +0.000 A 
ATOM     19  N   UNL     1      43.772   2.353  10.559  0.00  0.00    +0.000 NA
ATOM     20  C   UNL     1      44.475   2.470   9.424  0.00  0.00    +0.000 A 
ATOM     21  N   UNL     1      44.889   3.620   8.868  0.00  0.00    +0.000 NA
ATOM     22  C   UNL     1      44.580   4.742   9.548  0.00  0.00    +0.000 A 
ENDBRANCH  16  17
ENDBRANCH   3  16
TORSDOF 6
ENDMDL
