MODEL 1
REMARK VINA RESULT:    -7.570      0.000      0.000
REMARK INTER + INTRA:         -10.592
REMARK INTER:                 -10.004
REMARK INTRA:                  -0.587
REMARK UNBOUND:                -0.587
REMARK  Name = 
REMARK  6 active torsions:
REMARK  status: ('A' for Active; 'I' for Inactive)
REMARK    1  A    between atoms: O_1  and  C_2
REMARK    2  A    between atoms: C_2  and  C_3
REMARK    3  A    between atoms: C_3  and  C_4
REMARK    4  A    between atoms: C_4  and  C_5
REMARK    5  A    between atoms: C_9  and  C_10
REMARK    6  A    between atoms: C_10  and  N_11
REMARK                            x       y       z     vdW  Elec       q    Type
REMARK                         _______ _______ _______ _____ _____    ______ ____
ROOT
ATOM      1  C   UNL     1      45.611   3.840   8.505  0.00  0.00    +0.000 A 
ATOM      2  C   UNL     1      44.884   2.686   8.768  0.00  0.00    +0.000 A 
ATOM      3  N   UNL     1      44.087   2.522   9.847  0.00  0.00    +0.000 NA
ATOM      4  C   UNL     1      43.989   3.571  10.698  0.00  0.00    +0.000 A 
ATOM      5  C   UNL     1      44.648   4.781  10.525  0.00  0.00    +0.000 A 
ATOM      6  C   UNL     1      45.494   4.894   9.419  0.00  0.00    +0.000 A 
ENDROOT
BRANCH   1   7
ATOM      7  C   UNL     1      46.425   3.983   7.249  0.00  0.00    +0.000 C 
BRANCH   7   8
ATOM      8  C   UNL     1      46.575   2.670   6.476  0.00  0.00    +0.000 C 
BRANCH   8   9
ATOM      9  C   UNL     1      47.901   1.984   6.781  0.00  0.00    +0.000 C 
BRANCH   9  10
ATOM     10  O   UNL     1      48.617   1.774   5.572  0.00  0.00    +0.000 OA
ATOM     11  H   UNL     1      47.975   1.837   4.843  0.00  0.00    +0.000 HD
ENDBRANCH   9  10
ENDBRANCH   8   9
ENDBRANCH   7   8
ENDBRANCH   1   7
BRANCH   5  12
ATOM     12  C   UNL     1      44.416   5.930  11.464  0.00  0.00    +0.000 C 
BRANCH  12  13
ATOM     13  N   UNL     1      45.637   6.372  12.125  0.00  0.00    +0.000 N 
ATOM     14  C   UNL     1      46.341   7.503  11.772  0.00  0.00    +0.000 A 
ATOM     15  C   UNL     1      47.443   7.592  12.594  0.00  0.00    +0.000 A 
ATOM     16  C   UNL     1      47.418   6.472  13.457  0.00  0.00    +0.000 A 
ATOM     17  N   UNL     1      48.283   6.118  14.437  0.00  0.00    +0.000 NA
ATOM     18  N   UNL     1      48.044   5.013  15.117  0.00  0.00    +0.000 NA
ATOM     19  C   UNL     1      46.972   4.244  14.818  0.00  0.00    +0.000 A 
ATOM     20  C   UNL     1      46.052   4.520  13.818  0.00  0.00    +0.000 A 
ATOM     21  C   UNL     1      46.300   5.708  13.135  0.00  0.00    +0.000 A 
ENDBRANCH  12  13
ENDBRANCH   5  12
TORSDOF 6
ENDMDL
MODEL 2
REMARK VINA RESULT:    -7.099      3.068      6.416
REMARK INTER + INTRA:          -9.969
REMARK INTER:                  -9.379
REMARK INTRA:                  -0.590
REMARK UNBOUND:                -0.587
REMARK  Name = 
REMARK  6 active torsions:
REMARK  status: ('A' for Active; 'I' for Inactive)
REMARK    1  A    between atoms: O_1  and  C_2
REMARK    2  A    between atoms: C_2  and  C_3
REMARK    3  A    between atoms: C_3  and  C_4
REMARK    4  A    between atoms: C_4  and  C_5
REMARK    5  A    between atoms: C_9  and  C_10
REMARK    6  A    between atoms: C_10  and  N_11
REMARK                            x       y       z     vdW  Elec       q    Type
REMARK                         _______ _______ _______ _____ _____    ______ ____
ROOT
ATOM      1  C   UNL     1      45.464   5.617  12.290  0.00  0.00    +0.000 A 
ATOM      2  C   UNL     1      44.217   5.497  12.891  0.00  0.00    +0.000 A 
ATOM      3  N   UNL     1      43.089   5.153  12.233  0.00  0.00    +0.000 NA
ATOM      4  C   UNL     1      43.210   4.892  10.910  0.00  0.00    +0.000 A 
ATOM      5  C   UNL     1      44.406   4.954  10.208  0.00  0.00    +0.000 A 
ATOM      6  C   UNL     1      45.541   5.353  10.917  0.00  0.00    +0.000 A 
ENDROOT
BRANCH   1   7
ATOM      7  C   UNL     1      46.694   5.936  13.094  0.00  0.00    +0.000 C 
BRANCH   7   8
ATOM      8  C   UNL     1      46.870   5.023  14.311  0.00  0.00    +0.000 C 
BRANCH   8   9
ATOM      9  C   UNL     1      47.048   3.566  13.904  0.00  0.00    +0.000 C 
BRANCH   9  10
ATOM     10  O   UNL     1      47.748   2.868  14.924  0.00  0.00    +0.000 OA
ATOM     11  H   UNL     1      48.358   2.251  14.482  0.00  0.00    +0.000 HD
ENDBRANCH   9  10
ENDBRANCH   8   9
ENDBRANCH   7   8
ENDBRANCH   1   7
BRANCH   5  12
ATOM     12  C   UNL     1      44.476   4.559   8.760  0.00  0.00    +0.000 C 
BRANCH  12  13
ATOM     13  N   UNL     1      45.004   3.215   8.569  0.00  0.00    +0.000 N 
ATOM     14  C   UNL     1      44.486   2.088   9.171  0.00  0.00    +0.000 A 
ATOM     15  C   UNL     1      45.247   1.008   8.779  0.00  0.00    +0.000 A 
ATOM     16  C   UNL     1      46.268   1.497   7.931  0.00  0.00    +0.000 A 
ATOM     17  N   UNL     1      47.259   0.825   7.298  0.00  0.00    +0.000 NA
ATOM     18  N   UNL     1      48.102   1.509   6.549  0.00  0.00    +0.000 NA
ATOM     19  C   UNL     1      47.988   2.852   6.442  0.00  0.00    +0.000 A 
ATOM     20  C   UNL     1      47.021   3.619   7.073  0.00  0.00    +0.000 A 
ATOM     21  C   UNL     1      46.118   2.877   7.831  0.00  0.00    +0.000 A 
ENDBRANCH  12  13
ENDBRANCH   5  12
TORSDOF 6
ENDMDL
MODEL 3
REMARK VINA RESULT:    -6.945      3.564      6.592
REMARK INTER + INTRA:          -9.765
REMARK INTER:                  -9.353
REMARK INTRA:                  -0.413
REMARK UNBOUND:                -0.587
REMARK  Name = 
REMARK  6 active torsions:
REMARK  status: ('A' for Active; 'I' for Inactive)
REMARK    1  A    between atoms: O_1  and  C_2
REMARK    2  A    between atoms: C_2  and  C_3
REMARK    3  A    between atoms: C_3  and  C_4
REMARK    4  A    between atoms: C_4  and  C_5
REMARK    5  A    between atoms: C_9  and  C_10
REMARK    6  A    between atoms: C_10  and  N_11
REMARK                            x       y       z     vdW  Elec       q    Type
REMARK                         _______ _______ _______ _____ _____    ______ ____
ROOT
ATOM      1  C   UNL     1      45.163   4.813  13.038  0.00  0.00    +0.000 A 
ATOM      2  C   UNL     1      43.911   5.375  13.254  0.00  0.00    +0.000 A 
ATOM      3  N   UNL     1      42.838   5.165  12.461  0.00  0.00    +0.000 NA
ATOM      4  C   UNL     1      43.012   4.331  11.408  0.00  0.00    +0.000 A 
ATOM      5  C   UNL     1      44.209   3.693  11.107  0.00  0.00    +0.000 A 
ATOM      6  C   UNL     1      45.303   3.970  11.929  0.00  0.00    +0.000 A 
ENDROOT
BRANCH   1   7
ATOM      7  C   UNL     1      46.297   5.033  14.000  0.00  0.00    +0.000 C 
BRANCH   7   8
ATOM      8  C   UNL     1      46.918   3.728  14.507  0.00  0.00    +0.000 C 
BRANCH   8   9
ATOM      9  C   UNL     1      47.560   3.904  15.877  0.00  0.00    +0.000 C 
BRANCH   9  10
ATOM     10  O   UNL     1      46.637   3.527  16.888  0.00  0.00    +0.000 OA
ATOM     11  H   UNL     1      47.069   2.843  17.431  0.00  0.00    +0.000 HD
ENDBRANCH   9  10
ENDBRANCH   8   9
ENDBRANCH   7   8
ENDBRANCH   1   7
BRANCH   5  12
ATOM     12  C   UNL     1      44.298   2.710   9.975  0.00  0.00    +0.000 C 
BRANCH  12  13
ATOM     13  N   UNL     1      45.255   3.113   8.953  0.00  0.00    +0.000 N 
ATOM     14  C   UNL     1      45.455   4.417   8.554  0.00  0.00    +0.000 A 
ATOM     15  C   UNL     1      46.412   4.417   7.562  0.00  0.00    +0.000 A 
ATOM     16  C   UNL     1      46.789   3.072   7.341  0.00  0.00    +0.000 A 
ATOM     17  N   UNL     1      47.692   2.561   6.469  0.00  0.00    +0.000 NA
ATOM     18  N   UNL     1      47.873   1.255   6.447  0.00  0.00    +0.000 NA
ATOM     19  C   UNL     1      47.152   0.449   7.260  0.00  0.00    +0.000 A 
ATOM     20  C   UNL     1      46.193   0.886   8.161  0.00  0.00    +0.000 A 
ATOM     21  C   UNL     1      46.040   2.270   8.197  0.00  0.00    +0.000 A 
ENDBRANCH  12  13
ENDBRANCH   5  12
TORSDOF 6
ENDMDL
MODEL 4
REMARK VINA RESULT:    -6.937      1.591      2.706
REMARK INTER + INTRA:          -9.755
REMARK INTER:                  -9.260
REMARK INTRA:                  -0.495
REMARK UNBOUND:                -0.587
REMARK  Name = 
REMARK  6 active torsions:
REMARK  status: ('A' for Active; 'I' for Inactive)
REMARK    1  A    between atoms: O_1  and  C_2
REMARK    2  A    between atoms: C_2  and  C_3
REMARK    3  A    between atoms: C_3  and  C_4
REMARK    4  A    between atoms: C_4  and  C_5
REMARK    5  A    between atoms: C_9  and  C_10
REMARK    6  A    between atoms: C_10  and  N_11
REMARK                            x       y       z     vdW  Elec       q    Type
REMARK                         _______ _______ _______ _____ _____    ______ ____
ROOT
ATOM      1  C   UNL     1      45.537   3.726   8.511  0.00  0.00    +0.000 A 
ATOM      2  C   UNL     1      44.975   2.476   8.740  0.00  0.00    +0.000 A 
ATOM      3  N   UNL     1      44.150   2.194   9.771  0.00  0.00    +0.000 NA
ATOM      4  C   UNL     1      43.849   3.215  10.609  0.00  0.00    +0.000 A 
ATOM      5  C   UNL     1      44.330   4.510  10.465  0.00  0.00    +0.000 A 
ATOM      6  C   UNL     1      45.212   4.749   9.410  0.00  0.00    +0.000 A 
ENDROOT
BRANCH   1   7
ATOM      7  C   UNL     1      46.393   3.991   7.303  0.00  0.00    +0.000 C 
BRANCH   7   8
ATOM      8  C   UNL     1      46.608   2.748   6.434  0.00  0.00    +0.000 C 
BRANCH   8   9
ATOM      9  C   UNL     1      47.906   2.033   6.784  0.00  0.00    +0.000 C 
BRANCH   9  10
ATOM     10  O   UNL     1      48.644   1.777   5.597  0.00  0.00    +0.000 OA
ATOM     11  H   UNL     1      49.356   2.440   5.553  0.00  0.00    +0.000 HD
ENDBRANCH   9  10
ENDBRANCH   8   9
ENDBRANCH   7   8
ENDBRANCH   1   7
BRANCH   5  12
ATOM     12  C   UNL     1      43.876   5.610  11.382  0.00  0.00    +0.000 C 
BRANCH  12  13
ATOM     13  N   UNL     1      44.987   6.346  11.971  0.00  0.00    +0.000 N 
ATOM     14  C   UNL     1      45.974   5.769  12.740  0.00  0.00    +0.000 A 
ATOM     15  C   UNL     1      46.838   6.765  13.141  0.00  0.00    +0.000 A 
ATOM     16  C   UNL     1      46.348   7.984  12.618  0.00  0.00    +0.000 A 
ATOM     17  N   UNL     1      46.849   9.237  12.738  0.00  0.00    +0.000 NA
ATOM     18  N   UNL     1      46.206  10.228  12.150  0.00  0.00    +0.000 NA
ATOM     19  C   UNL     1      45.061   9.993  11.468  0.00  0.00    +0.000 A 
ATOM     20  C   UNL     1      44.470   8.749  11.317  0.00  0.00    +0.000 A 
ATOM     21  C   UNL     1      45.180   7.710  11.913  0.00  0.00    +0.000 A 
ENDBRANCH  12  13
ENDBRANCH   5  12
TORSDOF 6
ENDMDL
MODEL 5
REMARK VINA RESULT:    -6.405      3.218      6.648
REMARK INTER + INTRA:          -9.051
REMARK INTER:                  -8.693
REMARK INTRA:                  -0.358
REMARK UNBOUND:                -0.587
REMARK  Name = 
REMARK  6 active torsions:
REMARK  status: ('A' for Active; 'I' for Inactive)
REMARK    1  A    between atoms: O_1  and  C_2
REMARK    2  A    between atoms: C_2  and  C_3
REMARK    3  A    between atoms: C_3  and  C_4
REMARK    4  A    between atoms: C_4  and  C_5
REMARK    5  A    between atoms: C_9  and  C_10
REMARK    6  A    between atoms: C_10  and  N_11
REMARK                            x       y       z     vdW  Elec       q    Type
REMARK                         _______ _______ _______ _____ _____    ______ ____
ROOT
ATOM      1  C   UNL     1      45.990   6.197  11.967  0.00  0.00    +0.000 A 
ATOM      2  C   UNL     1      45.103   5.670  12.898  0.00  0.00    +0.000 A 
ATOM      3  N   UNL     1      44.055   4.880  12.582  0.00  0.00    +0.000 NA
ATOM      4  C   UNL     1      43.891   4.577  11.272  0.00  0.00    +0.000 A 
ATOM      5  C   UNL     1      44.727   5.024  10.257  0.00  0.00    +0.000 A 
ATOM      6  C   UNL     1      45.775   5.872  10.622  0.00  0.00    +0.000 A 
ENDROOT
BRANCH   1   7
ATOM      7  C   UNL     1      47.179   7.014  12.392  0.00  0.00    +0.000 C 
BRANCH   7   8
ATOM      8  C   UNL     1      48.140   6.247  13.305  0.00  0.00    +0.000 C 
BRANCH   8   9
ATOM      9  C   UNL     1      48.895   7.182  14.241  0.00  0.00    +0.000 C 
BRANCH   9  10
ATOM     10  O   UNL     1      48.134   7.388  15.424  0.00  0.00    +0.000 OA
ATOM     11  H   UNL     1      47.757   8.284  15.370  0.00  0.00    +0.000 HD
ENDBRANCH   9  10
ENDBRANCH   8   9
ENDBRANCH   7   8
ENDBRANCH   1   7
BRANCH   5  12
ATOM     12  C   UNL     1      44.534   4.569   8.839  0.00  0.00    +0.000 C 
BRANCH  12  13
ATOM     13  N   UNL     1      45.036   3.221   8.607  0.00  0.00    +0.000 N 
ATOM     14  C   UNL     1      44.499   2.088   9.178  0.00  0.00    +0.000 A 
ATOM     15  C   UNL     1      45.238   1.005   8.754  0.00  0.00    +0.000 A 
ATOM     16  C   UNL     1      46.265   1.498   7.917  0.00  0.00    +0.000 A 
ATOM     17  N   UNL     1      47.242   0.826   7.262  0.00  0.00    +0.000 NA
ATOM     18  N   UNL     1      48.096   1.515   6.530  0.00  0.00    +0.000 NA
ATOM     19  C   UNL     1      48.008   2.863   6.462  0.00  0.00    +0.000 A 
ATOM     20  C   UNL     1      47.056   3.629   7.118  0.00  0.00    +0.000 A 
ATOM     21  C   UNL     1      46.142   2.884   7.857  0.00  0.00    +0.000 A 
ENDBRANCH  12  13
ENDBRANCH   5  12
TORSDOF 6
ENDMDL
MODEL 6
REMARK VINA RESULT:    -6.369      3.436      6.525
REMARK INTER + INTRA:          -9.004
REMARK INTER:                  -9.185
REMARK INTRA:                   0.181
REMARK UNBOUND:                -0.587
REMARK  Name = 
REMARK  6 active torsions:
REMARK  status: ('A' for Active; 'I' for Inactive)
REMARK    1  A    between atoms: O_1  and  C_2
REMARK    2  A    between atoms: C_2  and  C_3
REMARK    3  A    between atoms: C_3  and  C_4
REMARK    4  A    between atoms: C_4  and  C_5
REMARK    5  A    between atoms: C_9  and  C_10
REMARK    6  A    between atoms: C_10  and  N_11
REMARK                            x       y       z     vdW  Elec       q    Type
REMARK                         _______ _______ _______ _____ _____    ______ ____
ROOT
ATOM      1  C   UNL     1      45.264   5.721  12.356  0.00  0.00    +0.000 A 
ATOM      2  C   UNL     1      44.058   5.810  13.039  0.00  0.00    +0.000 A 
ATOM      3  N   UNL     1      42.962   5.079  12.739  0.00  0.00    +0.000 NA
ATOM      4  C   UNL     1      43.078   4.195  11.719  0.00  0.00    +0.000 A 
ATOM      5  C   UNL     1      44.240   4.001  10.983  0.00  0.00    +0.000 A 
ATOM      6  C   UNL     1      45.337   4.805  11.299  0.00  0.00    +0.000 A 
ENDROOT
BRANCH   1   7
ATOM      7  C   UNL     1      46.468   6.513  12.786  0.00  0.00    +0.000 C 
BRANCH   7   8
ATOM      8  C   UNL     1      46.118   7.923  13.271  0.00  0.00    +0.000 C 
BRANCH   8   9
ATOM      9  C   UNL     1      45.513   8.769  12.159  0.00  0.00    +0.000 C 
BRANCH   9  10
ATOM     10  O   UNL     1      44.641   9.740  12.720  0.00  0.00    +0.000 OA
ATOM     11  H   UNL     1      44.316  10.292  11.986  0.00  0.00    +0.000 HD
ENDBRANCH   9  10
ENDBRANCH   8   9
ENDBRANCH   7   8
ENDBRANCH   1   7
BRANCH   5  12
ATOM     12  C   UNL     1      44.317   2.935   9.928  0.00  0.00    +0.000 C 
BRANCH  12  13
ATOM     13  N   UNL     1      45.289   3.244   8.887  0.00  0.00    +0.000 N 
ATOM     14  C   UNL     1      45.549   4.516   8.425  0.00  0.00    +0.000 A 
ATOM     15  C   UNL     1      46.502   4.423   7.433  0.00  0.00    +0.000 A 
ATOM     16  C   UNL     1      46.814   3.053   7.276  0.00  0.00    +0.000 A 
ATOM     17  N   UNL     1      47.688   2.459   6.428  0.00  0.00    +0.000 NA
ATOM     18  N   UNL     1      47.807   1.146   6.468  0.00  0.00    +0.000 NA
ATOM     19  C   UNL     1      47.052   0.415   7.319  0.00  0.00    +0.000 A 
ATOM     20  C   UNL     1      46.118   0.939   8.200  0.00  0.00    +0.000 A 
ATOM     21  C   UNL     1      46.031   2.329   8.170  0.00  0.00    +0.000 A 
ENDBRANCH  12  13
ENDBRANCH   5  12
TORSDOF 6
ENDMDL
MODEL 7
REMARK VINA RESULT:    -6.248      3.133      6.917
REMARK INTER + INTRA:          -8.845
REMARK INTER:                  -8.386
REMARK INTRA:                  -0.459
REMARK UNBOUND:                -0.587
REMARK  Name = 
REMARK  6 active torsions:
REMARK  status: ('A' for Active; 'I' for Inactive)
REMARK    1  A    between atoms: O_1  and  C_2
REMARK    2  A    between atoms: C_2  and  C_3
REMARK    3  A    between atoms: C_3  and  C_4
REMARK    4  A    between atoms: C_4  and  C_5
REMARK    5  A    between atoms: C_9  and  C_10
REMARK    6  A    between atoms: C_10  and  N_11
REMARK                            x       y       z     vdW  Elec       q    Type
REMARK                         _______ _______ _______ _____ _____    ______ ____
ROOT
ATOM      1  C   UNL     1      47.186   5.230  14.444  0.00  0.00    +0.000 A 
ATOM      2  C   UNL     1      47.909   6.417  14.408  0.00  0.00    +0.000 A 
ATOM      3  N   UNL     1      47.604   7.465  13.612  0.00  0.00    +0.000 NA
ATOM      4  C   UNL     1      46.508   7.336  12.826  0.00  0.00    +0.000 A 
ATOM      5  C   UNL     1      45.696   6.210  12.797  0.00  0.00    +0.000 A 
ATOM      6  C   UNL     1      46.070   5.134  13.605  0.00  0.00    +0.000 A 
ENDROOT
BRANCH   1   7
ATOM      7  C   UNL     1      47.538   4.128  15.405  0.00  0.00    +0.000 C 
BRANCH   7   8
ATOM      8  C   UNL     1      47.808   4.632  16.826  0.00  0.00    +0.000 C 
BRANCH   8   9
ATOM      9  C   UNL     1      47.738   3.504  17.847  0.00  0.00    +0.000 C 
BRANCH   9  10
ATOM     10  O   UNL     1      46.510   2.805  17.703  0.00  0.00    +0.000 OA
ATOM     11  H   UNL     1      45.795   3.440  17.890  0.00  0.00    +0.000 HD
ENDBRANCH   9  10
ENDBRANCH   8   9
ENDBRANCH   7   8
ENDBRANCH   1   7
BRANCH   5  12
ATOM     12  C   UNL     1      44.444   6.180  11.968  0.00  0.00    +0.000 C 
BRANCH  12  13
ATOM     13  N   UNL     1      44.160   4.857  11.427  0.00  0.00    +0.000 N 
ATOM     14  C   UNL     1      43.389   3.910  12.067  0.00  0.00    +0.000 A 
ATOM     15  C   UNL     1      43.356   2.782  11.276  0.00  0.00    +0.000 A 
ATOM     16  C   UNL     1      44.146   3.045  10.133  0.00  0.00    +0.000 A 
ATOM     17  N   UNL     1      44.420   2.249   9.072  0.00  0.00    +0.000 NA
ATOM     18  N   UNL     1      45.194   2.724   8.115  0.00  0.00    +0.000 NA
ATOM     19  C   UNL     1      45.718   3.967   8.211  0.00  0.00    +0.000 A 
ATOM     20  C   UNL     1      45.508   4.836   9.271  0.00  0.00    +0.000 A 
ATOM     21  C   UNL     1      44.662   4.332  10.255  0.00  0.00    +0.000 A 
ENDBRANCH  12  13
ENDBRANCH   5  12
TORSDOF 6
ENDMDL
MODEL 8
REMARK VINA RESULT:    -6.026      2.667      6.092
REMARK INTER + INTRA:          -8.551
REMARK INTER:                  -7.973
REMARK INTRA:                  -0.578
REMARK UNBOUND:                -0.587
REMARK  Name = 
REMARK  6 active torsions:
REMARK  status: ('A' for Active; 'I' for Inactive)
REMARK    1  A    between atoms: O_1  and  C_2
REMARK    2  A    between atoms: C_2  and  C_3
REMARK    3  A    between atoms: C_3  and  C_4
REMARK    4  A    between atoms: C_4  and  C_5
REMARK    5  A    between atoms: C_9  and  C_10
REMARK    6  A    between atoms: C_10  and  N_11
REMARK                            x       y       z     vdW  Elec       q    Type
REMARK                         _______ _______ _______ _____ _____    ______ ____
ROOT
ATOM      1  C   UNL     1      47.885   7.295  12.438  0.00  0.00    +0.000 A 
ATOM      2  C   UNL     1      48.418   6.391  13.349  0.00  0.00    +0.000 A 
ATOM      3  N   UNL     1      47.704   5.416  13.954  0.00  0.00    +0.000 NA
ATOM      4  C   UNL     1      46.396   5.320  13.618  0.00  0.00    +0.000 A 
ATOM      5  C   UNL     1      45.761   6.150  12.703  0.00  0.00    +0.000 A 
ATOM      6  C   UNL     1      46.525   7.170  12.131  0.00  0.00    +0.000 A 
ENDROOT
BRANCH   1   7
ATOM      7  C   UNL     1      48.751   8.312  11.747  0.00  0.00    +0.000 C 
BRANCH   7   8
ATOM      8  C   UNL     1      50.138   7.774  11.384  0.00  0.00    +0.000 C 
BRANCH   8   9
ATOM      9  C   UNL     1      51.249   8.630  11.980  0.00  0.00    +0.000 C 
BRANCH   9  10
ATOM     10  O   UNL     1      52.439   7.862  12.083  0.00  0.00    +0.000 OA
ATOM     11  H   UNL     1      52.301   7.212  12.795  0.00  0.00    +0.000 HD
ENDBRANCH   9  10
ENDBRANCH   8   9
ENDBRANCH   7   8
ENDBRANCH   1   7
BRANCH   5  12
ATOM     12  C   UNL     1      44.329   5.921  12.314  0.00  0.00    +0.000 C 
BRANCH  12  13
ATOM     13  N   UNL     1      44.113   4.614  11.708  0.00  0.00    +0.000 N 
ATOM     14  C   UNL     1      43.452   3.575  12.327  0.00  0.00    +0.000 A 
ATOM     15  C   UNL     1      43.458   2.495  11.471  0.00  0.00    +0.000 A 
ATOM     16  C   UNL     1      44.160   2.885  10.306  0.00  0.00    +0.000 A 
ATOM     17  N   UNL     1      44.430   2.176   9.184  0.00  0.00    +0.000 NA
ATOM     18  N   UNL     1      45.110   2.764   8.219  0.00  0.00    +0.000 NA
ATOM     19  C   UNL     1      45.544   4.037   8.364  0.00  0.00    +0.000 A 
ATOM     20  C   UNL     1      45.332   4.823   9.486  0.00  0.00    +0.000 A 
ATOM     21  C   UNL     1      44.584   4.199  10.481  0.00  0.00    +0.000 A 
ENDBRANCH  12  13
ENDBRANCH   5  12
TORSDOF 6
ENDMDL
MODEL 9
REMARK VINA RESULT:    -5.880      3.392      6.524
REMARK INTER + INTRA:          -8.358
REMARK INTER:                  -7.702
REMARK INTRA:                  -0.656
REMARK UNBOUND:                -0.587
REMARK  Name = 
REMARK  6 active torsions:
REMARK  status: ('A' for Active; 'I' for Inactive)
REMARK    1  A    between atoms: O_1  and  C_2
REMARK    2  A    between atoms: C_2  and  C_3
REMARK    3  A    between atoms: C_3  and  C_4
REMARK    4  A    between atoms: C_4  and  C_5
REMARK    5  A    between atoms: C_9  and  C_10
REMARK    6  A    between atoms: C_10  and  N_11
REMARK                            x       y       z     vdW  Elec       q    Type
REMARK                         _______ _______ _______ _____ _____    ______ ____
ROOT
ATOM      1  C   UNL     1      48.103   6.280  14.200  0.00  0.00    +0.000 A 
ATOM      2  C   UNL     1      49.199   6.987  13.718  0.00  0.00    +0.000 A 
ATOM      3  N   UNL     1      49.220   7.637  12.535  0.00  0.00    +0.000 NA
ATOM      4  C   UNL     1      48.083   7.603  11.799  0.00  0.00    +0.000 A 
ATOM      5  C   UNL     1      46.920   6.951  12.189  0.00  0.00    +0.000 A 
ATOM      6  C   UNL     1      46.954   6.257  13.400  0.00  0.00    +0.000 A 
ENDROOT
BRANCH   1   7
ATOM      7  C   UNL     1      48.122   5.637  15.559  0.00  0.00    +0.000 C 
BRANCH   7   8
ATOM      8  C   UNL     1      47.251   4.380  15.641  0.00  0.00    +0.000 C 
BRANCH   8   9
ATOM      9  C   UNL     1      47.644   3.497  16.819  0.00  0.00    +0.000 C 
BRANCH   9  10
ATOM     10  O   UNL     1      46.703   3.659  17.871  0.00  0.00    +0.000 OA
ATOM     11  H   UNL     1      47.004   4.409  18.413  0.00  0.00    +0.000 HD
ENDBRANCH   9  10
ENDBRANCH   8   9
ENDBRANCH   7   8
ENDBRANCH   1   7
BRANCH   5  12
ATOM     12  C   UNL     1      45.670   7.037  11.360  0.00  0.00    +0.000 C 
BRANCH  12  13
ATOM     13  N   UNL     1      45.348   5.780  10.696  0.00  0.00    +0.000 N 
ATOM     14  C   UNL     1      45.744   5.460   9.416  0.00  0.00    +0.000 A 
ATOM     15  C   UNL     1      45.243   4.211   9.115  0.00  0.00    +0.000 A 
ATOM     16  C   UNL     1      44.505   3.772  10.239  0.00  0.00    +0.000 A 
ATOM     17  N   UNL     1      43.828   2.614  10.426  0.00  0.00    +0.000 NA
ATOM     18  N   UNL     1      43.209   2.428  11.577  0.00  0.00    +0.000 NA
ATOM     19  C   UNL     1      43.234   3.387  12.531  0.00  0.00    +0.000 A 
ATOM     20  C   UNL     1      43.882   4.607  12.411  0.00  0.00    +0.000 A 
ATOM     21  C   UNL     1      44.559   4.772  11.206  0.00  0.00    +0.000 A 
ENDBRANCH  12  13
ENDBRANCH   5  12
TORSDOF 6
ENDMDL
