MODEL 1
REMARK VINA RESULT:    -8.731      0.000      0.000
REMARK INTER + INTRA:         -12.919
REMARK INTER:                 -11.794
REMARK INTRA:                  -1.125
REMARK UNBOUND:                -1.125
REMARK  Name = 
REMARK  6 active torsions:
REMARK  status: ('A' for Active; 'I' for Inactive)
REMARK    1  A    between atoms: C_2  and  C_4
REMARK    2  A    between atoms: C_7  and  O_8
REMARK    3  A    between atoms: O_8  and  C_9
REMARK    4  A    between atoms: C_9  and  C_10
REMARK    5  A    between atoms: C_14  and  O_15
REMARK    6  A    between atoms: O_15  and  C_16
REMARK                            x       y       z     vdW  Elec       q    Type
REMARK                         _______ _______ _______ _____ _____    ______ ____
ROOT
ATOM      1  C   UNL     1      43.947   4.858  11.387  0.00  0.00    +0.000 C 
ATOM      2  C   UNL     1      42.672   4.990  12.206  0.00  0.00    +0.000 C 
ATOM      3  C   UNL     1      43.006   6.033  11.195  0.00  0.00    +0.000 C 
ENDROOT
BRANCH   1   4
ATOM      4  C   UNL     1      45.307   5.064  12.025  0.00  0.00    +0.000 A 
ATOM      5  C   UNL     1      46.027   6.245  11.803  0.00  0.00    +0.000 A 
ATOM      6  C   UNL     1      47.168   6.546  12.551  0.00  0.00    +0.000 A 
ATOM      7  C   UNL     1      47.635   5.656  13.520  0.00  0.00    +0.000 A 
ATOM      8  C   UNL     1      46.994   4.435  13.706  0.00  0.00    +0.000 A 
ATOM      9  C   UNL     1      45.837   4.156  12.960  0.00  0.00    +0.000 A 
BRANCH   8  10
ATOM     10  O   UNL     1      47.329   3.460  14.596  0.00  0.00    +0.000 OA
BRANCH  10  11
ATOM     11  C   UNL     1      47.489   3.760  15.977  0.00  0.00    +0.000 C 
ATOM     12  F   UNL     1      48.600   4.463  16.263  0.00  0.00    +0.000 F 
ATOM     13  F   UNL     1      46.408   4.445  16.414  0.00  0.00    +0.000 F 
ATOM     14  F   UNL     1      47.549   2.594  16.654  0.00  0.00    +0.000 F 
ENDBRANCH  10  11
ENDBRANCH   8  10
ENDBRANCH   1   4
BRANCH   1  15
ATOM     15  O   UNL     1      43.852   3.703  10.521  0.00  0.00    +0.000 OA
BRANCH  15  19
ATOM     16  C   UNL     1      46.545   2.758   7.503  0.00  0.00    +0.000 A 
ATOM     17  C   UNL     1      46.240   4.107   7.722  0.00  0.00    +0.000 A 
ATOM     18  C   UNL     1      45.376   4.470   8.757  0.00  0.00    +0.000 A 
ATOM     19  C   UNL     1      44.802   3.490   9.562  0.00  0.00    +0.000 A 
ATOM     20  C   UNL     1      45.151   2.151   9.382  0.00  0.00    +0.000 A 
ATOM     21  C   UNL     1      46.010   1.782   8.348  0.00  0.00    +0.000 A 
BRANCH  16  23
ATOM     22  N   UNL     1      47.198   2.997   5.170  0.00  0.00    +0.000 N 
ATOM     23  C   UNL     1      47.370   2.327   6.347  0.00  0.00    +0.000 C 
ATOM     24  O   UNL     1      48.177   1.411   6.442  0.00  0.00    +0.000 OA
ATOM     25  H   UNL     1      47.810   2.733   4.409  0.00  0.00    +0.000 HD
ATOM     26  H   UNL     1      46.731   3.891   5.113  0.00  0.00    +0.000 HD
ENDBRANCH  16  23
ENDBRANCH  15  19
ENDBRANCH   1  15
TORSDOF 6
ENDMDL
MODEL 2
REMARK VINA RESULT:    -8.166      2.239      2.838
REMARK INTER + INTRA:         -12.155
REMARK INTER:                 -10.936
REMARK INTRA:                  -1.220
REMARK UNBOUND:                -1.125
REMARK  Name = 
REMARK  6 active torsions:
REMARK  status: ('A' for Active; 'I' for Inactive)
REMARK    1  A    between atoms: C_2  and  C_4
REMARK    2  A    between atoms: C_7  and  O_8
REMARK    3  A    between atoms: O_8  and  C_9
REMARK    4  A    between atoms: C_9  and  C_10
REMARK    5  A    between atoms: C_14  and  O_15
REMARK    6  A    between atoms: O_15  and  C_16
REMARK                            x       y       z     vdW  Elec       q    Type
REMARK                         _______ _______ _______ _____ _____    ______ ____
ROOT
ATOM      1  C   UNL     1      43.744   4.886  11.378  0.00  0.00    +0.000 C 
ATOM      2  C   UNL     1      42.359   5.196  11.923  0.00  0.00    +0.000 C 
ATOM      3  C   UNL     1      43.032   6.179  11.028  0.00  0.00    +0.000 C 
ENDROOT
BRANCH   1   4
ATOM      4  C   UNL     1      44.961   4.903  12.282  0.00  0.00    +0.000 A 
ATOM      5  C   UNL     1      45.456   3.714  12.833  0.00  0.00    +0.000 A 
ATOM      6  C   UNL     1      46.693   3.678  13.480  0.00  0.00    +0.000 A 
ATOM      7  C   UNL     1      47.453   4.841  13.619  0.00  0.00    +0.000 A 
ATOM      8  C   UNL     1      46.953   6.055  13.160  0.00  0.00    +0.000 A 
ATOM      9  C   UNL     1      45.716   6.071  12.495  0.00  0.00    +0.000 A 
BRANCH   8  10
ATOM     10  O   UNL     1      47.561   7.272  13.229  0.00  0.00    +0.000 OA
BRANCH  10  11
ATOM     11  C   UNL     1      48.565   7.638  12.291  0.00  0.00    +0.000 C 
ATOM     12  F   UNL     1      48.811   8.960  12.234  0.00  0.00    +0.000 F 
ATOM     13  F   UNL     1      49.714   6.988  12.589  0.00  0.00    +0.000 F 
ATOM     14  F   UNL     1      48.161   7.237  11.068  0.00  0.00    +0.000 F 
ENDBRANCH  10  11
ENDBRANCH   8  10
ENDBRANCH   1   4
BRANCH   1  15
ATOM     15  O   UNL     1      43.671   3.752  10.482  0.00  0.00    +0.000 OA
BRANCH  15  19
ATOM     16  C   UNL     1      46.509   2.802   7.601  0.00  0.00    +0.000 A 
ATOM     17  C   UNL     1      46.224   4.153   7.832  0.00  0.00    +0.000 A 
ATOM     18  C   UNL     1      45.311   4.516   8.824  0.00  0.00    +0.000 A 
ATOM     19  C   UNL     1      44.669   3.535   9.574  0.00  0.00    +0.000 A 
ATOM     20  C   UNL     1      44.996   2.192   9.385  0.00  0.00    +0.000 A 
ATOM     21  C   UNL     1      45.903   1.822   8.393  0.00  0.00    +0.000 A 
BRANCH  16  23
ATOM     22  N   UNL     1      47.252   3.029   5.294  0.00  0.00    +0.000 N 
ATOM     23  C   UNL     1      47.387   2.375   6.484  0.00  0.00    +0.000 C 
ATOM     24  O   UNL     1      48.206   1.474   6.622  0.00  0.00    +0.000 OA
ATOM     25  H   UNL     1      47.899   2.768   4.561  0.00  0.00    +0.000 HD
ATOM     26  H   UNL     1      46.772   3.914   5.208  0.00  0.00    +0.000 HD
ENDBRANCH  16  23
ENDBRANCH  15  19
ENDBRANCH   1  15
TORSDOF 6
ENDMDL
MODEL 3
REMARK VINA RESULT:    -7.204      4.800      7.597
REMARK INTER + INTRA:         -10.856
REMARK INTER:                  -9.968
REMARK INTRA:                  -0.888
REMARK UNBOUND:                -1.125
REMARK  Name = 
REMARK  6 active torsions:
REMARK  status: ('A' for Active; 'I' for Inactive)
REMARK    1  A    between atoms: C_2  and  C_4
REMARK    2  A    between atoms: C_7  and  O_8
REMARK    3  A    between atoms: O_8  and  C_9
REMARK    4  A    between atoms: C_9  and  C_10
REMARK    5  A    between atoms: C_14  and  O_15
REMARK    6  A    between atoms: O_15  and  C_16
REMARK                            x       y       z     vdW  Elec       q    Type
REMARK                         _______ _______ _______ _____ _____    ______ ____
ROOT
ATOM      1  C   UNL     1      45.432   5.864  11.670  0.00  0.00    +0.000 C 
ATOM      2  C   UNL     1      44.769   7.205  11.396  0.00  0.00    +0.000 C 
ATOM      3  C   UNL     1      44.273   6.357  12.517  0.00  0.00    +0.000 C 
ENDROOT
BRANCH   1   4
ATOM      4  C   UNL     1      45.245   4.694  10.725  0.00  0.00    +0.000 A 
ATOM      5  C   UNL     1      44.509   3.569  11.119  0.00  0.00    +0.000 A 
ATOM      6  C   UNL     1      44.140   2.588  10.196  0.00  0.00    +0.000 A 
ATOM      7  C   UNL     1      44.526   2.693   8.858  0.00  0.00    +0.000 A 
ATOM      8  C   UNL     1      45.330   3.752   8.450  0.00  0.00    +0.000 A 
ATOM      9  C   UNL     1      45.676   4.741   9.386  0.00  0.00    +0.000 A 
BRANCH   8  10
ATOM     10  O   UNL     1      45.798   3.990   7.194  0.00  0.00    +0.000 OA
BRANCH  10  11
ATOM     11  C   UNL     1      46.738   3.111   6.589  0.00  0.00    +0.000 C 
ATOM     12  F   UNL     1      46.417   1.808   6.690  0.00  0.00    +0.000 F 
ATOM     13  F   UNL     1      46.874   3.432   5.282  0.00  0.00    +0.000 F 
ATOM     14  F   UNL     1      47.931   3.293   7.193  0.00  0.00    +0.000 F 
ENDBRANCH  10  11
ENDBRANCH   8  10
ENDBRANCH   1   4
BRANCH   1  15
ATOM     15  O   UNL     1      46.793   6.076  12.111  0.00  0.00    +0.000 OA
BRANCH  15  19
ATOM     16  C   UNL     1      47.947   5.065  15.971  0.00  0.00    +0.000 A 
ATOM     17  C   UNL     1      47.166   4.153  15.252  0.00  0.00    +0.000 A 
ATOM     18  C   UNL     1      46.797   4.435  13.935  0.00  0.00    +0.000 A 
ATOM     19  C   UNL     1      47.189   5.630  13.341  0.00  0.00    +0.000 A 
ATOM     20  C   UNL     1      48.017   6.513  14.037  0.00  0.00    +0.000 A 
ATOM     21  C   UNL     1      48.385   6.240  15.353  0.00  0.00    +0.000 A 
BRANCH  16  23
ATOM     22  N   UNL     1      47.245   4.456  18.222  0.00  0.00    +0.000 N 
ATOM     23  C   UNL     1      48.265   4.852  17.405  0.00  0.00    +0.000 C 
ATOM     24  O   UNL     1      49.397   5.019  17.842  0.00  0.00    +0.000 OA
ATOM     25  H   UNL     1      47.490   4.257  19.182  0.00  0.00    +0.000 HD
ATOM     26  H   UNL     1      46.375   4.085  17.868  0.00  0.00    +0.000 HD
ENDBRANCH  16  23
ENDBRANCH  15  19
ENDBRANCH   1  15
TORSDOF 6
ENDMDL
MODEL 4
REMARK VINA RESULT:    -7.132      4.877      7.399
REMARK INTER + INTRA:         -10.759
REMARK INTER:                 -10.032
REMARK INTRA:                  -0.727
REMARK UNBOUND:                -1.125
REMARK  Name = 
REMARK  6 active torsions:
REMARK  status: ('A' for Active; 'I' for Inactive)
REMARK    1  A    between atoms: C_2  and  C_4
REMARK    2  A    between atoms: C_7  and  O_8
REMARK    3  A    between atoms: O_8  and  C_9
REMARK    4  A    between atoms: C_9  and  C_10
REMARK    5  A    between atoms: C_14  and  O_15
REMARK    6  A    between atoms: O_15  and  C_16
REMARK                            x       y       z     vdW  Elec       q    Type
REMARK                         _______ _______ _______ _____ _____    ______ ____
ROOT
ATOM      1  C   UNL     1      44.101   5.389  11.186  0.00  0.00    +0.000 C 
ATOM      2  C   UNL     1      42.621   5.622  11.450  0.00  0.00    +0.000 C 
ATOM      3  C   UNL     1      43.487   5.093  12.542  0.00  0.00    +0.000 C 
ENDROOT
BRANCH   1   4
ATOM      4  C   UNL     1      44.565   4.256  10.292  0.00  0.00    +0.000 A 
ATOM      5  C   UNL     1      44.235   2.928  10.595  0.00  0.00    +0.000 A 
ATOM      6  C   UNL     1      44.458   1.901   9.676  0.00  0.00    +0.000 A 
ATOM      7  C   UNL     1      45.047   2.172   8.440  0.00  0.00    +0.000 A 
ATOM      8  C   UNL     1      45.466   3.465   8.140  0.00  0.00    +0.000 A 
ATOM      9  C   UNL     1      45.216   4.491   9.067  0.00  0.00    +0.000 A 
BRANCH   8  10
ATOM     10  O   UNL     1      46.062   3.889   6.992  0.00  0.00    +0.000 OA
BRANCH  10  11
ATOM     11  C   UNL     1      46.941   3.034   6.270  0.00  0.00    +0.000 C 
ATOM     12  F   UNL     1      46.479   1.781   6.106  0.00  0.00    +0.000 F 
ATOM     13  F   UNL     1      47.193   3.574   5.056  0.00  0.00    +0.000 F 
ATOM     14  F   UNL     1      48.105   2.963   6.948  0.00  0.00    +0.000 F 
ENDBRANCH  10  11
ENDBRANCH   8  10
ENDBRANCH   1   4
BRANCH   1  15
ATOM     15  O   UNL     1      44.758   6.656  10.948  0.00  0.00    +0.000 OA
BRANCH  15  19
ATOM     16  C   UNL     1      47.485   8.086  13.735  0.00  0.00    +0.000 A 
ATOM     17  C   UNL     1      47.741   6.850  13.131  0.00  0.00    +0.000 A 
ATOM     18  C   UNL     1      46.873   6.356  12.155  0.00  0.00    +0.000 A 
ATOM     19  C   UNL     1      45.743   7.083  11.793  0.00  0.00    +0.000 A 
ATOM     20  C   UNL     1      45.520   8.342  12.352  0.00  0.00    +0.000 A 
ATOM     21  C   UNL     1      46.379   8.839  13.330  0.00  0.00    +0.000 A 
BRANCH  16  23
ATOM     22  N   UNL     1      47.678   9.192  15.895  0.00  0.00    +0.000 N 
ATOM     23  C   UNL     1      48.322   8.591  14.852  0.00  0.00    +0.000 C 
ATOM     24  O   UNL     1      49.540   8.471  14.845  0.00  0.00    +0.000 OA
ATOM     25  H   UNL     1      48.256   9.476  16.676  0.00  0.00    +0.000 HD
ATOM     26  H   UNL     1      46.685   9.100  16.050  0.00  0.00    +0.000 HD
ENDBRANCH  16  23
ENDBRANCH  15  19
ENDBRANCH   1  15
TORSDOF 6
ENDMDL
MODEL 5
REMARK VINA RESULT:    -6.924      4.486      7.395
REMARK INTER + INTRA:         -10.478
REMARK INTER:                  -9.494
REMARK INTRA:                  -0.985
REMARK UNBOUND:                -1.125
REMARK  Name = 
REMARK  6 active torsions:
REMARK  status: ('A' for Active; 'I' for Inactive)
REMARK    1  A    between atoms: C_2  and  C_4
REMARK    2  A    between atoms: C_7  and  O_8
REMARK    3  A    between atoms: O_8  and  C_9
REMARK    4  A    between atoms: C_9  and  C_10
REMARK    5  A    between atoms: C_14  and  O_15
REMARK    6  A    between atoms: O_15  and  C_16
REMARK                            x       y       z     vdW  Elec       q    Type
REMARK                         _______ _______ _______ _____ _____    ______ ____
ROOT
ATOM      1  C   UNL     1      46.151   7.140  12.170  0.00  0.00    +0.000 C 
ATOM      2  C   UNL     1      46.141   8.605  11.760  0.00  0.00    +0.000 C 
ATOM      3  C   UNL     1      45.300   8.159  12.906  0.00  0.00    +0.000 C 
ENDROOT
BRANCH   1   4
ATOM      4  C   UNL     1      45.498   6.083  11.302  0.00  0.00    +0.000 A 
ATOM      5  C   UNL     1      44.251   5.546  11.649  0.00  0.00    +0.000 A 
ATOM      6  C   UNL     1      43.537   4.744  10.756  0.00  0.00    +0.000 A 
ATOM      7  C   UNL     1      44.069   4.432   9.503  0.00  0.00    +0.000 A 
ATOM      8  C   UNL     1      45.342   4.877   9.160  0.00  0.00    +0.000 A 
ATOM      9  C   UNL     1      46.039   5.699  10.061  0.00  0.00    +0.000 A 
BRANCH   8  10
ATOM     10  O   UNL     1      46.002   4.651   7.991  0.00  0.00    +0.000 OA
BRANCH  10  11
ATOM     11  C   UNL     1      46.305   3.327   7.570  0.00  0.00    +0.000 C 
ATOM     12  F   UNL     1      46.075   2.386   8.505  0.00  0.00    +0.000 F 
ATOM     13  F   UNL     1      45.586   3.034   6.462  0.00  0.00    +0.000 F 
ATOM     14  F   UNL     1      47.614   3.280   7.246  0.00  0.00    +0.000 F 
ENDBRANCH  10  11
ENDBRANCH   8  10
ENDBRANCH   1   4
BRANCH   1  15
ATOM     15  O   UNL     1      47.459   6.786  12.677  0.00  0.00    +0.000 OA
BRANCH  15  19
ATOM     16  C   UNL     1      47.753   4.540  16.158  0.00  0.00    +0.000 A 
ATOM     17  C   UNL     1      47.055   3.995  15.074  0.00  0.00    +0.000 A 
ATOM     18  C   UNL     1      46.973   4.698  13.871  0.00  0.00    +0.000 A 
ATOM     19  C   UNL     1      47.571   5.949  13.751  0.00  0.00    +0.000 A 
ATOM     20  C   UNL     1      48.316   6.466  14.812  0.00  0.00    +0.000 A 
ATOM     21  C   UNL     1      48.398   5.772  16.018  0.00  0.00    +0.000 A 
BRANCH  16  23
ATOM     22  N   UNL     1      46.914   2.825  17.669  0.00  0.00    +0.000 N 
ATOM     23  C   UNL     1      47.768   3.874  17.484  0.00  0.00    +0.000 C 
ATOM     24  O   UNL     1      48.517   4.245  18.379  0.00  0.00    +0.000 OA
ATOM     25  H   UNL     1      46.979   2.343  18.556  0.00  0.00    +0.000 HD
ATOM     26  H   UNL     1      46.464   2.346  16.903  0.00  0.00    +0.000 HD
ENDBRANCH  16  23
ENDBRANCH  15  19
ENDBRANCH   1  15
TORSDOF 6
ENDMDL
MODEL 6
REMARK VINA RESULT:    -6.463      2.928      4.556
REMARK INTER + INTRA:          -9.856
REMARK INTER:                  -8.800
REMARK INTRA:                  -1.056
REMARK UNBOUND:                -1.125
REMARK  Name = 
REMARK  6 active torsions:
REMARK  status: ('A' for Active; 'I' for Inactive)
REMARK    1  A    between atoms: C_2  and  C_4
REMARK    2  A    between atoms: C_7  and  O_8
REMARK    3  A    between atoms: O_8  and  C_9
REMARK    4  A    between atoms: C_9  and  C_10
REMARK    5  A    between atoms: C_14  and  O_15
REMARK    6  A    between atoms: O_15  and  C_16
REMARK                            x       y       z     vdW  Elec       q    Type
REMARK                         _______ _______ _______ _____ _____    ______ ____
ROOT
ATOM      1  C   UNL     1      47.721   7.820  13.111  0.00  0.00    +0.000 C 
ATOM      2  C   UNL     1      48.135   9.073  12.353  0.00  0.00    +0.000 C 
ATOM      3  C   UNL     1      48.644   7.745  11.908  0.00  0.00    +0.000 C 
ENDROOT
BRANCH   1   4
ATOM      4  C   UNL     1      48.253   7.539  14.502  0.00  0.00    +0.000 A 
ATOM      5  C   UNL     1      48.375   8.572  15.441  0.00  0.00    +0.000 A 
ATOM      6  C   UNL     1      48.648   8.299  16.783  0.00  0.00    +0.000 A 
ATOM      7  C   UNL     1      48.836   6.985  17.215  0.00  0.00    +0.000 A 
ATOM      8  C   UNL     1      48.807   5.942  16.294  0.00  0.00    +0.000 A 
ATOM      9  C   UNL     1      48.513   6.231  14.951  0.00  0.00    +0.000 A 
BRANCH   8  10
ATOM     10  O   UNL     1      48.982   4.616  16.550  0.00  0.00    +0.000 OA
BRANCH  10  11
ATOM     11  C   UNL     1      47.874   3.724  16.556  0.00  0.00    +0.000 C 
ATOM     12  F   UNL     1      47.579   3.205  15.350  0.00  0.00    +0.000 F 
ATOM     13  F   UNL     1      48.118   2.714  17.423  0.00  0.00    +0.000 F 
ATOM     14  F   UNL     1      46.793   4.402  16.994  0.00  0.00    +0.000 F 
ENDBRANCH  10  11
ENDBRANCH   8  10
ENDBRANCH   1   4
BRANCH   1  15
ATOM     15  O   UNL     1      46.300   7.602  12.949  0.00  0.00    +0.000 OA
BRANCH  15  19
ATOM     16  C   UNL     1      44.691   4.090  11.423  0.00  0.00    +0.000 A 
ATOM     17  C   UNL     1      45.025   5.111  10.526  0.00  0.00    +0.000 A 
ATOM     18  C   UNL     1      45.612   6.288  10.994  0.00  0.00    +0.000 A 
ATOM     19  C   UNL     1      45.849   6.457  12.355  0.00  0.00    +0.000 A 
ATOM     20  C   UNL     1      45.570   5.417  13.242  0.00  0.00    +0.000 A 
ATOM     21  C   UNL     1      44.980   4.240  12.783  0.00  0.00    +0.000 A 
BRANCH  16  23
ATOM     22  N   UNL     1      44.472   2.200   9.903  0.00  0.00    +0.000 N 
ATOM     23  C   UNL     1      43.967   2.873  10.978  0.00  0.00    +0.000 C 
ATOM     24  O   UNL     1      42.959   2.482  11.553  0.00  0.00    +0.000 OA
ATOM     25  H   UNL     1      44.003   1.341   9.651  0.00  0.00    +0.000 HD
ATOM     26  H   UNL     1      45.410   2.347   9.558  0.00  0.00    +0.000 HD
ENDBRANCH  16  23
ENDBRANCH  15  19
ENDBRANCH   1  15
TORSDOF 6
ENDMDL
