MODEL 1
REMARK VINA RESULT:    -8.346      0.000      0.000
REMARK INTER + INTRA:         -12.502
REMARK INTER:                 -12.006
REMARK INTRA:                  -0.496
REMARK UNBOUND:                -0.496
REMARK  Name = 
REMARK  8 active torsions:
REMARK  status: ('A' for Active; 'I' for Inactive)
REMARK    1  A    between atoms: N_1  and  C_2
REMARK    2  A    between atoms: C_2  and  C_3
REMARK    3  A    between atoms: C_3  and  N_4
REMARK    4  A    between atoms: C_3  and  C_17
REMARK    5  A    between atoms: C_5  and  C_7
REMARK    6  A    between atoms: C_20  and  O_21
REMARK    7  A    between atoms: O_21  and  C_22
REMARK    8  A    between atoms: C_22  and  C_23
REMARK                            x       y       z     vdW  Elec       q    Type
REMARK                         _______ _______ _______ _____ _____    ______ ____
ROOT
ATOM      1  C   UNL     1      46.593   7.982  13.008  0.00  0.00    +0.000 C 
ENDROOT
BRANCH   1   2
ATOM      2  C   UNL     1      45.896   6.809  12.331  0.00  0.00    +0.000 A 
ATOM      3  C   UNL     1      46.084   6.597  10.954  0.00  0.00    +0.000 A 
ATOM      4  C   UNL     1      45.649   5.414  10.354  0.00  0.00    +0.000 A 
ATOM      5  C   UNL     1      45.016   4.436  11.117  0.00  0.00    +0.000 A 
ATOM      6  C   UNL     1      44.676   4.713  12.438  0.00  0.00    +0.000 A 
ATOM      7  C   UNL     1      45.113   5.892  13.042  0.00  0.00    +0.000 A 
BRANCH   5   8
ATOM      8  O   UNL     1      44.793   3.232  10.502  0.00  0.00    +0.000 OA
BRANCH   8   9
ATOM      9  C   UNL     1      44.458   3.349   9.110  0.00  0.00    +0.000 C 
BRANCH   9  10
ATOM     10  C   UNL     1      45.506   2.692   8.248  0.00  0.00    +0.000 A 
ATOM     11  C   UNL     1      46.182   3.435   7.282  0.00  0.00    +0.000 A 
ATOM     12  C   UNL     1      47.190   2.819   6.545  0.00  0.00    +0.000 A 
ATOM     13  C   UNL     1      47.494   1.486   6.792  0.00  0.00    +0.000 A 
ATOM     14  C   UNL     1      46.780   0.821   7.775  0.00  0.00    +0.000 A 
ATOM     15  N   UNL     1      45.803   1.394   8.509  0.00  0.00    +0.000 NA
ENDBRANCH   9  10
ENDBRANCH   8   9
ENDBRANCH   5   8
ENDBRANCH   1   2
BRANCH   1  16
ATOM     16  N   UNL     1      47.158   7.567  14.278  0.00  0.00    +0.000 N 
ATOM     17  C   UNL     1      48.186   6.662  14.343  0.00  0.00    +0.000 C 
ATOM     18  O   UNL     1      48.712   6.207  13.331  0.00  0.00    +0.000 OA
ATOM     19  H   UNL     1      46.622   7.785  15.113  0.00  0.00    +0.000 HD
BRANCH  17  20
ATOM     20  C   UNL     1      48.638   6.253  15.673  0.00  0.00    +0.000 A 
ATOM     21  C   UNL     1      49.581   7.024  16.339  0.00  0.00    +0.000 A 
ATOM     22  S   UNL     1      50.014   6.402  17.865  0.00  0.00    +0.000 S 
ATOM     23  C   UNL     1      48.999   5.052  17.660  0.00  0.00    +0.000 A 
ATOM     24  N   UNL     1      48.947   4.078  18.609  0.00  0.00    +0.000 NA
ATOM     25  C   UNL     1      48.169   3.090  18.302  0.00  0.00    +0.000 A 
ATOM     26  N   UNL     1      47.427   2.998  17.150  0.00  0.00    +0.000 N 
ATOM     27  C   UNL     1      47.407   3.991  16.198  0.00  0.00    +0.000 A 
ATOM     28  O   UNL     1      46.659   3.928  15.224  0.00  0.00    +0.000 OA
ATOM     29  C   UNL     1      48.303   5.099  16.467  0.00  0.00    +0.000 A 
ATOM     30  H   UNL     1      46.811   2.215  16.991  0.00  0.00    +0.000 HD
ENDBRANCH  17  20
ENDBRANCH   1  16
BRANCH   1  31
ATOM     31  C   UNL     1      47.650   8.671  12.084  0.00  0.00    +0.000 C 
BRANCH  31  32
ATOM     32  N   UNL     1      47.991  10.063  12.412  0.00  0.00    +0.000 NA
ATOM     33  H   UNL     1      48.961  10.102  12.725  0.00  0.00    +0.000 HD
ATOM     34  H   UNL     1      47.999  10.613  11.551  0.00  0.00    +0.000 HD
ENDBRANCH  31  32
ENDBRANCH   1  31
TORSDOF 8
ENDMDL
MODEL 2
REMARK VINA RESULT:    -8.129      2.099      2.564
REMARK INTER + INTRA:         -12.189
REMARK INTER:                 -10.843
REMARK INTRA:                  -1.346
REMARK UNBOUND:                -0.496
REMARK  Name = 
REMARK  8 active torsions:
REMARK  status: ('A' for Active; 'I' for Inactive)
REMARK    1  A    between atoms: N_1  and  C_2
REMARK    2  A    between atoms: C_2  and  C_3
REMARK    3  A    between atoms: C_3  and  N_4
REMARK    4  A    between atoms: C_3  and  C_17
REMARK    5  A    between atoms: C_5  and  C_7
REMARK    6  A    between atoms: C_20  and  O_21
REMARK    7  A    between atoms: O_21  and  C_22
REMARK    8  A    between atoms: C_22  and  C_23
REMARK                            x       y       z     vdW  Elec       q    Type
REMARK                         _______ _______ _______ _____ _____    ______ ____
ROOT
ATOM      1  C   UNL     1      47.527   6.555  14.737  0.00  0.00    +0.000 C 
ENDROOT
BRANCH   1   2
ATOM      2  C   UNL     1      46.898   5.738  13.617  0.00  0.00    +0.000 A 
ATOM      3  C   UNL     1      46.702   4.357  13.798  0.00  0.00    +0.000 A 
ATOM      4  C   UNL     1      45.929   3.627  12.893  0.00  0.00    +0.000 A 
ATOM      5  C   UNL     1      45.351   4.263  11.797  0.00  0.00    +0.000 A 
ATOM      6  C   UNL     1      45.682   5.587  11.521  0.00  0.00    +0.000 A 
ATOM      7  C   UNL     1      46.451   6.320  12.425  0.00  0.00    +0.000 A 
BRANCH   5   8
ATOM      8  O   UNL     1      44.456   3.526  11.067  0.00  0.00    +0.000 OA
BRANCH   8   9
ATOM      9  C   UNL     1      44.274   4.005   9.725  0.00  0.00    +0.000 C 
BRANCH   9  10
ATOM     10  C   UNL     1      45.278   3.377   8.791  0.00  0.00    +0.000 A 
ATOM     11  C   UNL     1      45.518   2.005   8.843  0.00  0.00    +0.000 A 
ATOM     12  C   UNL     1      46.401   1.443   7.926  0.00  0.00    +0.000 A 
ATOM     13  C   UNL     1      47.017   2.261   6.986  0.00  0.00    +0.000 A 
ATOM     14  C   UNL     1      46.718   3.613   6.997  0.00  0.00    +0.000 A 
ATOM     15  N   UNL     1      45.861   4.185   7.870  0.00  0.00    +0.000 NA
ENDBRANCH   9  10
ENDBRANCH   8   9
ENDBRANCH   5   8
ENDBRANCH   1   2
BRANCH   1  16
ATOM     16  N   UNL     1      48.613   5.814  15.352  0.00  0.00    +0.000 N 
ATOM     17  C   UNL     1      48.949   5.997  16.669  0.00  0.00    +0.000 C 
ATOM     18  O   UNL     1      48.312   6.750  17.400  0.00  0.00    +0.000 OA
ATOM     19  H   UNL     1      49.257   5.337  14.727  0.00  0.00    +0.000 HD
BRANCH  17  20
ATOM     20  C   UNL     1      50.104   5.257  17.176  0.00  0.00    +0.000 A 
ATOM     21  C   UNL     1      51.193   5.954  17.682  0.00  0.00    +0.000 A 
ATOM     22  S   UNL     1      52.460   4.946  18.213  0.00  0.00    +0.000 S 
ATOM     23  C   UNL     1      51.620   3.548  17.730  0.00  0.00    +0.000 A 
ATOM     24  N   UNL     1      52.191   2.320  17.862  0.00  0.00    +0.000 NA
ATOM     25  C   UNL     1      51.459   1.352  17.413  0.00  0.00    +0.000 A 
ATOM     26  N   UNL     1      50.206   1.497  16.868  0.00  0.00    +0.000 N 
ATOM     27  C   UNL     1      49.573   2.713  16.775  0.00  0.00    +0.000 A 
ATOM     28  O   UNL     1      48.413   2.802  16.374  0.00  0.00    +0.000 OA
ATOM     29  C   UNL     1      50.370   3.841  17.216  0.00  0.00    +0.000 A 
ATOM     30  H   UNL     1      49.674   0.692  16.571  0.00  0.00    +0.000 HD
ENDBRANCH  17  20
ENDBRANCH   1  16
BRANCH   1  31
ATOM     31  C   UNL     1      47.971   7.980  14.270  0.00  0.00    +0.000 C 
BRANCH  31  32
ATOM     32  N   UNL     1      47.620   9.095  15.162  0.00  0.00    +0.000 NA
ATOM     33  H   UNL     1      46.872   8.796  15.788  0.00  0.00    +0.000 HD
ATOM     34  H   UNL     1      48.402   9.268  15.798  0.00  0.00    +0.000 HD
ENDBRANCH  31  32
ENDBRANCH   1  31
TORSDOF 8
ENDMDL
MODEL 3
REMARK VINA RESULT:    -8.061      2.482      3.557
REMARK INTER + INTRA:         -12.092
REMARK INTER:                 -10.594
REMARK INTRA:                  -1.497
REMARK UNBOUND:                -0.496
REMARK  Name = 
REMARK  8 active torsions:
REMARK  status: ('A' for Active; 'I' for Inactive)
REMARK    1  A    between atoms: N_1  and  C_2
REMARK    2  A    between atoms: C_2  and  C_3
REMARK    3  A    between atoms: C_3  and  N_4
REMARK    4  A    between atoms: C_3  and  C_17
REMARK    5  A    between atoms: C_5  and  C_7
REMARK    6  A    between atoms: C_20  and  O_21
REMARK    7  A    between atoms: O_21  and  C_22
REMARK    8  A    between atoms: C_22  and  C_23
REMARK                            x       y       z     vdW  Elec       q    Type
REMARK                         _______ _______ _______ _____ _____    ______ ____
ROOT
ATOM      1  C   UNL     1      47.721   4.732  14.805  0.00  0.00    +0.000 C 
ENDROOT
BRANCH   1   2
ATOM      2  C   UNL     1      46.726   4.744  13.653  0.00  0.00    +0.000 A 
ATOM      3  C   UNL     1      46.592   5.904  12.870  0.00  0.00    +0.000 A 
ATOM      4  C   UNL     1      45.865   5.876  11.679  0.00  0.00    +0.000 A 
ATOM      5  C   UNL     1      45.257   4.695  11.261  0.00  0.00    +0.000 A 
ATOM      6  C   UNL     1      45.242   3.594  12.114  0.00  0.00    +0.000 A 
ATOM      7  C   UNL     1      45.972   3.618  13.302  0.00  0.00    +0.000 A 
BRANCH   5   8
ATOM      8  O   UNL     1      44.728   4.696   9.997  0.00  0.00    +0.000 OA
BRANCH   8   9
ATOM      9  C   UNL     1      44.454   3.382   9.486  0.00  0.00    +0.000 C 
BRANCH   9  10
ATOM     10  C   UNL     1      45.487   2.977   8.465  0.00  0.00    +0.000 A 
ATOM     11  C   UNL     1      45.958   1.665   8.430  0.00  0.00    +0.000 A 
ATOM     12  C   UNL     1      46.863   1.304   7.436  0.00  0.00    +0.000 A 
ATOM     13  C   UNL     1      47.270   2.255   6.508  0.00  0.00    +0.000 A 
ATOM     14  C   UNL     1      46.748   3.534   6.608  0.00  0.00    +0.000 A 
ATOM     15  N   UNL     1      45.865   3.912   7.557  0.00  0.00    +0.000 NA
ENDBRANCH   9  10
ENDBRANCH   8   9
ENDBRANCH   5   8
ENDBRANCH   1   2
BRANCH   1  16
ATOM     16  N   UNL     1      47.667   5.988  15.531  0.00  0.00    +0.000 N 
ATOM     17  C   UNL     1      48.807   6.672  15.864  0.00  0.00    +0.000 C 
ATOM     18  O   UNL     1      49.919   6.285  15.514  0.00  0.00    +0.000 OA
ATOM     19  H   UNL     1      46.786   6.220  15.982  0.00  0.00    +0.000 HD
BRANCH  17  20
ATOM     20  C   UNL     1      48.651   7.890  16.658  0.00  0.00    +0.000 A 
ATOM     21  C   UNL     1      49.021   9.112  16.112  0.00  0.00    +0.000 A 
ATOM     22  S   UNL     1      48.795  10.428  17.170  0.00  0.00    +0.000 S 
ATOM     23  C   UNL     1      48.252   9.401  18.413  0.00  0.00    +0.000 A 
ATOM     24  N   UNL     1      47.938   9.906  19.638  0.00  0.00    +0.000 NA
ATOM     25  C   UNL     1      47.583   9.007  20.499  0.00  0.00    +0.000 A 
ATOM     26  N   UNL     1      47.494   7.660  20.243  0.00  0.00    +0.000 N 
ATOM     27  C   UNL     1      47.744   7.122  19.002  0.00  0.00    +0.000 A 
ATOM     28  O   UNL     1      47.562   5.927  18.775  0.00  0.00    +0.000 OA
ATOM     29  C   UNL     1      48.196   8.079  18.012  0.00  0.00    +0.000 A 
ATOM     30  H   UNL     1      47.175   7.018  20.952  0.00  0.00    +0.000 HD
ENDBRANCH  17  20
ENDBRANCH   1  16
BRANCH   1  31
ATOM     31  C   UNL     1      47.542   3.495  15.745  0.00  0.00    +0.000 C 
BRANCH  31  32
ATOM     32  N   UNL     1      46.746   3.714  16.963  0.00  0.00    +0.000 NA
ATOM     33  H   UNL     1      46.045   2.977  17.038  0.00  0.00    +0.000 HD
ATOM     34  H   UNL     1      47.341   3.557  17.779  0.00  0.00    +0.000 HD
ENDBRANCH  31  32
ENDBRANCH   1  31
TORSDOF 8
ENDMDL
MODEL 4
REMARK VINA RESULT:    -7.927      2.674      3.868
REMARK INTER + INTRA:         -11.899
REMARK INTER:                 -10.543
REMARK INTRA:                  -1.355
REMARK UNBOUND:                -0.496
REMARK  Name = 
REMARK  8 active torsions:
REMARK  status: ('A' for Active; 'I' for Inactive)
REMARK    1  A    between atoms: N_1  and  C_2
REMARK    2  A    between atoms: C_2  and  C_3
REMARK    3  A    between atoms: C_3  and  N_4
REMARK    4  A    between atoms: C_3  and  C_17
REMARK    5  A    between atoms: C_5  and  C_7
REMARK    6  A    between atoms: C_20  and  O_21
REMARK    7  A    between atoms: O_21  and  C_22
REMARK    8  A    between atoms: C_22  and  C_23
REMARK                            x       y       z     vdW  Elec       q    Type
REMARK                         _______ _______ _______ _____ _____    ______ ____
ROOT
ATOM      1  C   UNL     1      47.764   4.852  15.283  0.00  0.00    +0.000 C 
ENDROOT
BRANCH   1   2
ATOM      2  C   UNL     1      47.039   4.728  13.949  0.00  0.00    +0.000 A 
ATOM      3  C   UNL     1      46.480   3.492  13.581  0.00  0.00    +0.000 A 
ATOM      4  C   UNL     1      45.621   3.401  12.484  0.00  0.00    +0.000 A 
ATOM      5  C   UNL     1      45.320   4.538  11.739  0.00  0.00    +0.000 A 
ATOM      6  C   UNL     1      46.003   5.725  11.993  0.00  0.00    +0.000 A 
ATOM      7  C   UNL     1      46.857   5.819  13.092  0.00  0.00    +0.000 A 
BRANCH   5   8
ATOM      8  O   UNL     1      44.328   4.408  10.802  0.00  0.00    +0.000 OA
BRANCH   8   9
ATOM      9  C   UNL     1      44.180   3.070  10.301  0.00  0.00    +0.000 C 
BRANCH   9  10
ATOM     10  C   UNL     1      45.066   2.845   9.101  0.00  0.00    +0.000 A 
ATOM     11  C   UNL     1      45.373   3.907   8.251  0.00  0.00    +0.000 A 
ATOM     12  C   UNL     1      46.244   3.686   7.189  0.00  0.00    +0.000 A 
ATOM     13  C   UNL     1      46.783   2.418   7.004  0.00  0.00    +0.000 A 
ATOM     14  C   UNL     1      46.433   1.420   7.898  0.00  0.00    +0.000 A 
ATOM     15  N   UNL     1      45.595   1.607   8.941  0.00  0.00    +0.000 NA
ENDBRANCH   9  10
ENDBRANCH   8   9
ENDBRANCH   5   8
ENDBRANCH   1   2
BRANCH   1  16
ATOM     16  N   UNL     1      47.778   6.235  15.722  0.00  0.00    +0.000 N 
ATOM     17  C   UNL     1      48.951   6.881  16.016  0.00  0.00    +0.000 C 
ATOM     18  O   UNL     1      50.042   6.339  15.866  0.00  0.00    +0.000 OA
ATOM     19  H   UNL     1      46.892   6.630  16.026  0.00  0.00    +0.000 HD
BRANCH  17  20
ATOM     20  C   UNL     1      48.855   8.251  16.520  0.00  0.00    +0.000 A 
ATOM     21  C   UNL     1      49.354   9.295  15.754  0.00  0.00    +0.000 A 
ATOM     22  S   UNL     1      49.183  10.822  16.490  0.00  0.00    +0.000 S 
ATOM     23  C   UNL     1      48.489  10.131  17.881  0.00  0.00    +0.000 A 
ATOM     24  N   UNL     1      48.152  10.911  18.945  0.00  0.00    +0.000 NA
ATOM     25  C   UNL     1      47.678  10.248  19.950  0.00  0.00    +0.000 A 
ATOM     26  N   UNL     1      47.491   8.887  19.980  0.00  0.00    +0.000 N 
ATOM     27  C   UNL     1      47.761   8.076  18.904  0.00  0.00    +0.000 A 
ATOM     28  O   UNL     1      47.492   6.876  18.924  0.00  0.00    +0.000 OA
ATOM     29  C   UNL     1      48.345   8.761  17.767  0.00  0.00    +0.000 A 
ATOM     30  H   UNL     1      47.080   8.439  20.786  0.00  0.00    +0.000 HD
ENDBRANCH  17  20
ENDBRANCH   1  16
BRANCH   1  31
ATOM     31  C   UNL     1      47.191   3.889  16.374  0.00  0.00    +0.000 C 
BRANCH  31  32
ATOM     32  N   UNL     1      46.752   4.516  17.629  0.00  0.00    +0.000 NA
ATOM     33  H   UNL     1      47.478   4.389  18.335  0.00  0.00    +0.000 HD
ATOM     34  H   UNL     1      46.725   5.530  17.500  0.00  0.00    +0.000 HD
ENDBRANCH  31  32
ENDBRANCH   1  31
TORSDOF 8
ENDMDL
MODEL 5
REMARK VINA RESULT:    -7.903      4.494      8.561
REMARK INTER + INTRA:         -11.864
REMARK INTER:                 -10.778
REMARK INTRA:                  -1.086
REMARK UNBOUND:                -0.496
REMARK  Name = 
REMARK  8 active torsions:
REMARK  status: ('A' for Active; 'I' for Inactive)
REMARK    1  A    between atoms: N_1  and  C_2
REMARK    2  A    between atoms: C_2  and  C_3
REMARK    3  A    between atoms: C_3  and  N_4
REMARK    4  A    between atoms: C_3  and  C_17
REMARK    5  A    between atoms: C_5  and  C_7
REMARK    6  A    between atoms: C_20  and  O_21
REMARK    7  A    between atoms: O_21  and  C_22
REMARK    8  A    between atoms: C_22  and  C_23
REMARK                            x       y       z     vdW  Elec       q    Type
REMARK                         _______ _______ _______ _____ _____    ______ ____
ROOT
ATOM      1  C   UNL     1      48.624   5.673  17.086  0.00  0.00    +0.000 C 
ENDROOT
BRANCH   1   2
ATOM      2  C   UNL     1      49.496   4.425  17.115  0.00  0.00    +0.000 A 
ATOM      3  C   UNL     1      50.851   4.540  17.472  0.00  0.00    +0.000 A 
ATOM      4  C   UNL     1      51.616   3.400  17.729  0.00  0.00    +0.000 A 
ATOM      5  C   UNL     1      51.040   2.136  17.624  0.00  0.00    +0.000 A 
ATOM      6  C   UNL     1      49.754   2.011  17.106  0.00  0.00    +0.000 A 
ATOM      7  C   UNL     1      48.986   3.148  16.853  0.00  0.00    +0.000 A 
BRANCH   5   8
ATOM      8  O   UNL     1      51.794   1.084  18.074  0.00  0.00    +0.000 OA
BRANCH   8   9
ATOM      9  C   UNL     1      53.188   1.191  17.745  0.00  0.00    +0.000 C 
BRANCH   9  10
ATOM     10  C   UNL     1      53.850  -0.163  17.770  0.00  0.00    +0.000 A 
ATOM     11  C   UNL     1      54.676  -0.556  16.717  0.00  0.00    +0.000 A 
ATOM     12  C   UNL     1      55.325  -1.784  16.796  0.00  0.00    +0.000 A 
ATOM     13  C   UNL     1      55.136  -2.582  17.918  0.00  0.00    +0.000 A 
ATOM     14  C   UNL     1      54.306  -2.115  18.924  0.00  0.00    +0.000 A 
ATOM     15  N   UNL     1      53.668  -0.926  18.877  0.00  0.00    +0.000 NA
ENDBRANCH   9  10
ENDBRANCH   8   9
ENDBRANCH   5   8
ENDBRANCH   1   2
BRANCH   1  16
ATOM     16  N   UNL     1      47.740   5.642  15.935  0.00  0.00    +0.000 N 
ATOM     17  C   UNL     1      48.122   6.159  14.724  0.00  0.00    +0.000 C 
ATOM     18  O   UNL     1      49.247   6.617  14.543  0.00  0.00    +0.000 OA
ATOM     19  H   UNL     1      46.759   5.443  16.114  0.00  0.00    +0.000 HD
BRANCH  17  20
ATOM     20  C   UNL     1      47.134   6.146  13.646  0.00  0.00    +0.000 A 
ATOM     21  C   UNL     1      46.727   7.345  13.079  0.00  0.00    +0.000 A 
ATOM     22  S   UNL     1      45.560   7.158  11.852  0.00  0.00    +0.000 S 
ATOM     23  C   UNL     1      45.517   5.472  12.079  0.00  0.00    +0.000 A 
ATOM     24  N   UNL     1      44.658   4.701  11.359  0.00  0.00    +0.000 NA
ATOM     25  C   UNL     1      44.700   3.445  11.666  0.00  0.00    +0.000 A 
ATOM     26  N   UNL     1      45.532   2.890  12.608  0.00  0.00    +0.000 N 
ATOM     27  C   UNL     1      46.455   3.628  13.311  0.00  0.00    +0.000 A 
ATOM     28  O   UNL     1      47.255   3.092  14.076  0.00  0.00    +0.000 OA
ATOM     29  C   UNL     1      46.415   5.052  13.043  0.00  0.00    +0.000 A 
ATOM     30  H   UNL     1      45.539   1.894  12.772  0.00  0.00    +0.000 HD
ENDBRANCH  17  20
ENDBRANCH   1  16
BRANCH   1  31
ATOM     31  C   UNL     1      47.848   5.900  18.424  0.00  0.00    +0.000 C 
BRANCH  31  32
ATOM     32  N   UNL     1      46.555   5.212  18.550  0.00  0.00    +0.000 NA
ATOM     33  H   UNL     1      46.496   4.782  19.474  0.00  0.00    +0.000 HD
ATOM     34  H   UNL     1      45.809   5.910  18.569  0.00  0.00    +0.000 HD
ENDBRANCH  31  32
ENDBRANCH   1  31
TORSDOF 8
ENDMDL
MODEL 6
REMARK VINA RESULT:    -7.667      2.887      4.262
REMARK INTER + INTRA:         -11.525
REMARK INTER:                 -10.295
REMARK INTRA:                  -1.230
REMARK UNBOUND:                -0.496
REMARK  Name = 
REMARK  8 active torsions:
REMARK  status: ('A' for Active; 'I' for Inactive)
REMARK    1  A    between atoms: N_1  and  C_2
REMARK    2  A    between atoms: C_2  and  C_3
REMARK    3  A    between atoms: C_3  and  N_4
REMARK    4  A    between atoms: C_3  and  C_17
REMARK    5  A    between atoms: C_5  and  C_7
REMARK    6  A    between atoms: C_20  and  O_21
REMARK    7  A    between atoms: O_21  and  C_22
REMARK    8  A    between atoms: C_22  and  C_23
REMARK                            x       y       z     vdW  Elec       q    Type
REMARK                         _______ _______ _______ _____ _____    ______ ____
ROOT
ATOM      1  C   UNL     1      46.227   7.830  13.087  0.00  0.00    +0.000 C 
ENDROOT
BRANCH   1   2
ATOM      2  C   UNL     1      45.678   6.484  12.632  0.00  0.00    +0.000 A 
ATOM      3  C   UNL     1      44.822   6.430  11.519  0.00  0.00    +0.000 A 
ATOM      4  C   UNL     1      44.485   5.204  10.942  0.00  0.00    +0.000 A 
ATOM      5  C   UNL     1      44.993   4.021  11.473  0.00  0.00    +0.000 A 
ATOM      6  C   UNL     1      45.699   4.057  12.674  0.00  0.00    +0.000 A 
ATOM      7  C   UNL     1      46.039   5.281  13.250  0.00  0.00    +0.000 A 
BRANCH   5   8
ATOM      8  O   UNL     1      44.776   2.882  10.743  0.00  0.00    +0.000 OA
BRANCH   8   9
ATOM      9  C   UNL     1      44.351   3.134   9.395  0.00  0.00    +0.000 C 
BRANCH   9  10
ATOM     10  C   UNL     1      45.457   2.823   8.417  0.00  0.00    +0.000 A 
ATOM     11  C   UNL     1      46.003   1.541   8.365  0.00  0.00    +0.000 A 
ATOM     12  C   UNL     1      46.976   1.265   7.409  0.00  0.00    +0.000 A 
ATOM     13  C   UNL     1      47.376   2.269   6.536  0.00  0.00    +0.000 A 
ATOM     14  C   UNL     1      46.778   3.514   6.649  0.00  0.00    +0.000 A 
ATOM     15  N   UNL     1      45.827   3.809   7.562  0.00  0.00    +0.000 NA
ENDBRANCH   9  10
ENDBRANCH   8   9
ENDBRANCH   5   8
ENDBRANCH   1   2
BRANCH   1  16
ATOM     16  N   UNL     1      47.673   7.773  13.194  0.00  0.00    +0.000 N 
ATOM     17  C   UNL     1      48.341   8.403  14.213  0.00  0.00    +0.000 C 
ATOM     18  O   UNL     1      47.744   8.992  15.109  0.00  0.00    +0.000 OA
ATOM     19  H   UNL     1      48.184   7.456  12.374  0.00  0.00    +0.000 HD
BRANCH  17  20
ATOM     20  C   UNL     1      49.802   8.348  14.193  0.00  0.00    +0.000 A 
ATOM     21  C   UNL     1      50.483   7.900  15.317  0.00  0.00    +0.000 A 
ATOM     22  S   UNL     1      52.177   7.915  15.138  0.00  0.00    +0.000 S 
ATOM     23  C   UNL     1      52.059   8.576  13.575  0.00  0.00    +0.000 A 
ATOM     24  N   UNL     1      53.180   8.889  12.871  0.00  0.00    +0.000 NA
ATOM     25  C   UNL     1      52.941   9.425  11.718  0.00  0.00    +0.000 A 
ATOM     26  N   UNL     1      51.690   9.655  11.198  0.00  0.00    +0.000 N 
ATOM     27  C   UNL     1      50.536   9.295  11.853  0.00  0.00    +0.000 A 
ATOM     28  O   UNL     1      49.434   9.422  11.323  0.00  0.00    +0.000 OA
ATOM     29  C   UNL     1      50.745   8.737  13.175  0.00  0.00    +0.000 A 
ATOM     30  H   UNL     1      51.577  10.043  10.274  0.00  0.00    +0.000 HD
ENDBRANCH  17  20
ENDBRANCH   1  16
BRANCH   1  31
ATOM     31  C   UNL     1      45.745   9.014  12.187  0.00  0.00    +0.000 C 
BRANCH  31  32
ATOM     32  N   UNL     1      44.594   9.782  12.685  0.00  0.00    +0.000 NA
ATOM     33  H   UNL     1      44.852  10.236  13.562  0.00  0.00    +0.000 HD
ATOM     34  H   UNL     1      44.423  10.568  12.055  0.00  0.00    +0.000 HD
ENDBRANCH  31  32
ENDBRANCH   1  31
TORSDOF 8
ENDMDL
MODEL 7
REMARK VINA RESULT:    -7.483      2.242      2.912
REMARK INTER + INTRA:         -11.260
REMARK INTER:                  -9.959
REMARK INTRA:                  -1.301
REMARK UNBOUND:                -0.496
REMARK  Name = 
REMARK  8 active torsions:
REMARK  status: ('A' for Active; 'I' for Inactive)
REMARK    1  A    between atoms: N_1  and  C_2
REMARK    2  A    between atoms: C_2  and  C_3
REMARK    3  A    between atoms: C_3  and  N_4
REMARK    4  A    between atoms: C_3  and  C_17
REMARK    5  A    between atoms: C_5  and  C_7
REMARK    6  A    between atoms: C_20  and  O_21
REMARK    7  A    between atoms: O_21  and  C_22
REMARK    8  A    between atoms: C_22  and  C_23
REMARK                            x       y       z     vdW  Elec       q    Type
REMARK                         _______ _______ _______ _____ _____    ______ ____
ROOT
ATOM      1  C   UNL     1      48.161   7.558  14.141  0.00  0.00    +0.000 C 
ENDROOT
BRANCH   1   2
ATOM      2  C   UNL     1      47.247   6.697  13.280  0.00  0.00    +0.000 A 
ATOM      3  C   UNL     1      47.050   5.347  13.621  0.00  0.00    +0.000 A 
ATOM      4  C   UNL     1      46.053   4.596  12.996  0.00  0.00    +0.000 A 
ATOM      5  C   UNL     1      45.248   5.180  12.021  0.00  0.00    +0.000 A 
ATOM      6  C   UNL     1      45.550   6.459  11.560  0.00  0.00    +0.000 A 
ATOM      7  C   UNL     1      46.543   7.213  12.186  0.00  0.00    +0.000 A 
BRANCH   5   8
ATOM      8  O   UNL     1      44.175   4.443  11.595  0.00  0.00    +0.000 OA
BRANCH   8   9
ATOM      9  C   UNL     1      43.860   4.632  10.206  0.00  0.00    +0.000 C 
BRANCH   9  10
ATOM     10  C   UNL     1      44.795   3.836   9.331  0.00  0.00    +0.000 A 
ATOM     11  C   UNL     1      44.863   2.449   9.463  0.00  0.00    +0.000 A 
ATOM     12  C   UNL     1      45.686   1.733   8.598  0.00  0.00    +0.000 A 
ATOM     13  C   UNL     1      46.413   2.416   7.630  0.00  0.00    +0.000 A 
ATOM     14  C   UNL     1      46.282   3.793   7.561  0.00  0.00    +0.000 A 
ATOM     15  N   UNL     1      45.488   4.513   8.381  0.00  0.00    +0.000 NA
ENDBRANCH   9  10
ENDBRANCH   8   9
ENDBRANCH   5   8
ENDBRANCH   1   2
BRANCH   1  16
ATOM     16  N   UNL     1      48.416   6.907  15.413  0.00  0.00    +0.000 N 
ATOM     17  C   UNL     1      48.517   7.624  16.577  0.00  0.00    +0.000 C 
ATOM     18  O   UNL     1      48.338   8.839  16.605  0.00  0.00    +0.000 OA
ATOM     19  H   UNL     1      48.747   5.947  15.379  0.00  0.00    +0.000 HD
BRANCH  17  20
ATOM     20  C   UNL     1      48.847   6.885  17.794  0.00  0.00    +0.000 A 
ATOM     21  C   UNL     1      48.005   6.970  18.894  0.00  0.00    +0.000 A 
ATOM     22  S   UNL     1      48.541   6.067  20.235  0.00  0.00    +0.000 S 
ATOM     23  C   UNL     1      49.947   5.579  19.410  0.00  0.00    +0.000 A 
ATOM     24  N   UNL     1      50.882   4.813  20.034  0.00  0.00    +0.000 NA
ATOM     25  C   UNL     1      51.919   4.555  19.304  0.00  0.00    +0.000 A 
ATOM     26  N   UNL     1      52.095   4.973  18.007  0.00  0.00    +0.000 N 
ATOM     27  C   UNL     1      51.145   5.696  17.325  0.00  0.00    +0.000 A 
ATOM     28  O   UNL     1      51.284   5.973  16.134  0.00  0.00    +0.000 OA
ATOM     29  C   UNL     1      49.984   6.058  18.114  0.00  0.00    +0.000 A 
ATOM     30  H   UNL     1      52.913   4.704  17.482  0.00  0.00    +0.000 HD
ENDBRANCH  17  20
ENDBRANCH   1  16
BRANCH   1  31
ATOM     31  C   UNL     1      49.481   7.961  13.405  0.00  0.00    +0.000 C 
BRANCH  31  32
ATOM     32  N   UNL     1      50.065   6.946  12.516  0.00  0.00    +0.000 NA
ATOM     33  H   UNL     1      49.959   7.252  11.548  0.00  0.00    +0.000 HD
ATOM     34  H   UNL     1      51.078   6.934  12.649  0.00  0.00    +0.000 HD
ENDBRANCH  31  32
ENDBRANCH   1  31
TORSDOF 8
ENDMDL
MODEL 8
REMARK VINA RESULT:    -7.407      2.293      4.083
REMARK INTER + INTRA:         -11.150
REMARK INTER:                 -10.082
REMARK INTRA:                  -1.068
REMARK UNBOUND:                -0.496
REMARK  Name = 
REMARK  8 active torsions:
REMARK  status: ('A' for Active; 'I' for Inactive)
REMARK    1  A    between atoms: N_1  and  C_2
REMARK    2  A    between atoms: C_2  and  C_3
REMARK    3  A    between atoms: C_3  and  N_4
REMARK    4  A    between atoms: C_3  and  C_17
REMARK    5  A    between atoms: C_5  and  C_7
REMARK    6  A    between atoms: C_20  and  O_21
REMARK    7  A    between atoms: O_21  and  C_22
REMARK    8  A    between atoms: C_22  and  C_23
REMARK                            x       y       z     vdW  Elec       q    Type
REMARK                         _______ _______ _______ _____ _____    ______ ____
ROOT
ATOM      1  C   UNL     1      47.527   4.826  15.224  0.00  0.00    +0.000 C 
ENDROOT
BRANCH   1   2
ATOM      2  C   UNL     1      46.762   5.134  13.944  0.00  0.00    +0.000 A 
ATOM      3  C   UNL     1      47.225   6.153  13.093  0.00  0.00    +0.000 A 
ATOM      4  C   UNL     1      46.686   6.308  11.814  0.00  0.00    +0.000 A 
ATOM      5  C   UNL     1      45.676   5.456  11.375  0.00  0.00    +0.000 A 
ATOM      6  C   UNL     1      45.097   4.561  12.272  0.00  0.00    +0.000 A 
ATOM      7  C   UNL     1      45.636   4.401  13.549  0.00  0.00    +0.000 A 
BRANCH   5   8
ATOM      8  O   UNL     1      45.334   5.546  10.052  0.00  0.00    +0.000 OA
BRANCH   8   9
ATOM      9  C   UNL     1      44.596   4.413   9.568  0.00  0.00    +0.000 C 
BRANCH   9  10
ATOM     10  C   UNL     1      45.461   3.545   8.688  0.00  0.00    +0.000 A 
ATOM     11  C   UNL     1      45.513   2.168   8.901  0.00  0.00    +0.000 A 
ATOM     12  C   UNL     1      46.268   1.384   8.034  0.00  0.00    +0.000 A 
ATOM     13  C   UNL     1      46.946   1.991   6.984  0.00  0.00    +0.000 A 
ATOM     14  C   UNL     1      46.836   3.364   6.838  0.00  0.00    +0.000 A 
ATOM     15  N   UNL     1      46.106   4.149   7.659  0.00  0.00    +0.000 NA
ENDBRANCH   9  10
ENDBRANCH   8   9
ENDBRANCH   5   8
ENDBRANCH   1   2
BRANCH   1  16
ATOM     16  N   UNL     1      47.879   6.055  15.909  0.00  0.00    +0.000 N 
ATOM     17  C   UNL     1      49.072   6.190  16.570  0.00  0.00    +0.000 C 
ATOM     18  O   UNL     1      49.919   5.301  16.563  0.00  0.00    +0.000 OA
ATOM     19  H   UNL     1      47.127   6.718  16.081  0.00  0.00    +0.000 HD
BRANCH  17  20
ATOM     20  C   UNL     1      49.303   7.442  17.290  0.00  0.00    +0.000 A 
ATOM     21  C   UNL     1      49.733   7.401  18.609  0.00  0.00    +0.000 A 
ATOM     22  S   UNL     1      49.936   8.941  19.309  0.00  0.00    +0.000 S 
ATOM     23  C   UNL     1      49.400   9.713  17.890  0.00  0.00    +0.000 A 
ATOM     24  N   UNL     1      49.283  11.068  17.844  0.00  0.00    +0.000 NA
ATOM     25  C   UNL     1      48.821  11.514  16.721  0.00  0.00    +0.000 A 
ATOM     26  N   UNL     1      48.488  10.736  15.639  0.00  0.00    +0.000 N 
ATOM     27  C   UNL     1      48.651   9.371  15.627  0.00  0.00    +0.000 A 
ATOM     28  O   UNL     1      48.438   8.709  14.612  0.00  0.00    +0.000 OA
ATOM     29  C   UNL     1      49.116   8.811  16.881  0.00  0.00    +0.000 A 
ATOM     30  H   UNL     1      48.168  11.155  14.778  0.00  0.00    +0.000 HD
ENDBRANCH  17  20
ENDBRANCH   1  16
BRANCH   1  31
ATOM     31  C   UNL     1      46.768   3.824  16.155  0.00  0.00    +0.000 C 
BRANCH  31  32
ATOM     32  N   UNL     1      47.081   3.905  17.589  0.00  0.00    +0.000 NA
ATOM     33  H   UNL     1      47.401   2.991  17.911  0.00  0.00    +0.000 HD
ATOM     34  H   UNL     1      47.903   4.499  17.715  0.00  0.00    +0.000 HD
ENDBRANCH  31  32
ENDBRANCH   1  31
TORSDOF 8
ENDMDL
MODEL 9
REMARK VINA RESULT:    -7.220      3.723      8.075
REMARK INTER + INTRA:         -10.882
REMARK INTER:                  -9.774
REMARK INTRA:                  -1.108
REMARK UNBOUND:                -0.496
REMARK  Name = 
REMARK  8 active torsions:
REMARK  status: ('A' for Active; 'I' for Inactive)
REMARK    1  A    between atoms: N_1  and  C_2
REMARK    2  A    between atoms: C_2  and  C_3
REMARK    3  A    between atoms: C_3  and  N_4
REMARK    4  A    between atoms: C_3  and  C_17
REMARK    5  A    between atoms: C_5  and  C_7
REMARK    6  A    between atoms: C_20  and  O_21
REMARK    7  A    between atoms: O_21  and  C_22
REMARK    8  A    between atoms: C_22  and  C_23
REMARK                            x       y       z     vdW  Elec       q    Type
REMARK                         _______ _______ _______ _____ _____    ______ ____
ROOT
ATOM      1  C   UNL     1      49.019   7.285  15.472  0.00  0.00    +0.000 C 
ENDROOT
BRANCH   1   2
ATOM      2  C   UNL     1      49.408   6.147  16.406  0.00  0.00    +0.000 A 
ATOM      3  C   UNL     1      48.459   5.158  16.720  0.00  0.00    +0.000 A 
ATOM      4  C   UNL     1      48.844   3.991  17.383  0.00  0.00    +0.000 A 
ATOM      5  C   UNL     1      50.174   3.803  17.747  0.00  0.00    +0.000 A 
ATOM      6  C   UNL     1      51.081   4.849  17.594  0.00  0.00    +0.000 A 
ATOM      7  C   UNL     1      50.700   6.014  16.927  0.00  0.00    +0.000 A 
BRANCH   5   8
ATOM      8  O   UNL     1      50.508   2.560  18.218  0.00  0.00    +0.000 OA
BRANCH   8   9
ATOM      9  C   UNL     1      51.189   1.742  17.255  0.00  0.00    +0.000 C 
BRANCH   9  10
ATOM     10  C   UNL     1      52.554   1.345  17.758  0.00  0.00    +0.000 A 
ATOM     11  C   UNL     1      53.507   2.323  18.040  0.00  0.00    +0.000 A 
ATOM     12  C   UNL     1      54.735   1.931  18.565  0.00  0.00    +0.000 A 
ATOM     13  C   UNL     1      54.978   0.582  18.793  0.00  0.00    +0.000 A 
ATOM     14  C   UNL     1      53.975  -0.325  18.493  0.00  0.00    +0.000 A 
ATOM     15  N   UNL     1      52.773   0.026  17.990  0.00  0.00    +0.000 NA
ENDBRANCH   9  10
ENDBRANCH   8   9
ENDBRANCH   5   8
ENDBRANCH   1   2
BRANCH   1  16
ATOM     16  N   UNL     1      47.810   6.947  14.744  0.00  0.00    +0.000 N 
ATOM     17  C   UNL     1      47.857   6.461  13.463  0.00  0.00    +0.000 C 
ATOM     18  O   UNL     1      48.922   6.235  12.896  0.00  0.00    +0.000 OA
ATOM     19  H   UNL     1      46.933   7.299  15.120  0.00  0.00    +0.000 HD
BRANCH  17  20
ATOM     20  C   UNL     1      46.581   6.220  12.789  0.00  0.00    +0.000 A 
ATOM     21  C   UNL     1      45.890   7.288  12.234  0.00  0.00    +0.000 A 
ATOM     22  S   UNL     1      44.417   6.841  11.504  0.00  0.00    +0.000 S 
ATOM     23  C   UNL     1      44.626   5.215  11.957  0.00  0.00    +0.000 A 
ATOM     24  N   UNL     1      43.667   4.291  11.676  0.00  0.00    +0.000 NA
ATOM     25  C   UNL     1      43.937   3.106  12.118  0.00  0.00    +0.000 A 
ATOM     26  N   UNL     1      45.082   2.757  12.794  0.00  0.00    +0.000 N 
ATOM     27  C   UNL     1      46.099   3.648  13.042  0.00  0.00    +0.000 A 
ATOM     28  O   UNL     1      47.154   3.287  13.561  0.00  0.00    +0.000 OA
ATOM     29  C   UNL     1      45.825   5.006  12.613  0.00  0.00    +0.000 A 
ATOM     30  H   UNL     1      45.245   1.803  13.078  0.00  0.00    +0.000 HD
ENDBRANCH  17  20
ENDBRANCH   1  16
BRANCH   1  31
ATOM     31  C   UNL     1      48.905   8.660  16.207  0.00  0.00    +0.000 C 
BRANCH  31  32
ATOM     32  N   UNL     1      47.566   9.267  16.246  0.00  0.00    +0.000 NA
ATOM     33  H   UNL     1      47.057   8.896  17.049  0.00  0.00    +0.000 HD
ATOM     34  H   UNL     1      47.660  10.260  16.467  0.00  0.00    +0.000 HD
ENDBRANCH  31  32
ENDBRANCH   1  31
TORSDOF 8
ENDMDL
