MODEL 1
REMARK VINA RESULT:    -7.524      0.000      0.000
REMARK INTER + INTRA:          -8.818
REMARK INTER:                  -8.404
REMARK INTRA:                  -0.415
REMARK UNBOUND:                -0.415
REMARK  Name = 
REMARK  2 active torsions:
REMARK  status: ('A' for Active; 'I' for Inactive)
REMARK    1  A    between atoms: C_8  and  C_9
REMARK    2  A    between atoms: C_13  and  C_14
REMARK                            x       y       z     vdW  Elec       q    Type
REMARK                         _______ _______ _______ _____ _____    ______ ____
ROOT
ATOM      1  C   UNL     1      45.108   5.054  12.512  0.00  0.00    +0.000 A 
ATOM      2  C   UNL     1      43.780   5.484  12.479  0.00  0.00    +0.000 A 
ATOM      3  C   UNL     1      42.978   5.217  11.362  0.00  0.00    +0.000 A 
ATOM      4  C   UNL     1      43.503   4.543  10.254  0.00  0.00    +0.000 A 
ATOM      5  C   UNL     1      44.831   4.090  10.242  0.00  0.00    +0.000 A 
ATOM      6  C   UNL     1      45.599   4.321  11.405  0.00  0.00    +0.000 A 
ENDROOT
BRANCH   1  14
ATOM      7 BR   UNL     1      48.000   4.419  17.931  0.00  0.00    +0.000 Br
ATOM      8  C   UNL     1      48.145   5.110  16.165  0.00  0.00    +0.000 C 
ATOM      9  N   UNL     1      48.895   6.152  16.141  0.00  0.00    +0.000 NA
ATOM     10  C   UNL     1      49.488   6.740  15.063  0.00  0.00    +0.000 C 
ATOM     11  C   UNL     1      48.878   7.326  14.050  0.00  0.00    +0.000 C 
ATOM     12  O   UNL     1      47.527   7.364  13.893  0.00  0.00    +0.000 OA
ATOM     13  C   UNL     1      47.146   6.354  12.966  0.00  0.00    +0.000 C 
ATOM     14  C   UNL     1      46.058   5.517  13.633  0.00  0.00    +0.000 C 
ATOM     15  C   UNL     1      46.715   4.346  14.340  0.00  0.00    +0.000 C 
ATOM     16  N   UNL     1      47.623   4.225  15.260  0.00  0.00    +0.000 NA
ENDBRANCH   1  14
BRANCH   5  17
ATOM     17  C   UNL     1      45.428   3.461   9.044  0.00  0.00    +0.000 A 
ATOM     18  N   UNL     1      45.808   4.261   8.027  0.00  0.00    +0.000 NA
ATOM     19  C   UNL     1      46.401   3.662   6.977  0.00  0.00    +0.000 A 
ATOM     20  C   UNL     1      46.624   2.309   6.900  0.00  0.00    +0.000 A 
ATOM     21  C   UNL     1      46.204   1.579   7.986  0.00  0.00    +0.000 A 
ATOM     22  N   UNL     1      45.614   2.124   9.066  0.00  0.00    +0.000 NA
ENDBRANCH   5  17
TORSDOF 2
ENDMDL
MODEL 2
REMARK VINA RESULT:    -7.245      1.275      1.462
REMARK INTER + INTRA:          -8.507
REMARK INTER:                  -8.090
REMARK INTRA:                  -0.417
REMARK UNBOUND:                -0.415
REMARK  Name = 
REMARK  2 active torsions:
REMARK  status: ('A' for Active; 'I' for Inactive)
REMARK    1  A    between atoms: C_8  and  C_9
REMARK    2  A    between atoms: C_13  and  C_14
REMARK                            x       y       z     vdW  Elec       q    Type
REMARK                         _______ _______ _______ _____ _____    ______ ____
ROOT
ATOM      1  C   UNL     1      45.076   5.588  12.267  0.00  0.00    +0.000 A 
ATOM      2  C   UNL     1      43.687   5.704  12.347  0.00  0.00    +0.000 A 
ATOM      3  C   UNL     1      42.870   5.096  11.385  0.00  0.00    +0.000 A 
ATOM      4  C   UNL     1      43.434   4.389  10.317  0.00  0.00    +0.000 A 
ATOM      5  C   UNL     1      44.824   4.243  10.197  0.00  0.00    +0.000 A 
ATOM      6  C   UNL     1      45.620   4.816  11.213  0.00  0.00    +0.000 A 
ENDROOT
BRANCH   1  14
ATOM      7 BR   UNL     1      49.371   6.264  16.652  0.00  0.00    +0.000 Br
ATOM      8  C   UNL     1      48.667   6.993  15.043  0.00  0.00    +0.000 C 
ATOM      9  N   UNL     1      48.817   8.268  15.013  0.00  0.00    +0.000 NA
ATOM     10  C   UNL     1      48.736   9.101  13.938  0.00  0.00    +0.000 C 
ATOM     11  C   UNL     1      47.662   9.351  13.212  0.00  0.00    +0.000 C 
ATOM     12  O   UNL     1      46.462   8.735  13.392  0.00  0.00    +0.000 OA
ATOM     13  C   UNL     1      46.332   7.696  12.429  0.00  0.00    +0.000 C 
ATOM     14  C   UNL     1      45.990   6.417  13.189  0.00  0.00    +0.000 C 
ATOM     15  C   UNL     1      47.281   5.689  13.513  0.00  0.00    +0.000 C 
ATOM     16  N   UNL     1      48.367   5.993  14.156  0.00  0.00    +0.000 NA
ENDBRANCH   1  14
BRANCH   5  17
ATOM     17  C   UNL     1      45.438   3.581   9.025  0.00  0.00    +0.000 A 
ATOM     18  N   UNL     1      45.873   4.356   8.011  0.00  0.00    +0.000 NA
ATOM     19  C   UNL     1      46.480   3.725   6.987  0.00  0.00    +0.000 A 
ATOM     20  C   UNL     1      46.664   2.365   6.934  0.00  0.00    +0.000 A 
ATOM     21  C   UNL     1      46.190   1.663   8.015  0.00  0.00    +0.000 A 
ATOM     22  N   UNL     1      45.584   2.239   9.070  0.00  0.00    +0.000 NA
ENDBRANCH   5  17
TORSDOF 2
ENDMDL
MODEL 3
REMARK VINA RESULT:    -7.097      3.011      3.461
REMARK INTER + INTRA:          -8.341
REMARK INTER:                  -7.898
REMARK INTRA:                  -0.443
REMARK UNBOUND:                -0.415
REMARK  Name = 
REMARK  2 active torsions:
REMARK  status: ('A' for Active; 'I' for Inactive)
REMARK    1  A    between atoms: C_8  and  C_9
REMARK    2  A    between atoms: C_13  and  C_14
REMARK                            x       y       z     vdW  Elec       q    Type
REMARK                         _______ _______ _______ _____ _____    ______ ____
ROOT
ATOM      1  C   UNL     1      44.951   6.205  11.690  0.00  0.00    +0.000 A 
ATOM      2  C   UNL     1      43.644   5.896  12.072  0.00  0.00    +0.000 A 
ATOM      3  C   UNL     1      42.969   4.822  11.477  0.00  0.00    +0.000 A 
ATOM      4  C   UNL     1      43.581   4.065  10.472  0.00  0.00    +0.000 A 
ATOM      5  C   UNL     1      44.894   4.337  10.057  0.00  0.00    +0.000 A 
ATOM      6  C   UNL     1      45.571   5.387  10.716  0.00  0.00    +0.000 A 
ENDROOT
BRANCH   1  14
ATOM      7 BR   UNL     1      49.746   9.501  13.757  0.00  0.00    +0.000 Br
ATOM      8  C   UNL     1      48.168   9.552  12.695  0.00  0.00    +0.000 C 
ATOM      9  N   UNL     1      47.642  10.724  12.712  0.00  0.00    +0.000 NA
ATOM     10  C   UNL     1      46.714  11.244  11.860  0.00  0.00    +0.000 C 
ATOM     11  C   UNL     1      45.467  10.839  11.710  0.00  0.00    +0.000 C 
ATOM     12  O   UNL     1      44.934   9.762  12.349  0.00  0.00    +0.000 OA
ATOM     13  C   UNL     1      44.937   8.653  11.459  0.00  0.00    +0.000 C 
ATOM     14  C   UNL     1      45.629   7.499  12.178  0.00  0.00    +0.000 C 
ATOM     15  C   UNL     1      47.106   7.531  11.833  0.00  0.00    +0.000 C 
ATOM     16  N   UNL     1      48.055   8.409  11.951  0.00  0.00    +0.000 NA
ENDBRANCH   1  14
BRANCH   5  17
ATOM     17  C   UNL     1      45.521   3.607   8.933  0.00  0.00    +0.000 A 
ATOM     18  N   UNL     1      46.025   4.326   7.910  0.00  0.00    +0.000 NA
ATOM     19  C   UNL     1      46.641   3.634   6.932  0.00  0.00    +0.000 A 
ATOM     20  C   UNL     1      46.769   2.266   6.934  0.00  0.00    +0.000 A 
ATOM     21  C   UNL     1      46.226   1.624   8.020  0.00  0.00    +0.000 A 
ATOM     22  N   UNL     1      45.607   2.263   9.030  0.00  0.00    +0.000 NA
ENDBRANCH   5  17
TORSDOF 2
ENDMDL
MODEL 4
REMARK VINA RESULT:    -6.560      2.076      2.989
REMARK INTER + INTRA:          -7.742
REMARK INTER:                  -7.324
REMARK INTRA:                  -0.418
REMARK UNBOUND:                -0.415
REMARK  Name = 
REMARK  2 active torsions:
REMARK  status: ('A' for Active; 'I' for Inactive)
REMARK    1  A    between atoms: C_8  and  C_9
REMARK    2  A    between atoms: C_13  and  C_14
REMARK                            x       y       z     vdW  Elec       q    Type
REMARK                         _______ _______ _______ _____ _____    ______ ____
ROOT
ATOM      1  C   UNL     1      46.890   5.906  13.449  0.00  0.00    +0.000 A 
ATOM      2  C   UNL     1      46.620   7.270  13.318  0.00  0.00    +0.000 A 
ATOM      3  C   UNL     1      45.882   7.743  12.225  0.00  0.00    +0.000 A 
ATOM      4  C   UNL     1      45.431   6.861  11.236  0.00  0.00    +0.000 A 
ATOM      5  C   UNL     1      45.676   5.482  11.327  0.00  0.00    +0.000 A 
ATOM      6  C   UNL     1      46.371   5.027  12.469  0.00  0.00    +0.000 A 
ENDROOT
BRANCH   1  14
ATOM      7 BR   UNL     1      51.723   6.476  17.250  0.00  0.00    +0.000 Br
ATOM      8  C   UNL     1      50.002   5.695  17.032  0.00  0.00    +0.000 C 
ATOM      9  N   UNL     1      49.922   4.580  17.663  0.00  0.00    +0.000 NA
ATOM     10  C   UNL     1      48.802   3.885  18.009  0.00  0.00    +0.000 C 
ATOM     11  C   UNL     1      47.938   3.321  17.186  0.00  0.00    +0.000 C 
ATOM     12  O   UNL     1      48.003   3.419  15.830  0.00  0.00    +0.000 OA
ATOM     13  C   UNL     1      47.089   4.420  15.399  0.00  0.00    +0.000 C 
ATOM     14  C   UNL     1      47.869   5.397  14.523  0.00  0.00    +0.000 C 
ATOM     15  C   UNL     1      48.388   6.522  15.399  0.00  0.00    +0.000 C 
ATOM     16  N   UNL     1      49.141   6.589  16.454  0.00  0.00    +0.000 NA
ENDBRANCH   1  14
BRANCH   5  17
ATOM     17  C   UNL     1      45.289   4.551  10.245  0.00  0.00    +0.000 A 
ATOM     18  N   UNL     1      45.599   4.885   8.976  0.00  0.00    +0.000 NA
ATOM     19  C   UNL     1      45.285   3.988   8.022  0.00  0.00    +0.000 A 
ATOM     20  C   UNL     1      44.675   2.785   8.281  0.00  0.00    +0.000 A 
ATOM     21  C   UNL     1      44.401   2.535   9.603  0.00  0.00    +0.000 A 
ATOM     22  N   UNL     1      44.700   3.389  10.600  0.00  0.00    +0.000 NA
ENDBRANCH   5  17
TORSDOF 2
ENDMDL
MODEL 5
REMARK VINA RESULT:    -6.326      3.055      7.502
REMARK INTER + INTRA:          -7.481
REMARK INTER:                  -7.051
REMARK INTRA:                  -0.430
REMARK UNBOUND:                -0.415
REMARK  Name = 
REMARK  2 active torsions:
REMARK  status: ('A' for Active; 'I' for Inactive)
REMARK    1  A    between atoms: C_8  and  C_9
REMARK    2  A    between atoms: C_13  and  C_14
REMARK                            x       y       z     vdW  Elec       q    Type
REMARK                         _______ _______ _______ _____ _____    ______ ____
ROOT
ATOM      1  C   UNL     1      47.373   6.191  13.350  0.00  0.00    +0.000 A 
ATOM      2  C   UNL     1      48.034   7.406  13.159  0.00  0.00    +0.000 A 
ATOM      3  C   UNL     1      48.898   7.903  14.143  0.00  0.00    +0.000 A 
ATOM      4  C   UNL     1      49.087   7.206  15.342  0.00  0.00    +0.000 A 
ATOM      5  C   UNL     1      48.446   5.980  15.577  0.00  0.00    +0.000 A 
ATOM      6  C   UNL     1      47.628   5.474  14.543  0.00  0.00    +0.000 A 
ENDROOT
BRANCH   1  14
ATOM      7 BR   UNL     1      44.735   2.198   9.447  0.00  0.00    +0.000 Br
ATOM      8  C   UNL     1      44.406   3.532  10.763  0.00  0.00    +0.000 C 
ATOM      9  N   UNL     1      43.303   4.147  10.526  0.00  0.00    +0.000 NA
ATOM     10  C   UNL     1      42.575   4.927  11.373  0.00  0.00    +0.000 C 
ATOM     11  C   UNL     1      42.944   6.081  11.897  0.00  0.00    +0.000 C 
ATOM     12  O   UNL     1      44.172   6.638  11.721  0.00  0.00    +0.000 OA
ATOM     13  C   UNL     1      44.967   6.365  12.869  0.00  0.00    +0.000 C 
ATOM     14  C   UNL     1      46.268   5.735  12.379  0.00  0.00    +0.000 C 
ATOM     15  C   UNL     1      46.102   4.227  12.374  0.00  0.00    +0.000 C 
ATOM     16  N   UNL     1      45.279   3.398  11.809  0.00  0.00    +0.000 NA
ENDBRANCH   1  14
BRANCH   5  17
ATOM     17  C   UNL     1      48.562   5.278  16.874  0.00  0.00    +0.000 A 
ATOM     18  N   UNL     1      48.280   5.967  17.998  0.00  0.00    +0.000 NA
ATOM     19  C   UNL     1      48.338   5.283  19.157  0.00  0.00    +0.000 A 
ATOM     20  C   UNL     1      48.667   3.951  19.237  0.00  0.00    +0.000 A 
ATOM     21  C   UNL     1      48.934   3.336  18.038  0.00  0.00    +0.000 A 
ATOM     22  N   UNL     1      48.884   3.967  16.850  0.00  0.00    +0.000 NA
ENDBRANCH   5  17
TORSDOF 2
ENDMDL
MODEL 6
REMARK VINA RESULT:    -6.177      2.794      3.613
REMARK INTER + INTRA:          -7.314
REMARK INTER:                  -6.935
REMARK INTRA:                  -0.379
REMARK UNBOUND:                -0.415
REMARK  Name = 
REMARK  2 active torsions:
REMARK  status: ('A' for Active; 'I' for Inactive)
REMARK    1  A    between atoms: C_8  and  C_9
REMARK    2  A    between atoms: C_13  and  C_14
REMARK                            x       y       z     vdW  Elec       q    Type
REMARK                         _______ _______ _______ _____ _____    ______ ____
ROOT
ATOM      1  C   UNL     1      47.225   7.077  12.977  0.00  0.00    +0.000 A 
ATOM      2  C   UNL     1      46.499   8.270  12.976  0.00  0.00    +0.000 A 
ATOM      3  C   UNL     1      45.339   8.390  12.200  0.00  0.00    +0.000 A 
ATOM      4  C   UNL     1      44.909   7.331  11.394  0.00  0.00    +0.000 A 
ATOM      5  C   UNL     1      45.605   6.113  11.364  0.00  0.00    +0.000 A 
ATOM      6  C   UNL     1      46.737   5.999  12.202  0.00  0.00    +0.000 A 
ENDROOT
BRANCH   1  14
ATOM      7 BR   UNL     1      53.161   8.640  13.648  0.00  0.00    +0.000 Br
ATOM      8  C   UNL     1      51.578   8.122  14.567  0.00  0.00    +0.000 C 
ATOM      9  N   UNL     1      51.862   7.468  15.635  0.00  0.00    +0.000 NA
ATOM     10  C   UNL     1      51.054   7.202  16.700  0.00  0.00    +0.000 C 
ATOM     11  C   UNL     1      49.966   6.454  16.697  0.00  0.00    +0.000 C 
ATOM     12  O   UNL     1      49.437   5.884  15.581  0.00  0.00    +0.000 OA
ATOM     13  C   UNL     1      48.353   6.687  15.127  0.00  0.00    +0.000 C 
ATOM     14  C   UNL     1      48.606   6.997  13.655  0.00  0.00    +0.000 C 
ATOM     15  C   UNL     1      49.362   8.309  13.561  0.00  0.00    +0.000 C 
ATOM     16  N   UNL     1      50.487   8.753  14.032  0.00  0.00    +0.000 NA
ENDBRANCH   1  14
BRANCH   5  17
ATOM     17  C   UNL     1      45.219   5.018  10.447  0.00  0.00    +0.000 A 
ATOM     18  N   UNL     1      45.617   5.094   9.161  0.00  0.00    +0.000 NA
ATOM     19  C   UNL     1      45.299   4.053   8.368  0.00  0.00    +0.000 A 
ATOM     20  C   UNL     1      44.601   2.952   8.803  0.00  0.00    +0.000 A 
ATOM     21  C   UNL     1      44.242   2.966  10.129  0.00  0.00    +0.000 A 
ATOM     22  N   UNL     1      44.540   3.974  10.970  0.00  0.00    +0.000 NA
ENDBRANCH   5  17
TORSDOF 2
ENDMDL
MODEL 7
REMARK VINA RESULT:    -6.168      2.630      4.247
REMARK INTER + INTRA:          -7.304
REMARK INTER:                  -6.855
REMARK INTRA:                  -0.449
REMARK UNBOUND:                -0.415
REMARK  Name = 
REMARK  2 active torsions:
REMARK  status: ('A' for Active; 'I' for Inactive)
REMARK    1  A    between atoms: C_8  and  C_9
REMARK    2  A    between atoms: C_13  and  C_14
REMARK                            x       y       z     vdW  Elec       q    Type
REMARK                         _______ _______ _______ _____ _____    ______ ____
ROOT
ATOM      1  C   UNL     1      47.985   6.230  14.283  0.00  0.00    +0.000 A 
ATOM      2  C   UNL     1      48.499   7.202  13.423  0.00  0.00    +0.000 A 
ATOM      3  C   UNL     1      47.944   7.385  12.150  0.00  0.00    +0.000 A 
ATOM      4  C   UNL     1      46.888   6.578  11.711  0.00  0.00    +0.000 A 
ATOM      5  C   UNL     1      46.336   5.591  12.542  0.00  0.00    +0.000 A 
ATOM      6  C   UNL     1      46.877   5.469  13.841  0.00  0.00    +0.000 A 
ENDROOT
BRANCH   1  14
ATOM      7 BR   UNL     1      51.346   7.569  19.287  0.00  0.00    +0.000 Br
ATOM      8  C   UNL     1      49.953   6.471  18.600  0.00  0.00    +0.000 C 
ATOM      9  N   UNL     1      49.932   5.333  19.194  0.00  0.00    +0.000 NA
ATOM     10  C   UNL     1      48.928   4.411  19.216  0.00  0.00    +0.000 C 
ATOM     11  C   UNL     1      48.462   3.727  18.188  0.00  0.00    +0.000 C 
ATOM     12  O   UNL     1      48.880   3.902  16.905  0.00  0.00    +0.000 OA
ATOM     13  C   UNL     1      47.936   4.721  16.224  0.00  0.00    +0.000 C 
ATOM     14  C   UNL     1      48.710   5.875  15.595  0.00  0.00    +0.000 C 
ATOM     15  C   UNL     1      48.722   7.037  16.570  0.00  0.00    +0.000 C 
ATOM     16  N   UNL     1      49.122   7.201  17.794  0.00  0.00    +0.000 NA
ENDBRANCH   1  14
BRANCH   5  17
ATOM     17  C   UNL     1      45.284   4.669  12.060  0.00  0.00    +0.000 A 
ATOM     18  N   UNL     1      45.030   4.628  10.737  0.00  0.00    +0.000 NA
ATOM     19  C   UNL     1      44.109   3.736  10.326  0.00  0.00    +0.000 A 
ATOM     20  C   UNL     1      43.434   2.895  11.177  0.00  0.00    +0.000 A 
ATOM     21  C   UNL     1      43.763   3.010  12.505  0.00  0.00    +0.000 A 
ATOM     22  N   UNL     1      44.682   3.876  12.972  0.00  0.00    +0.000 NA
ENDBRANCH   5  17
TORSDOF 2
ENDMDL
MODEL 8
REMARK VINA RESULT:    -6.006      3.473      3.973
REMARK INTER + INTRA:          -7.124
REMARK INTER:                  -6.719
REMARK INTRA:                  -0.404
REMARK UNBOUND:                -0.415
REMARK  Name = 
REMARK  2 active torsions:
REMARK  status: ('A' for Active; 'I' for Inactive)
REMARK    1  A    between atoms: C_8  and  C_9
REMARK    2  A    between atoms: C_13  and  C_14
REMARK                            x       y       z     vdW  Elec       q    Type
REMARK                         _______ _______ _______ _____ _____    ______ ____
ROOT
ATOM      1  C   UNL     1      45.262   5.411  10.685  0.00  0.00    +0.000 A 
ATOM      2  C   UNL     1      44.069   4.943  11.241  0.00  0.00    +0.000 A 
ATOM      3  C   UNL     1      43.539   3.709  10.843  0.00  0.00    +0.000 A 
ATOM      4  C   UNL     1      44.180   2.942   9.863  0.00  0.00    +0.000 A 
ATOM      5  C   UNL     1      45.382   3.370   9.278  0.00  0.00    +0.000 A 
ATOM      6  C   UNL     1      45.923   4.589   9.742  0.00  0.00    +0.000 A 
ENDROOT
BRANCH   1  14
ATOM      7 BR   UNL     1      44.475  11.515  11.179  0.00  0.00    +0.000 Br
ATOM      8  C   UNL     1      45.420  10.011  11.859  0.00  0.00    +0.000 C 
ATOM      9  N   UNL     1      46.585  10.353  12.277  0.00  0.00    +0.000 NA
ATOM     10  C   UNL     1      47.425   9.658  13.095  0.00  0.00    +0.000 C 
ATOM     11  C   UNL     1      48.011   8.506  12.829  0.00  0.00    +0.000 C 
ATOM     12  O   UNL     1      47.797   7.787  11.694  0.00  0.00    +0.000 OA
ATOM     13  C   UNL     1      46.870   6.746  11.980  0.00  0.00    +0.000 C 
ATOM     14  C   UNL     1      45.746   6.848  10.953  0.00  0.00    +0.000 C 
ATOM     15  C   UNL     1      44.645   7.721  11.527  0.00  0.00    +0.000 C 
ATOM     16  N   UNL     1      44.583   8.935  11.981  0.00  0.00    +0.000 NA
ENDBRANCH   1  14
BRANCH   5  17
ATOM     17  C   UNL     1      46.021   2.618   8.176  0.00  0.00    +0.000 A 
ATOM     18  N   UNL     1      46.268   1.305   8.361  0.00  0.00    +0.000 NA
ATOM     19  C   UNL     1      46.795   0.637   7.317  0.00  0.00    +0.000 A 
ATOM     20  C   UNL     1      47.088   1.224   6.110  0.00  0.00    +0.000 A 
ATOM     21  C   UNL     1      46.799   2.563   6.019  0.00  0.00    +0.000 A 
ATOM     22  N   UNL     1      46.263   3.279   7.025  0.00  0.00    +0.000 NA
ENDBRANCH   5  17
TORSDOF 2
ENDMDL
MODEL 9
REMARK VINA RESULT:    -5.957      3.451      5.031
REMARK INTER + INTRA:          -7.069
REMARK INTER:                  -6.595
REMARK INTRA:                  -0.474
REMARK UNBOUND:                -0.415
REMARK  Name = 
REMARK  2 active torsions:
REMARK  status: ('A' for Active; 'I' for Inactive)
REMARK    1  A    between atoms: C_8  and  C_9
REMARK    2  A    between atoms: C_13  and  C_14
REMARK                            x       y       z     vdW  Elec       q    Type
REMARK                         _______ _______ _______ _____ _____    ______ ____
ROOT
ATOM      1  C   UNL     1      46.442   5.577  12.950  0.00  0.00    +0.000 A 
ATOM      2  C   UNL     1      45.531   4.619  12.502  0.00  0.00    +0.000 A 
ATOM      3  C   UNL     1      44.440   4.996  11.708  0.00  0.00    +0.000 A 
ATOM      4  C   UNL     1      44.232   6.340  11.378  0.00  0.00    +0.000 A 
ATOM      5  C   UNL     1      45.123   7.338  11.803  0.00  0.00    +0.000 A 
ATOM      6  C   UNL     1      46.245   6.921  12.552  0.00  0.00    +0.000 A 
ENDROOT
BRANCH   1  14
ATOM      7 BR   UNL     1      51.411   6.767  16.418  0.00  0.00    +0.000 Br
ATOM      8  C   UNL     1      49.755   5.833  16.345  0.00  0.00    +0.000 C 
ATOM      9  N   UNL     1      49.807   4.753  17.038  0.00  0.00    +0.000 NA
ATOM     10  C   UNL     1      48.772   3.989  17.486  0.00  0.00    +0.000 C 
ATOM     11  C   UNL     1      47.916   3.308  16.747  0.00  0.00    +0.000 C 
ATOM     12  O   UNL     1      47.897   3.333  15.387  0.00  0.00    +0.000 OA
ATOM     13  C   UNL     1      46.878   4.228  14.960  0.00  0.00    +0.000 C 
ATOM     14  C   UNL     1      47.520   5.214  13.989  0.00  0.00    +0.000 C 
ATOM     15  C   UNL     1      47.987   6.427  14.771  0.00  0.00    +0.000 C 
ATOM     16  N   UNL     1      48.789   6.617  15.774  0.00  0.00    +0.000 NA
ENDBRANCH   1  14
BRANCH   5  17
ATOM     17  C   UNL     1      44.867   8.772  11.542  0.00  0.00    +0.000 A 
ATOM     18  N   UNL     1      43.702   9.114  10.955  0.00  0.00    +0.000 NA
ATOM     19  C   UNL     1      43.475  10.431  10.786  0.00  0.00    +0.000 A 
ATOM     20  C   UNL     1      44.359  11.409  11.172  0.00  0.00    +0.000 A 
ATOM     21  C   UNL     1      45.515  10.961  11.763  0.00  0.00    +0.000 A 
ATOM     22  N   UNL     1      45.791   9.660  11.966  0.00  0.00    +0.000 NA
ENDBRANCH   5  17
TORSDOF 2
ENDMDL
