MODEL 1
REMARK VINA RESULT:    -7.123      0.000      0.000
REMARK INTER + INTRA:          -9.417
REMARK INTER:                  -8.996
REMARK INTRA:                  -0.421
REMARK UNBOUND:                -0.421
REMARK  Name = 
REMARK  5 active torsions:
REMARK  status: ('A' for Active; 'I' for Inactive)
REMARK    1  A    between atoms: N_1  and  C_2
REMARK    2  A    between atoms: C_2  and  C_3
REMARK    3  A    between atoms: C_6  and  O_7
REMARK    4  A    between atoms: O_7  and  C_8
REMARK    5  A    between atoms: C_8  and  C_9
REMARK                            x       y       z     vdW  Elec       q    Type
REMARK                         _______ _______ _______ _____ _____    ______ ____
ROOT
ATOM      1  C   UNL     1      46.544   2.138   7.655  0.00  0.00    +0.000 A 
ATOM      2  C   UNL     1      46.275   3.505   7.589  0.00  0.00    +0.000 A 
ATOM      3  C   UNL     1      45.248   4.037   8.373  0.00  0.00    +0.000 A 
ATOM      4  C   UNL     1      44.520   3.194   9.199  0.00  0.00    +0.000 A 
ATOM      5  C   UNL     1      44.851   1.844   9.195  0.00  0.00    +0.000 A 
ATOM      6  N   UNL     1      45.836   1.297   8.448  0.00  0.00    +0.000 NA
ENDROOT
BRANCH   1   7
ATOM      7  C   UNL     1      47.689   1.533   6.871  0.00  0.00    +0.000 C 
BRANCH   7   8
ATOM      8  N   UNL     1      48.608   2.549   6.347  0.00  0.00    +0.000 NA
ATOM      9  H   UNL     1      49.039   2.180   5.500  0.00  0.00    +0.000 HD
ATOM     10  H   UNL     1      49.369   2.652   7.018  0.00  0.00    +0.000 HD
ENDBRANCH   7   8
ENDBRANCH   1   7
BRANCH   4  11
ATOM     11  O   UNL     1      43.546   3.549  10.082  0.00  0.00    +0.000 OA
BRANCH  11  12
ATOM     12  C   UNL     1      43.531   2.908  11.355  0.00  0.00    +0.000 C 
BRANCH  12  13
ATOM     13  C   UNL     1      44.088   3.887  12.400  0.00  0.00    +0.000 C 
ATOM     14  C   UNL     1      45.616   3.785  12.535  0.00  0.00    +0.000 C 
ATOM     15  C   UNL     1      46.125   4.804  13.552  0.00  0.00    +0.000 C 
ATOM     16  C   UNL     1      45.633   6.214  13.227  0.00  0.00    +0.000 C 
ATOM     17  N   UNL     1      44.178   6.266  13.078  0.00  0.00    +0.000 NA
ATOM     18  C   UNL     1      43.712   5.335  12.046  0.00  0.00    +0.000 C 
ATOM     19  H   UNL     1      43.905   7.214  12.817  0.00  0.00    +0.000 HD
ENDBRANCH  12  13
ENDBRANCH  11  12
ENDBRANCH   4  11
TORSDOF 5
ENDMDL
MODEL 2
REMARK VINA RESULT:    -6.888      1.507      1.979
REMARK INTER + INTRA:          -9.121
REMARK INTER:                  -8.887
REMARK INTRA:                  -0.233
REMARK UNBOUND:                -0.421
REMARK  Name = 
REMARK  5 active torsions:
REMARK  status: ('A' for Active; 'I' for Inactive)
REMARK    1  A    between atoms: N_1  and  C_2
REMARK    2  A    between atoms: C_2  and  C_3
REMARK    3  A    between atoms: C_6  and  O_7
REMARK    4  A    between atoms: O_7  and  C_8
REMARK    5  A    between atoms: C_8  and  C_9
REMARK                            x       y       z     vdW  Elec       q    Type
REMARK                         _______ _______ _______ _____ _____    ______ ____
ROOT
ATOM      1  C   UNL     1      46.563   2.782   6.867  0.00  0.00    +0.000 A 
ATOM      2  C   UNL     1      46.419   1.662   7.686  0.00  0.00    +0.000 A 
ATOM      3  C   UNL     1      45.545   1.720   8.774  0.00  0.00    +0.000 A 
ATOM      4  C   UNL     1      44.838   2.890   9.014  0.00  0.00    +0.000 A 
ATOM      5  C   UNL     1      45.050   3.958   8.151  0.00  0.00    +0.000 A 
ATOM      6  N   UNL     1      45.890   3.936   7.092  0.00  0.00    +0.000 NA
ENDROOT
BRANCH   1   7
ATOM      7  C   UNL     1      47.451   2.739   5.641  0.00  0.00    +0.000 C 
BRANCH   7   8
ATOM      8  N   UNL     1      48.541   1.767   5.773  0.00  0.00    +0.000 NA
ATOM      9  H   UNL     1      48.983   1.660   4.861  0.00  0.00    +0.000 HD
ATOM     10  H   UNL     1      48.123   0.860   5.981  0.00  0.00    +0.000 HD
ENDBRANCH   7   8
ENDBRANCH   1   7
BRANCH   4  11
ATOM     11  O   UNL     1      43.893   3.096   9.971  0.00  0.00    +0.000 OA
BRANCH  11  12
ATOM     12  C   UNL     1      43.884   4.354  10.642  0.00  0.00    +0.000 C 
BRANCH  12  13
ATOM     13  C   UNL     1      45.164   4.466  11.485  0.00  0.00    +0.000 C 
ATOM     14  C   UNL     1      45.363   5.881  12.053  0.00  0.00    +0.000 C 
ATOM     15  C   UNL     1      46.622   5.931  12.916  0.00  0.00    +0.000 C 
ATOM     16  C   UNL     1      46.614   4.838  13.984  0.00  0.00    +0.000 C 
ATOM     17  N   UNL     1      46.394   3.511  13.409  0.00  0.00    +0.000 NA
ATOM     18  C   UNL     1      45.144   3.458  12.645  0.00  0.00    +0.000 C 
ATOM     19  H   UNL     1      46.351   2.825  14.164  0.00  0.00    +0.000 HD
ENDBRANCH  12  13
ENDBRANCH  11  12
ENDBRANCH   4  11
TORSDOF 5
ENDMDL
MODEL 3
REMARK VINA RESULT:    -6.818      1.904      5.777
REMARK INTER + INTRA:          -9.032
REMARK INTER:                  -8.692
REMARK INTRA:                  -0.340
REMARK UNBOUND:                -0.421
REMARK  Name = 
REMARK  5 active torsions:
REMARK  status: ('A' for Active; 'I' for Inactive)
REMARK    1  A    between atoms: N_1  and  C_2
REMARK    2  A    between atoms: C_2  and  C_3
REMARK    3  A    between atoms: C_6  and  O_7
REMARK    4  A    between atoms: O_7  and  C_8
REMARK    5  A    between atoms: C_8  and  C_9
REMARK                            x       y       z     vdW  Elec       q    Type
REMARK                         _______ _______ _______ _____ _____    ______ ____
ROOT
ATOM      1  C   UNL     1      46.329   4.487  13.455  0.00  0.00    +0.000 A 
ATOM      2  C   UNL     1      46.126   5.550  12.574  0.00  0.00    +0.000 A 
ATOM      3  C   UNL     1      45.437   5.324  11.380  0.00  0.00    +0.000 A 
ATOM      4  C   UNL     1      44.969   4.049  11.098  0.00  0.00    +0.000 A 
ATOM      5  C   UNL     1      45.223   3.049  12.029  0.00  0.00    +0.000 A 
ATOM      6  N   UNL     1      45.888   3.233  13.191  0.00  0.00    +0.000 NA
ENDROOT
BRANCH   1   7
ATOM      7  C   UNL     1      47.013   4.703  14.787  0.00  0.00    +0.000 C 
BRANCH   7   8
ATOM      8  N   UNL     1      47.442   3.445  15.408  0.00  0.00    +0.000 NA
ATOM      9  H   UNL     1      47.851   3.662  16.316  0.00  0.00    +0.000 HD
ATOM     10  H   UNL     1      48.206   3.069  14.847  0.00  0.00    +0.000 HD
ENDBRANCH   7   8
ENDBRANCH   1   7
BRANCH   4  11
ATOM     11  O   UNL     1      44.216   3.668  10.029  0.00  0.00    +0.000 OA
BRANCH  11  12
ATOM     12  C   UNL     1      44.525   2.427   9.402  0.00  0.00    +0.000 C 
BRANCH  12  13
ATOM     13  C   UNL     1      45.784   2.615   8.541  0.00  0.00    +0.000 C 
ATOM     14  C   UNL     1      46.306   1.283   7.977  0.00  0.00    +0.000 C 
ATOM     15  C   UNL     1      47.529   1.527   7.096  0.00  0.00    +0.000 C 
ATOM     16  C   UNL     1      47.247   2.577   6.022  0.00  0.00    +0.000 C 
ATOM     17  N   UNL     1      46.726   3.819   6.594  0.00  0.00    +0.000 NA
ATOM     18  C   UNL     1      45.508   3.580   7.376  0.00  0.00    +0.000 C 
ATOM     19  H   UNL     1      46.511   4.468   5.837  0.00  0.00    +0.000 HD
ENDBRANCH  12  13
ENDBRANCH  11  12
ENDBRANCH   4  11
TORSDOF 5
ENDMDL
MODEL 4
REMARK VINA RESULT:    -5.964      2.147      5.497
REMARK INTER + INTRA:          -7.953
REMARK INTER:                  -7.690
REMARK INTRA:                  -0.263
REMARK UNBOUND:                -0.421
REMARK  Name = 
REMARK  5 active torsions:
REMARK  status: ('A' for Active; 'I' for Inactive)
REMARK    1  A    between atoms: N_1  and  C_2
REMARK    2  A    between atoms: C_2  and  C_3
REMARK    3  A    between atoms: C_6  and  O_7
REMARK    4  A    between atoms: O_7  and  C_8
REMARK    5  A    between atoms: C_8  and  C_9
REMARK                            x       y       z     vdW  Elec       q    Type
REMARK                         _______ _______ _______ _____ _____    ______ ____
ROOT
ATOM      1  C   UNL     1      47.167   6.000  13.452  0.00  0.00    +0.000 A 
ATOM      2  C   UNL     1      45.983   6.484  12.897  0.00  0.00    +0.000 A 
ATOM      3  C   UNL     1      45.016   5.578  12.452  0.00  0.00    +0.000 A 
ATOM      4  C   UNL     1      45.256   4.217  12.574  0.00  0.00    +0.000 A 
ATOM      5  C   UNL     1      46.466   3.824  13.133  0.00  0.00    +0.000 A 
ATOM      6  N   UNL     1      47.423   4.674  13.570  0.00  0.00    +0.000 NA
ENDROOT
BRANCH   1   7
ATOM      7  C   UNL     1      48.210   6.947  14.005  0.00  0.00    +0.000 C 
BRANCH   7   8
ATOM      8  N   UNL     1      49.511   6.795  13.345  0.00  0.00    +0.000 NA
ATOM      9  H   UNL     1      50.000   6.015  13.783  0.00  0.00    +0.000 HD
ATOM     10  H   UNL     1      50.066   7.623  13.564  0.00  0.00    +0.000 HD
ENDBRANCH   7   8
ENDBRANCH   1   7
BRANCH   4  11
ATOM     11  O   UNL     1      44.402   3.202  12.270  0.00  0.00    +0.000 OA
BRANCH  11  12
ATOM     12  C   UNL     1      43.827   3.180  10.966  0.00  0.00    +0.000 C 
BRANCH  12  13
ATOM     13  C   UNL     1      44.962   3.210   9.932  0.00  0.00    +0.000 C 
ATOM     14  C   UNL     1      45.028   1.917   9.104  0.00  0.00    +0.000 C 
ATOM     15  C   UNL     1      46.142   2.011   8.064  0.00  0.00    +0.000 C 
ATOM     16  C   UNL     1      46.010   3.275   7.214  0.00  0.00    +0.000 C 
ATOM     17  N   UNL     1      45.922   4.482   8.037  0.00  0.00    +0.000 NA
ATOM     18  C   UNL     1      44.802   4.407   8.980  0.00  0.00    +0.000 C 
ATOM     19  H   UNL     1      45.789   5.289   7.427  0.00  0.00    +0.000 HD
ENDBRANCH  12  13
ENDBRANCH  11  12
ENDBRANCH   4  11
TORSDOF 5
ENDMDL
MODEL 5
REMARK VINA RESULT:    -5.951      1.850      5.937
REMARK INTER + INTRA:          -7.937
REMARK INTER:                  -7.662
REMARK INTRA:                  -0.275
REMARK UNBOUND:                -0.421
REMARK  Name = 
REMARK  5 active torsions:
REMARK  status: ('A' for Active; 'I' for Inactive)
REMARK    1  A    between atoms: N_1  and  C_2
REMARK    2  A    between atoms: C_2  and  C_3
REMARK    3  A    between atoms: C_6  and  O_7
REMARK    4  A    between atoms: O_7  and  C_8
REMARK    5  A    between atoms: C_8  and  C_9
REMARK                            x       y       z     vdW  Elec       q    Type
REMARK                         _______ _______ _______ _____ _____    ______ ____
ROOT
ATOM      1  C   UNL     1      44.552   6.979  11.341  0.00  0.00    +0.000 A 
ATOM      2  C   UNL     1      43.367   6.271  11.142  0.00  0.00    +0.000 A 
ATOM      3  C   UNL     1      43.424   4.894  10.913  0.00  0.00    +0.000 A 
ATOM      4  C   UNL     1      44.659   4.262  10.889  0.00  0.00    +0.000 A 
ATOM      5  C   UNL     1      45.788   5.046  11.089  0.00  0.00    +0.000 A 
ATOM      6  N   UNL     1      45.768   6.380  11.311  0.00  0.00    +0.000 NA
ENDROOT
BRANCH   1   7
ATOM      7  C   UNL     1      44.529   8.459  11.657  0.00  0.00    +0.000 C 
BRANCH   7   8
ATOM      8  N   UNL     1      43.459   9.167  10.946  0.00  0.00    +0.000 NA
ATOM      9  H   UNL     1      43.478   8.874   9.971  0.00  0.00    +0.000 HD
ATOM     10  H   UNL     1      43.699  10.159  10.938  0.00  0.00    +0.000 HD
ENDBRANCH   7   8
ENDBRANCH   1   7
BRANCH   4  11
ATOM     11  O   UNL     1      44.896   2.928  10.759  0.00  0.00    +0.000 OA
BRANCH  11  12
ATOM     12  C   UNL     1      44.651   2.325   9.491  0.00  0.00    +0.000 C 
BRANCH  12  13
ATOM     13  C   UNL     1      45.882   2.546   8.600  0.00  0.00    +0.000 C 
ATOM     14  C   UNL     1      46.383   1.238   7.966  0.00  0.00    +0.000 C 
ATOM     15  C   UNL     1      47.579   1.515   7.058  0.00  0.00    +0.000 C 
ATOM     16  C   UNL     1      47.267   2.608   6.037  0.00  0.00    +0.000 C 
ATOM     17  N   UNL     1      46.767   3.827   6.675  0.00  0.00    +0.000 NA
ATOM     18  C   UNL     1      45.574   3.558   7.484  0.00  0.00    +0.000 C 
ATOM     19  H   UNL     1      46.531   4.507   5.952  0.00  0.00    +0.000 HD
ENDBRANCH  12  13
ENDBRANCH  11  12
ENDBRANCH   4  11
TORSDOF 5
ENDMDL
MODEL 6
REMARK VINA RESULT:    -5.933      1.695      6.088
REMARK INTER + INTRA:          -7.915
REMARK INTER:                  -7.555
REMARK INTRA:                  -0.360
REMARK UNBOUND:                -0.421
REMARK  Name = 
REMARK  5 active torsions:
REMARK  status: ('A' for Active; 'I' for Inactive)
REMARK    1  A    between atoms: N_1  and  C_2
REMARK    2  A    between atoms: C_2  and  C_3
REMARK    3  A    between atoms: C_6  and  O_7
REMARK    4  A    between atoms: O_7  and  C_8
REMARK    5  A    between atoms: C_8  and  C_9
REMARK                            x       y       z     vdW  Elec       q    Type
REMARK                         _______ _______ _______ _____ _____    ______ ____
ROOT
ATOM      1  C   UNL     1      46.138   6.724  12.613  0.00  0.00    +0.000 A 
ATOM      2  C   UNL     1      45.812   5.536  13.268  0.00  0.00    +0.000 A 
ATOM      3  C   UNL     1      45.288   4.472  12.531  0.00  0.00    +0.000 A 
ATOM      4  C   UNL     1      45.105   4.619  11.164  0.00  0.00    +0.000 A 
ATOM      5  C   UNL     1      45.450   5.840  10.596  0.00  0.00    +0.000 A 
ATOM      6  N   UNL     1      45.956   6.890  11.280  0.00  0.00    +0.000 NA
ENDROOT
BRANCH   1   7
ATOM      7  C   UNL     1      46.768   7.877  13.364  0.00  0.00    +0.000 C 
BRANCH   7   8
ATOM      8  N   UNL     1      48.148   7.593  13.774  0.00  0.00    +0.000 NA
ATOM      9  H   UNL     1      48.241   6.586  13.899  0.00  0.00    +0.000 HD
ATOM     10  H   UNL     1      48.283   7.997  14.701  0.00  0.00    +0.000 HD
ENDBRANCH   7   8
ENDBRANCH   1   7
BRANCH   4  11
ATOM     11  O   UNL     1      44.684   3.669  10.285  0.00  0.00    +0.000 OA
BRANCH  11  12
ATOM     12  C   UNL     1      44.485   4.055   8.927  0.00  0.00    +0.000 C 
BRANCH  12  13
ATOM     13  C   UNL     1      45.190   3.035   8.021  0.00  0.00    +0.000 C 
ATOM     14  C   UNL     1      46.366   3.657   7.251  0.00  0.00    +0.000 C 
ATOM     15  C   UNL     1      47.059   2.597   6.398  0.00  0.00    +0.000 C 
ATOM     16  C   UNL     1      47.452   1.377   7.231  0.00  0.00    +0.000 C 
ATOM     17  N   UNL     1      46.313   0.830   7.971  0.00  0.00    +0.000 NA
ATOM     18  C   UNL     1      45.704   1.840   8.841  0.00  0.00    +0.000 C 
ATOM     19  H   UNL     1      46.635   0.049   8.545  0.00  0.00    +0.000 HD
ENDBRANCH  12  13
ENDBRANCH  11  12
ENDBRANCH   4  11
TORSDOF 5
ENDMDL
MODEL 7
REMARK VINA RESULT:    -5.852      2.518      6.340
REMARK INTER + INTRA:          -7.812
REMARK INTER:                  -7.577
REMARK INTRA:                  -0.235
REMARK UNBOUND:                -0.421
REMARK  Name = 
REMARK  5 active torsions:
REMARK  status: ('A' for Active; 'I' for Inactive)
REMARK    1  A    between atoms: N_1  and  C_2
REMARK    2  A    between atoms: C_2  and  C_3
REMARK    3  A    between atoms: C_6  and  O_7
REMARK    4  A    between atoms: O_7  and  C_8
REMARK    5  A    between atoms: C_8  and  C_9
REMARK                            x       y       z     vdW  Elec       q    Type
REMARK                         _______ _______ _______ _____ _____    ______ ____
ROOT
ATOM      1  C   UNL     1      47.324   4.774  15.415  0.00  0.00    +0.000 A 
ATOM      2  C   UNL     1      47.914   5.892  14.824  0.00  0.00    +0.000 A 
ATOM      3  C   UNL     1      47.558   6.240  13.518  0.00  0.00    +0.000 A 
ATOM      4  C   UNL     1      46.626   5.468  12.841  0.00  0.00    +0.000 A 
ATOM      5  C   UNL     1      46.095   4.369  13.505  0.00  0.00    +0.000 A 
ATOM      6  N   UNL     1      46.419   4.003  14.765  0.00  0.00    +0.000 NA
ENDROOT
BRANCH   1   7
ATOM      7  C   UNL     1      47.634   4.401  16.849  0.00  0.00    +0.000 C 
BRANCH   7   8
ATOM      8  N   UNL     1      46.738   3.359  17.363  0.00  0.00    +0.000 NA
ATOM      9  H   UNL     1      46.396   3.657  18.276  0.00  0.00    +0.000 HD
ATOM     10  H   UNL     1      47.301   2.528  17.541  0.00  0.00    +0.000 HD
ENDBRANCH   7   8
ENDBRANCH   1   7
BRANCH   4  11
ATOM     11  O   UNL     1      46.107   5.705  11.605  0.00  0.00    +0.000 OA
BRANCH  11  12
ATOM     12  C   UNL     1      44.721   5.443  11.399  0.00  0.00    +0.000 C 
BRANCH  12  13
ATOM     13  C   UNL     1      44.577   4.472  10.218  0.00  0.00    +0.000 C 
ATOM     14  C   UNL     1      45.615   4.740   9.116  0.00  0.00    +0.000 C 
ATOM     15  C   UNL     1      45.459   3.725   7.986  0.00  0.00    +0.000 C 
ATOM     16  C   UNL     1      45.485   2.291   8.513  0.00  0.00    +0.000 C 
ATOM     17  N   UNL     1      44.505   2.081   9.580  0.00  0.00    +0.000 NA
ATOM     18  C   UNL     1      44.714   3.015  10.691  0.00  0.00    +0.000 C 
ATOM     19  H   UNL     1      44.594   1.126   9.928  0.00  0.00    +0.000 HD
ENDBRANCH  12  13
ENDBRANCH  11  12
ENDBRANCH   4  11
TORSDOF 5
ENDMDL
MODEL 8
REMARK VINA RESULT:    -5.144      3.521      6.025
REMARK INTER + INTRA:          -6.918
REMARK INTER:                  -6.497
REMARK INTRA:                  -0.422
REMARK UNBOUND:                -0.421
REMARK  Name = 
REMARK  5 active torsions:
REMARK  status: ('A' for Active; 'I' for Inactive)
REMARK    1  A    between atoms: N_1  and  C_2
REMARK    2  A    between atoms: C_2  and  C_3
REMARK    3  A    between atoms: C_6  and  O_7
REMARK    4  A    between atoms: O_7  and  C_8
REMARK    5  A    between atoms: C_8  and  C_9
REMARK                            x       y       z     vdW  Elec       q    Type
REMARK                         _______ _______ _______ _____ _____    ______ ____
ROOT
ATOM      1  C   UNL     1      49.491   7.645  12.868  0.00  0.00    +0.000 A 
ATOM      2  C   UNL     1      48.781   7.835  11.683  0.00  0.00    +0.000 A 
ATOM      3  C   UNL     1      47.613   7.100  11.462  0.00  0.00    +0.000 A 
ATOM      4  C   UNL     1      47.186   6.199  12.426  0.00  0.00    +0.000 A 
ATOM      5  C   UNL     1      47.960   6.069  13.573  0.00  0.00    +0.000 A 
ATOM      6  N   UNL     1      49.095   6.762  13.817  0.00  0.00    +0.000 NA
ENDROOT
BRANCH   1   7
ATOM      7  C   UNL     1      50.724   8.467  13.175  0.00  0.00    +0.000 C 
BRANCH   7   8
ATOM      8  N   UNL     1      51.905   8.004  12.437  0.00  0.00    +0.000 NA
ATOM      9  H   UNL     1      51.618   7.785  11.484  0.00  0.00    +0.000 HD
ATOM     10  H   UNL     1      52.195   7.116  12.846  0.00  0.00    +0.000 HD
ENDBRANCH   7   8
ENDBRANCH   1   7
BRANCH   4  11
ATOM     11  O   UNL     1      46.041   5.464  12.413  0.00  0.00    +0.000 OA
BRANCH  11  12
ATOM     12  C   UNL     1      44.962   5.920  11.601  0.00  0.00    +0.000 C 
BRANCH  12  13
ATOM     13  C   UNL     1      44.579   4.798  10.624  0.00  0.00    +0.000 C 
ATOM     14  C   UNL     1      45.404   4.848   9.328  0.00  0.00    +0.000 C 
ATOM     15  C   UNL     1      45.017   3.691   8.410  0.00  0.00    +0.000 C 
ATOM     16  C   UNL     1      45.100   2.348   9.136  0.00  0.00    +0.000 C 
ATOM     17  N   UNL     1      44.326   2.347  10.378  0.00  0.00    +0.000 NA
ATOM     18  C   UNL     1      44.760   3.419  11.280  0.00  0.00    +0.000 C 
ATOM     19  H   UNL     1      44.451   1.449  10.846  0.00  0.00    +0.000 HD
ENDBRANCH  12  13
ENDBRANCH  11  12
ENDBRANCH   4  11
TORSDOF 5
ENDMDL
MODEL 9
REMARK VINA RESULT:    -5.047      4.493      8.035
REMARK INTER + INTRA:          -6.796
REMARK INTER:                  -6.530
REMARK INTRA:                  -0.266
REMARK UNBOUND:                -0.421
REMARK  Name = 
REMARK  5 active torsions:
REMARK  status: ('A' for Active; 'I' for Inactive)
REMARK    1  A    between atoms: N_1  and  C_2
REMARK    2  A    between atoms: C_2  and  C_3
REMARK    3  A    between atoms: C_6  and  O_7
REMARK    4  A    between atoms: O_7  and  C_8
REMARK    5  A    between atoms: C_8  and  C_9
REMARK                            x       y       z     vdW  Elec       q    Type
REMARK                         _______ _______ _______ _____ _____    ______ ____
ROOT
ATOM      1  C   UNL     1      48.630   4.533  18.417  0.00  0.00    +0.000 A 
ATOM      2  C   UNL     1      48.754   5.562  17.484  0.00  0.00    +0.000 A 
ATOM      3  C   UNL     1      48.160   5.420  16.228  0.00  0.00    +0.000 A 
ATOM      4  C   UNL     1      47.459   4.259  15.937  0.00  0.00    +0.000 A 
ATOM      5  C   UNL     1      47.392   3.283  16.924  0.00  0.00    +0.000 A 
ATOM      6  N   UNL     1      47.957   3.388  18.148  0.00  0.00    +0.000 NA
ENDROOT
BRANCH   1   7
ATOM      7  C   UNL     1      49.203   4.674  19.811  0.00  0.00    +0.000 C 
BRANCH   7   8
ATOM      8  N   UNL     1      48.419   3.949  20.816  0.00  0.00    +0.000 NA
ATOM      9  H   UNL     1      48.157   3.046  20.423  0.00  0.00    +0.000 HD
ATOM     10  H   UNL     1      47.543   4.454  20.948  0.00  0.00    +0.000 HD
ENDBRANCH   7   8
ENDBRANCH   1   7
BRANCH   4  11
ATOM     11  O   UNL     1      46.756   3.986  14.804  0.00  0.00    +0.000 OA
BRANCH  11  12
ATOM     12  C   UNL     1      46.532   5.051  13.883  0.00  0.00    +0.000 C 
BRANCH  12  13
ATOM     13  C   UNL     1      45.378   4.654  12.950  0.00  0.00    +0.000 C 
ATOM     14  C   UNL     1      45.379   5.470  11.646  0.00  0.00    +0.000 C 
ATOM     15  C   UNL     1      44.242   5.012  10.736  0.00  0.00    +0.000 C 
ATOM     16  C   UNL     1      44.278   3.500  10.511  0.00  0.00    +0.000 C 
ATOM     17  N   UNL     1      44.305   2.759  11.773  0.00  0.00    +0.000 NA
ATOM     18  C   UNL     1      45.445   3.158  12.605  0.00  0.00    +0.000 C 
ATOM     19  H   UNL     1      44.376   1.761  11.570  0.00  0.00    +0.000 HD
ENDBRANCH  12  13
ENDBRANCH  11  12
ENDBRANCH   4  11
TORSDOF 5
ENDMDL
