MODEL 1
REMARK VINA RESULT:    -8.569      0.000      0.000
REMARK INTER + INTRA:         -11.114
REMARK INTER:                 -10.572
REMARK INTRA:                  -0.541
REMARK UNBOUND:                -0.541
REMARK  Name = 
REMARK  4 active torsions:
REMARK  status: ('A' for Active; 'I' for Inactive)
REMARK    1  A    between atoms: C_2  and  C_4
REMARK    2  A    between atoms: N_8  and  C_9
REMARK    3  A    between atoms: C_9  and  C_10
REMARK    4  A    between atoms: C_12  and  C_13
REMARK                            x       y       z     vdW  Elec       q    Type
REMARK                         _______ _______ _______ _____ _____    ______ ____
ROOT
ATOM      1  C   UNL     1      46.607   2.415   7.211  0.00  0.00    +0.000 A 
ATOM      2  C   UNL     1      46.078   3.622   7.657  0.00  0.00    +0.000 A 
ATOM      3  C   UNL     1      45.222   3.625   8.756  0.00  0.00    +0.000 A 
ATOM      4  C   UNL     1      44.909   2.431   9.396  0.00  0.00    +0.000 A 
ATOM      5  N   UNL     1      44.156   2.361  10.535  0.00  0.00    +0.000 N 
ATOM      6  N   UNL     1      45.383   1.250   8.945  0.00  0.00    +0.000 NA
ATOM      7  C   UNL     1      46.209   1.261   7.864  0.00  0.00    +0.000 A 
ATOM      8  H   UNL     1      43.946   1.413  10.819  0.00  0.00    +0.000 HD
ENDROOT
BRANCH   1  10
ATOM      9  N   UNL     1      47.439   3.298   5.111  0.00  0.00    +0.000 N 
ATOM     10  C   UNL     1      47.556   2.340   6.085  0.00  0.00    +0.000 C 
ATOM     11  O   UNL     1      48.431   1.485   6.035  0.00  0.00    +0.000 OA
ATOM     12  H   UNL     1      48.143   3.303   4.386  0.00  0.00    +0.000 HD
ATOM     13  H   UNL     1      46.898   4.144   5.242  0.00  0.00    +0.000 HD
ENDBRANCH   1  10
BRANCH   5  14
ATOM     14  C   UNL     1      43.462   3.473  11.154  0.00  0.00    +0.000 C 
BRANCH  14  15
ATOM     15  C   UNL     1      44.387   4.369  11.954  0.00  0.00    +0.000 A 
ATOM     16  C   UNL     1      44.431   5.737  11.679  0.00  0.00    +0.000 A 
ATOM     17  C   UNL     1      45.291   6.581  12.398  0.00  0.00    +0.000 A 
ATOM     18  C   UNL     1      46.071   5.983  13.395  0.00  0.00    +0.000 A 
ATOM     19  C   UNL     1      45.962   4.618  13.620  0.00  0.00    +0.000 A 
ATOM     20  N   UNL     1      45.142   3.801  12.926  0.00  0.00    +0.000 NA
BRANCH  17  21
ATOM     21  C   UNL     1      45.367   8.028  12.101  0.00  0.00    +0.000 A 
ATOM     22  C   UNL     1      44.381   8.688  11.350  0.00  0.00    +0.000 A 
ATOM     23  C   UNL     1      44.470  10.055  11.092  0.00  0.00    +0.000 A 
ATOM     24  C   UNL     1      45.561  10.745  11.585  0.00  0.00    +0.000 A 
ATOM     25  N   UNL     1      46.539  10.168  12.308  0.00  0.00    +0.000 NA
ATOM     26  C   UNL     1      46.415   8.838  12.549  0.00  0.00    +0.000 A 
ENDBRANCH  17  21
ENDBRANCH  14  15
ENDBRANCH   5  14
TORSDOF 4
ENDMDL
MODEL 2
REMARK VINA RESULT:    -8.351      1.904      3.925
REMARK INTER + INTRA:         -10.845
REMARK INTER:                 -10.309
REMARK INTRA:                  -0.536
REMARK UNBOUND:                -0.541
REMARK  Name = 
REMARK  4 active torsions:
REMARK  status: ('A' for Active; 'I' for Inactive)
REMARK    1  A    between atoms: C_2  and  C_4
REMARK    2  A    between atoms: N_8  and  C_9
REMARK    3  A    between atoms: C_9  and  C_10
REMARK    4  A    between atoms: C_12  and  C_13
REMARK                            x       y       z     vdW  Elec       q    Type
REMARK                         _______ _______ _______ _____ _____    ______ ____
ROOT
ATOM      1  C   UNL     1      46.378   2.456   7.700  0.00  0.00    +0.000 A 
ATOM      2  C   UNL     1      46.310   3.835   7.865  0.00  0.00    +0.000 A 
ATOM      3  C   UNL     1      45.405   4.367   8.781  0.00  0.00    +0.000 A 
ATOM      4  C   UNL     1      44.585   3.521   9.519  0.00  0.00    +0.000 A 
ATOM      5  N   UNL     1      43.741   3.958  10.502  0.00  0.00    +0.000 N 
ATOM      6  N   UNL     1      44.613   2.184   9.336  0.00  0.00    +0.000 NA
ATOM      7  C   UNL     1      45.495   1.679   8.431  0.00  0.00    +0.000 A 
ATOM      8  H   UNL     1      43.151   3.227  10.878  0.00  0.00    +0.000 HD
ENDROOT
BRANCH   1  10
ATOM      9  N   UNL     1      48.443   2.559   6.433  0.00  0.00    +0.000 N 
ATOM     10  C   UNL     1      47.344   1.819   6.786  0.00  0.00    +0.000 C 
ATOM     11  O   UNL     1      47.194   0.672   6.386  0.00  0.00    +0.000 OA
ATOM     12  H   UNL     1      49.150   2.095   5.880  0.00  0.00    +0.000 HD
ATOM     13  H   UNL     1      48.715   3.399   6.929  0.00  0.00    +0.000 HD
ENDBRANCH   1  10
BRANCH   5  14
ATOM     14  C   UNL     1      43.466   5.345  10.820  0.00  0.00    +0.000 C 
BRANCH  14  15
ATOM     15  C   UNL     1      44.565   5.987  11.643  0.00  0.00    +0.000 A 
ATOM     16  C   UNL     1      45.251   5.227  12.592  0.00  0.00    +0.000 A 
ATOM     17  C   UNL     1      46.262   5.806  13.374  0.00  0.00    +0.000 A 
ATOM     18  C   UNL     1      46.545   7.156  13.137  0.00  0.00    +0.000 A 
ATOM     19  C   UNL     1      45.831   7.843  12.165  0.00  0.00    +0.000 A 
ATOM     20  N   UNL     1      44.852   7.292  11.416  0.00  0.00    +0.000 NA
BRANCH  17  21
ATOM     21  C   UNL     1      46.979   5.020  14.401  0.00  0.00    +0.000 A 
ATOM     22  C   UNL     1      47.566   5.623  15.526  0.00  0.00    +0.000 A 
ATOM     23  C   UNL     1      48.229   4.859  16.485  0.00  0.00    +0.000 A 
ATOM     24  C   UNL     1      48.307   3.493  16.297  0.00  0.00    +0.000 A 
ATOM     25  N   UNL     1      47.768   2.858  15.238  0.00  0.00    +0.000 NA
ATOM     26  C   UNL     1      47.121   3.631  14.328  0.00  0.00    +0.000 A 
ENDBRANCH  17  21
ENDBRANCH  14  15
ENDBRANCH   5  14
TORSDOF 4
ENDMDL
MODEL 3
REMARK VINA RESULT:    -7.740      1.852      2.194
REMARK INTER + INTRA:         -10.092
REMARK INTER:                  -9.604
REMARK INTRA:                  -0.487
REMARK UNBOUND:                -0.541
REMARK  Name = 
REMARK  4 active torsions:
REMARK  status: ('A' for Active; 'I' for Inactive)
REMARK    1  A    between atoms: C_2  and  C_4
REMARK    2  A    between atoms: N_8  and  C_9
REMARK    3  A    between atoms: C_9  and  C_10
REMARK    4  A    between atoms: C_12  and  C_13
REMARK                            x       y       z     vdW  Elec       q    Type
REMARK                         _______ _______ _______ _____ _____    ______ ____
ROOT
ATOM      1  C   UNL     1      46.377   2.241   7.550  0.00  0.00    +0.000 A 
ATOM      2  C   UNL     1      45.983   1.890   8.837  0.00  0.00    +0.000 A 
ATOM      3  C   UNL     1      45.174   2.762   9.563  0.00  0.00    +0.000 A 
ATOM      4  C   UNL     1      44.767   3.966   8.998  0.00  0.00    +0.000 A 
ATOM      5  N   UNL     1      43.899   4.829   9.607  0.00  0.00    +0.000 N 
ATOM      6  N   UNL     1      45.178   4.335   7.767  0.00  0.00    +0.000 NA
ATOM      7  C   UNL     1      45.976   3.478   7.073  0.00  0.00    +0.000 A 
ATOM      8  H   UNL     1      43.778   5.697   9.102  0.00  0.00    +0.000 HD
ENDROOT
BRANCH   1  10
ATOM      9  N   UNL     1      48.212   1.928   5.998  0.00  0.00    +0.000 N 
ATOM     10  C   UNL     1      47.191   1.349   6.705  0.00  0.00    +0.000 C 
ATOM     11  O   UNL     1      46.990   0.142   6.661  0.00  0.00    +0.000 OA
ATOM     12  H   UNL     1      48.826   1.307   5.489  0.00  0.00    +0.000 HD
ATOM     13  H   UNL     1      48.552   2.861   6.197  0.00  0.00    +0.000 HD
ENDBRANCH   1  10
BRANCH   5  14
ATOM     14  C   UNL     1      43.395   4.701  10.960  0.00  0.00    +0.000 C 
BRANCH  14  15
ATOM     15  C   UNL     1      44.462   4.945  12.008  0.00  0.00    +0.000 A 
ATOM     16  C   UNL     1      45.316   6.042  11.882  0.00  0.00    +0.000 A 
ATOM     17  C   UNL     1      46.319   6.277  12.834  0.00  0.00    +0.000 A 
ATOM     18  C   UNL     1      46.398   5.375  13.901  0.00  0.00    +0.000 A 
ATOM     19  C   UNL     1      45.504   4.315  13.967  0.00  0.00    +0.000 A 
ATOM     20  N   UNL     1      44.542   4.081  13.049  0.00  0.00    +0.000 NA
BRANCH  17  21
ATOM     21  C   UNL     1      47.248   7.421  12.700  0.00  0.00    +0.000 A 
ATOM     22  C   UNL     1      48.234   7.468  11.702  0.00  0.00    +0.000 A 
ATOM     23  C   UNL     1      49.092   8.562  11.591  0.00  0.00    +0.000 A 
ATOM     24  C   UNL     1      48.955   9.596  12.497  0.00  0.00    +0.000 A 
ATOM     25  N   UNL     1      48.031   9.607  13.477  0.00  0.00    +0.000 NA
ATOM     26  C   UNL     1      47.207   8.531  13.550  0.00  0.00    +0.000 A 
ENDBRANCH  17  21
ENDBRANCH  14  15
ENDBRANCH   5  14
TORSDOF 4
ENDMDL
MODEL 4
REMARK VINA RESULT:    -7.264      4.367      8.361
REMARK INTER + INTRA:          -9.505
REMARK INTER:                  -9.128
REMARK INTRA:                  -0.377
REMARK UNBOUND:                -0.541
REMARK  Name = 
REMARK  4 active torsions:
REMARK  status: ('A' for Active; 'I' for Inactive)
REMARK    1  A    between atoms: C_2  and  C_4
REMARK    2  A    between atoms: N_8  and  C_9
REMARK    3  A    between atoms: C_9  and  C_10
REMARK    4  A    between atoms: C_12  and  C_13
REMARK                            x       y       z     vdW  Elec       q    Type
REMARK                         _______ _______ _______ _____ _____    ______ ____
ROOT
ATOM      1  C   UNL     1      48.815   4.237  18.009  0.00  0.00    +0.000 A 
ATOM      2  C   UNL     1      48.089   5.289  17.461  0.00  0.00    +0.000 A 
ATOM      3  C   UNL     1      47.440   5.104  16.241  0.00  0.00    +0.000 A 
ATOM      4  C   UNL     1      47.520   3.878  15.590  0.00  0.00    +0.000 A 
ATOM      5  N   UNL     1      46.836   3.588  14.442  0.00  0.00    +0.000 N 
ATOM      6  N   UNL     1      48.256   2.865  16.093  0.00  0.00    +0.000 NA
ATOM      7  C   UNL     1      48.893   3.063  17.279  0.00  0.00    +0.000 A 
ATOM      8  H   UNL     1      47.075   2.687  14.050  0.00  0.00    +0.000 HD
ENDROOT
BRANCH   1  10
ATOM      9  N   UNL     1      48.758   3.975  20.419  0.00  0.00    +0.000 N 
ATOM     10  C   UNL     1      49.487   4.343  19.318  0.00  0.00    +0.000 C 
ATOM     11  O   UNL     1      50.651   4.710  19.417  0.00  0.00    +0.000 OA
ATOM     12  H   UNL     1      49.244   3.961  21.305  0.00  0.00    +0.000 HD
ATOM     13  H   UNL     1      47.897   3.447  20.351  0.00  0.00    +0.000 HD
ENDBRANCH   1  10
BRANCH   5  14
ATOM     14  C   UNL     1      46.059   4.533  13.665  0.00  0.00    +0.000 C 
BRANCH  14  15
ATOM     15  C   UNL     1      45.258   3.867  12.563  0.00  0.00    +0.000 A 
ATOM     16  C   UNL     1      45.823   3.710  11.297  0.00  0.00    +0.000 A 
ATOM     17  C   UNL     1      45.094   3.110  10.260  0.00  0.00    +0.000 A 
ATOM     18  C   UNL     1      43.801   2.672  10.572  0.00  0.00    +0.000 A 
ATOM     19  C   UNL     1      43.312   2.849  11.859  0.00  0.00    +0.000 A 
ATOM     20  N   UNL     1      44.008   3.433  12.857  0.00  0.00    +0.000 NA
BRANCH  17  21
ATOM     21  C   UNL     1      45.670   2.959   8.906  0.00  0.00    +0.000 A 
ATOM     22  C   UNL     1      46.062   1.710   8.397  0.00  0.00    +0.000 A 
ATOM     23  C   UNL     1      46.594   1.594   7.113  0.00  0.00    +0.000 A 
ATOM     24  C   UNL     1      46.738   2.740   6.356  0.00  0.00    +0.000 A 
ATOM     25  N   UNL     1      46.383   3.965   6.790  0.00  0.00    +0.000 NA
ATOM     26  C   UNL     1      45.859   4.041   8.040  0.00  0.00    +0.000 A 
ENDBRANCH  17  21
ENDBRANCH  14  15
ENDBRANCH   5  14
TORSDOF 4
ENDMDL
MODEL 5
REMARK VINA RESULT:    -7.192      3.312      7.323
REMARK INTER + INTRA:          -9.416
REMARK INTER:                  -8.843
REMARK INTRA:                  -0.572
REMARK UNBOUND:                -0.541
REMARK  Name = 
REMARK  4 active torsions:
REMARK  status: ('A' for Active; 'I' for Inactive)
REMARK    1  A    between atoms: C_2  and  C_4
REMARK    2  A    between atoms: N_8  and  C_9
REMARK    3  A    between atoms: C_9  and  C_10
REMARK    4  A    between atoms: C_12  and  C_13
REMARK                            x       y       z     vdW  Elec       q    Type
REMARK                         _______ _______ _______ _____ _____    ______ ____
ROOT
ATOM      1  C   UNL     1      49.313   8.215  13.043  0.00  0.00    +0.000 A 
ATOM      2  C   UNL     1      48.624   8.309  11.838  0.00  0.00    +0.000 A 
ATOM      3  C   UNL     1      47.362   7.728  11.729  0.00  0.00    +0.000 A 
ATOM      4  C   UNL     1      46.805   7.066  12.817  0.00  0.00    +0.000 A 
ATOM      5  N   UNL     1      45.537   6.554  12.819  0.00  0.00    +0.000 N 
ATOM      6  N   UNL     1      47.482   6.932  13.976  0.00  0.00    +0.000 NA
ATOM      7  C   UNL     1      48.718   7.496  14.066  0.00  0.00    +0.000 A 
ATOM      8  H   UNL     1      45.320   6.026  13.654  0.00  0.00    +0.000 HD
ENDROOT
BRANCH   1  10
ATOM      9  N   UNL     1      51.712   8.009  13.325  0.00  0.00    +0.000 N 
ATOM     10  C   UNL     1      50.629   8.846  13.248  0.00  0.00    +0.000 C 
ATOM     11  O   UNL     1      50.758  10.062  13.313  0.00  0.00    +0.000 OA
ATOM     12  H   UNL     1      52.623   8.442  13.376  0.00  0.00    +0.000 HD
ATOM     13  H   UNL     1      51.672   7.039  13.037  0.00  0.00    +0.000 HD
ENDBRANCH   1  10
BRANCH   5  14
ATOM     14  C   UNL     1      44.653   6.491  11.672  0.00  0.00    +0.000 C 
BRANCH  14  15
ATOM     15  C   UNL     1      44.451   5.077  11.165  0.00  0.00    +0.000 A 
ATOM     16  C   UNL     1      45.193   4.623  10.073  0.00  0.00    +0.000 A 
ATOM     17  C   UNL     1      45.011   3.323   9.578  0.00  0.00    +0.000 A 
ATOM     18  C   UNL     1      44.074   2.522  10.244  0.00  0.00    +0.000 A 
ATOM     19  C   UNL     1      43.385   3.038  11.332  0.00  0.00    +0.000 A 
ATOM     20  N   UNL     1      43.552   4.291  11.806  0.00  0.00    +0.000 NA
BRANCH  17  21
ATOM     21  C   UNL     1      45.770   2.836   8.406  0.00  0.00    +0.000 A 
ATOM     22  C   UNL     1      46.103   3.676   7.332  0.00  0.00    +0.000 A 
ATOM     23  C   UNL     1      46.828   3.196   6.242  0.00  0.00    +0.000 A 
ATOM     24  C   UNL     1      47.203   1.866   6.239  0.00  0.00    +0.000 A 
ATOM     25  N   UNL     1      46.911   1.010   7.238  0.00  0.00    +0.000 NA
ATOM     26  C   UNL     1      46.212   1.514   8.288  0.00  0.00    +0.000 A 
ENDBRANCH  17  21
ENDBRANCH  14  15
ENDBRANCH   5  14
TORSDOF 4
ENDMDL
MODEL 6
REMARK VINA RESULT:    -6.764      2.557      3.825
REMARK INTER + INTRA:          -8.887
REMARK INTER:                  -8.381
REMARK INTRA:                  -0.506
REMARK UNBOUND:                -0.541
REMARK  Name = 
REMARK  4 active torsions:
REMARK  status: ('A' for Active; 'I' for Inactive)
REMARK    1  A    between atoms: C_2  and  C_4
REMARK    2  A    between atoms: N_8  and  C_9
REMARK    3  A    between atoms: C_9  and  C_10
REMARK    4  A    between atoms: C_12  and  C_13
REMARK                            x       y       z     vdW  Elec       q    Type
REMARK                         _______ _______ _______ _____ _____    ______ ____
ROOT
ATOM      1  C   UNL     1      46.445   2.130   7.751  0.00  0.00    +0.000 A 
ATOM      2  C   UNL     1      45.752   2.062   8.955  0.00  0.00    +0.000 A 
ATOM      3  C   UNL     1      45.371   3.243   9.588  0.00  0.00    +0.000 A 
ATOM      4  C   UNL     1      45.681   4.471   9.014  0.00  0.00    +0.000 A 
ATOM      5  N   UNL     1      45.260   5.668   9.523  0.00  0.00    +0.000 N 
ATOM      6  N   UNL     1      46.389   4.549   7.868  0.00  0.00    +0.000 NA
ATOM      7  C   UNL     1      46.764   3.388   7.266  0.00  0.00    +0.000 A 
ATOM      8  H   UNL     1      45.647   6.467   9.038  0.00  0.00    +0.000 HD
ENDROOT
BRANCH   1  10
ATOM      9  N   UNL     1      46.753  -0.273   7.662  0.00  0.00    +0.000 N 
ATOM     10  C   UNL     1      46.838   0.924   7.000  0.00  0.00    +0.000 C 
ATOM     11  O   UNL     1      47.193   0.980   5.829  0.00  0.00    +0.000 OA
ATOM     12  H   UNL     1      46.936  -1.108   7.124  0.00  0.00    +0.000 HD
ATOM     13  H   UNL     1      46.243  -0.380   8.530  0.00  0.00    +0.000 HD
ENDBRANCH   1  10
BRANCH   5  14
ATOM     14  C   UNL     1      44.570   5.851  10.785  0.00  0.00    +0.000 C 
BRANCH  14  15
ATOM     15  C   UNL     1      45.167   6.964  11.623  0.00  0.00    +0.000 A 
ATOM     16  C   UNL     1      46.345   6.736  12.335  0.00  0.00    +0.000 A 
ATOM     17  C   UNL     1      46.906   7.748  13.129  0.00  0.00    +0.000 A 
ATOM     18  C   UNL     1      46.235   8.977  13.147  0.00  0.00    +0.000 A 
ATOM     19  C   UNL     1      45.076   9.133  12.401  0.00  0.00    +0.000 A 
ATOM     20  N   UNL     1      44.529   8.159  11.642  0.00  0.00    +0.000 NA
BRANCH  17  21
ATOM     21  C   UNL     1      48.140   7.514  13.909  0.00  0.00    +0.000 A 
ATOM     22  C   UNL     1      49.288   8.307  13.745  0.00  0.00    +0.000 A 
ATOM     23  C   UNL     1      50.436   8.071  14.500  0.00  0.00    +0.000 A 
ATOM     24  C   UNL     1      50.423   7.029  15.407  0.00  0.00    +0.000 A 
ATOM     25  N   UNL     1      49.355   6.233  15.607  0.00  0.00    +0.000 NA
ATOM     26  C   UNL     1      48.250   6.496  14.862  0.00  0.00    +0.000 A 
ENDBRANCH  17  21
ENDBRANCH  14  15
ENDBRANCH   5  14
TORSDOF 4
ENDMDL
MODEL 7
REMARK VINA RESULT:    -6.652      5.940      8.641
REMARK INTER + INTRA:          -8.749
REMARK INTER:                  -8.205
REMARK INTRA:                  -0.544
REMARK UNBOUND:                -0.541
REMARK  Name = 
REMARK  4 active torsions:
REMARK  status: ('A' for Active; 'I' for Inactive)
REMARK    1  A    between atoms: C_2  and  C_4
REMARK    2  A    between atoms: N_8  and  C_9
REMARK    3  A    between atoms: C_9  and  C_10
REMARK    4  A    between atoms: C_12  and  C_13
REMARK                            x       y       z     vdW  Elec       q    Type
REMARK                         _______ _______ _______ _____ _____    ______ ____
ROOT
ATOM      1  C   UNL     1      52.530   2.140  17.995  0.00  0.00    +0.000 A 
ATOM      2  C   UNL     1      51.985   3.393  18.253  0.00  0.00    +0.000 A 
ATOM      3  C   UNL     1      50.670   3.654  17.873  0.00  0.00    +0.000 A 
ATOM      4  C   UNL     1      49.918   2.667  17.247  0.00  0.00    +0.000 A 
ATOM      5  N   UNL     1      48.596   2.813  16.931  0.00  0.00    +0.000 N 
ATOM      6  N   UNL     1      50.451   1.462  16.954  0.00  0.00    +0.000 NA
ATOM      7  C   UNL     1      51.739   1.224  17.322  0.00  0.00    +0.000 A 
ATOM      8  H   UNL     1      48.224   2.037  16.399  0.00  0.00    +0.000 HD
ENDROOT
BRANCH   1  10
ATOM      9  N   UNL     1      54.251   2.072  19.701  0.00  0.00    +0.000 N 
ATOM     10  C   UNL     1      53.897   1.776  18.411  0.00  0.00    +0.000 C 
ATOM     11  O   UNL     1      54.671   1.205  17.653  0.00  0.00    +0.000 OA
ATOM     12  H   UNL     1      55.154   1.744  20.015  0.00  0.00    +0.000 HD
ATOM     13  H   UNL     1      53.571   2.315  20.410  0.00  0.00    +0.000 HD
ENDBRANCH   1  10
BRANCH   5  14
ATOM     14  C   UNL     1      47.830   4.037  17.060  0.00  0.00    +0.000 C 
BRANCH  14  15
ATOM     15  C   UNL     1      47.739   4.811  15.760  0.00  0.00    +0.000 A 
ATOM     16  C   UNL     1      46.798   4.439  14.799  0.00  0.00    +0.000 A 
ATOM     17  C   UNL     1      46.707   5.134  13.584  0.00  0.00    +0.000 A 
ATOM     18  C   UNL     1      47.587   6.209  13.406  0.00  0.00    +0.000 A 
ATOM     19  C   UNL     1      48.486   6.529  14.414  0.00  0.00    +0.000 A 
ATOM     20  N   UNL     1      48.581   5.858  15.582  0.00  0.00    +0.000 NA
BRANCH  17  21
ATOM     21  C   UNL     1      45.733   4.735  12.545  0.00  0.00    +0.000 A 
ATOM     22  C   UNL     1      45.324   3.402  12.378  0.00  0.00    +0.000 A 
ATOM     23  C   UNL     1      44.396   3.054  11.398  0.00  0.00    +0.000 A 
ATOM     24  C   UNL     1      43.896   4.051  10.583  0.00  0.00    +0.000 A 
ATOM     25  N   UNL     1      44.252   5.346  10.692  0.00  0.00    +0.000 NA
ATOM     26  C   UNL     1      45.150   5.652  11.664  0.00  0.00    +0.000 A 
ENDBRANCH  17  21
ENDBRANCH  14  15
ENDBRANCH   5  14
TORSDOF 4
ENDMDL
MODEL 8
REMARK VINA RESULT:    -6.358      3.811      6.837
REMARK INTER + INTRA:          -8.387
REMARK INTER:                  -7.759
REMARK INTRA:                  -0.628
REMARK UNBOUND:                -0.541
REMARK  Name = 
REMARK  4 active torsions:
REMARK  status: ('A' for Active; 'I' for Inactive)
REMARK    1  A    between atoms: C_2  and  C_4
REMARK    2  A    between atoms: N_8  and  C_9
REMARK    3  A    between atoms: C_9  and  C_10
REMARK    4  A    between atoms: C_12  and  C_13
REMARK                            x       y       z     vdW  Elec       q    Type
REMARK                         _______ _______ _______ _____ _____    ______ ____
ROOT
ATOM      1  C   UNL     1      44.627   5.501  11.004  0.00  0.00    +0.000 A 
ATOM      2  C   UNL     1      46.004   5.567  10.817  0.00  0.00    +0.000 A 
ATOM      3  C   UNL     1      46.741   6.517  11.521  0.00  0.00    +0.000 A 
ATOM      4  C   UNL     1      46.100   7.382  12.401  0.00  0.00    +0.000 A 
ATOM      5  N   UNL     1      46.762   8.274  13.197  0.00  0.00    +0.000 N 
ATOM      6  N   UNL     1      44.760   7.354  12.558  0.00  0.00    +0.000 NA
ATOM      7  C   UNL     1      44.051   6.428  11.856  0.00  0.00    +0.000 A 
ATOM      8  H   UNL     1      46.143   8.889  13.710  0.00  0.00    +0.000 HD
ENDROOT
BRANCH   1  10
ATOM      9  N   UNL     1      43.891   4.413   8.965  0.00  0.00    +0.000 N 
ATOM     10  C   UNL     1      43.789   4.491  10.330  0.00  0.00    +0.000 C 
ATOM     11  O   UNL     1      43.061   3.734  10.959  0.00  0.00    +0.000 OA
ATOM     12  H   UNL     1      43.387   3.665   8.511  0.00  0.00    +0.000 HD
ATOM     13  H   UNL     1      44.647   4.847   8.450  0.00  0.00    +0.000 HD
ENDBRANCH   1  10
BRANCH   5  14
ATOM     14  C   UNL     1      48.183   8.556  13.145  0.00  0.00    +0.000 C 
BRANCH  14  15
ATOM     15  C   UNL     1      48.954   7.891  14.269  0.00  0.00    +0.000 A 
ATOM     16  C   UNL     1      48.424   6.763  14.896  0.00  0.00    +0.000 A 
ATOM     17  C   UNL     1      49.115   6.142  15.948  0.00  0.00    +0.000 A 
ATOM     18  C   UNL     1      50.347   6.701  16.308  0.00  0.00    +0.000 A 
ATOM     19  C   UNL     1      50.815   7.816  15.628  0.00  0.00    +0.000 A 
ATOM     20  N   UNL     1      50.150   8.421  14.621  0.00  0.00    +0.000 NA
BRANCH  17  21
ATOM     21  C   UNL     1      48.555   4.960  16.639  0.00  0.00    +0.000 A 
ATOM     22  C   UNL     1      49.266   4.273  17.636  0.00  0.00    +0.000 A 
ATOM     23  C   UNL     1      48.713   3.167  18.280  0.00  0.00    +0.000 A 
ATOM     24  C   UNL     1      47.449   2.754  17.904  0.00  0.00    +0.000 A 
ATOM     25  N   UNL     1      46.720   3.369  16.953  0.00  0.00    +0.000 NA
ATOM     26  C   UNL     1      47.285   4.449  16.354  0.00  0.00    +0.000 A 
ENDBRANCH  17  21
ENDBRANCH  14  15
ENDBRANCH   5  14
TORSDOF 4
ENDMDL
MODEL 9
REMARK VINA RESULT:    -6.168      4.966      8.799
REMARK INTER + INTRA:          -8.152
REMARK INTER:                  -7.634
REMARK INTRA:                  -0.519
REMARK UNBOUND:                -0.541
REMARK  Name = 
REMARK  4 active torsions:
REMARK  status: ('A' for Active; 'I' for Inactive)
REMARK    1  A    between atoms: C_2  and  C_4
REMARK    2  A    between atoms: N_8  and  C_9
REMARK    3  A    between atoms: C_9  and  C_10
REMARK    4  A    between atoms: C_12  and  C_13
REMARK                            x       y       z     vdW  Elec       q    Type
REMARK                         _______ _______ _______ _____ _____    ______ ____
ROOT
ATOM      1  C   UNL     1      48.841   5.702  18.706  0.00  0.00    +0.000 A 
ATOM      2  C   UNL     1      48.910   4.935  17.548  0.00  0.00    +0.000 A 
ATOM      3  C   UNL     1      48.842   5.568  16.308  0.00  0.00    +0.000 A 
ATOM      4  C   UNL     1      48.712   6.951  16.240  0.00  0.00    +0.000 A 
ATOM      5  N   UNL     1      48.735   7.653  15.067  0.00  0.00    +0.000 N 
ATOM      6  N   UNL     1      48.603   7.699  17.357  0.00  0.00    +0.000 NA
ATOM      7  C   UNL     1      48.659   7.067  18.561  0.00  0.00    +0.000 A 
ATOM      8  H   UNL     1      48.537   8.637  15.186  0.00  0.00    +0.000 HD
ENDROOT
BRANCH   1  10
ATOM      9  N   UNL     1      48.585   3.794  20.180  0.00  0.00    +0.000 N 
ATOM     10  C   UNL     1      48.954   5.108  20.051  0.00  0.00    +0.000 C 
ATOM     11  O   UNL     1      49.388   5.744  21.003  0.00  0.00    +0.000 OA
ATOM     12  H   UNL     1      48.745   3.360  21.078  0.00  0.00    +0.000 HD
ATOM     13  H   UNL     1      48.457   3.183  19.383  0.00  0.00    +0.000 HD
ENDBRANCH   1  10
BRANCH   5  14
ATOM     14  C   UNL     1      48.750   7.072  13.738  0.00  0.00    +0.000 C 
BRANCH  14  15
ATOM     15  C   UNL     1      47.404   7.157  13.046  0.00  0.00    +0.000 A 
ATOM     16  C   UNL     1      46.990   6.117  12.212  0.00  0.00    +0.000 A 
ATOM     17  C   UNL     1      45.754   6.183  11.551  0.00  0.00    +0.000 A 
ATOM     18  C   UNL     1      44.973   7.321  11.788  0.00  0.00    +0.000 A 
ATOM     19  C   UNL     1      45.446   8.307  12.644  0.00  0.00    +0.000 A 
ATOM     20  N   UNL     1      46.638   8.251  13.275  0.00  0.00    +0.000 NA
BRANCH  17  21
ATOM     21  C   UNL     1      45.313   5.102  10.643  0.00  0.00    +0.000 A 
ATOM     22  C   UNL     1      45.640   5.095   9.278  0.00  0.00    +0.000 A 
ATOM     23  C   UNL     1      45.219   4.058   8.445  0.00  0.00    +0.000 A 
ATOM     24  C   UNL     1      44.461   3.042   8.994  0.00  0.00    +0.000 A 
ATOM     25  N   UNL     1      44.114   2.995  10.294  0.00  0.00    +0.000 NA
ATOM     26  C   UNL     1      44.548   4.015  11.079  0.00  0.00    +0.000 A 
ENDBRANCH  17  21
ENDBRANCH  14  15
ENDBRANCH   5  14
TORSDOF 4
ENDMDL
