MODEL 1
REMARK VINA RESULT:    -8.267      0.000      0.000
REMARK INTER + INTRA:         -12.209
REMARK INTER:                 -11.167
REMARK INTRA:                  -1.042
REMARK UNBOUND:                -1.042
REMARK  Name = 
REMARK  8 active torsions:
REMARK  status: ('A' for Active; 'I' for Inactive)
REMARK    1  A    between atoms: C_1  and  C_2
REMARK    2  A    between atoms: C_4  and  O_5
REMARK    3  A    between atoms: O_5  and  C_6
REMARK    4  A    between atoms: C_6  and  C_7
REMARK    5  A    between atoms: C_7  and  C_8
REMARK    6  A    between atoms: C_7  and  C_9
REMARK    7  A    between atoms: C_13  and  O_14
REMARK    8  A    between atoms: O_14  and  C_15
REMARK                            x       y       z     vdW  Elec       q    Type
REMARK                         _______ _______ _______ _____ _____    ______ ____
ROOT
ATOM      1  C   UNL     1      45.169   5.486  12.382  0.00  0.00    +0.000 A 
ATOM      2  C   UNL     1      45.927   6.496  11.779  0.00  0.00    +0.000 A 
ATOM      3  C   UNL     1      47.258   6.705  12.152  0.00  0.00    +0.000 A 
ATOM      4  C   UNL     1      47.857   5.901  13.127  0.00  0.00    +0.000 A 
ATOM      5  C   UNL     1      47.121   4.885  13.728  0.00  0.00    +0.000 A 
ATOM      6  C   UNL     1      45.784   4.690  13.365  0.00  0.00    +0.000 A 
ENDROOT
BRANCH   1   7
ATOM      7  C   UNL     1      43.723   5.257  11.958  0.00  0.00    +0.000 C 
ATOM      8  C   UNL     1      43.037   4.218  12.851  0.00  0.00    +0.000 C 
BRANCH   7   9
ATOM      9  C   UNL     1      43.650   4.870  10.469  0.00  0.00    +0.000 C 
BRANCH   9  10
ATOM     10  O   UNL     1      43.947   3.481  10.286  0.00  0.00    +0.000 OA
BRANCH  10  14
ATOM     11  C   UNL     1      46.804   0.414   7.619  0.00  0.00    +0.000 C 
ATOM     12  C   UNL     1      46.290   1.773   7.992  0.00  0.00    +0.000 A 
ATOM     13  C   UNL     1      45.340   1.916   8.999  0.00  0.00    +0.000 A 
ATOM     14  C   UNL     1      44.879   3.191   9.321  0.00  0.00    +0.000 A 
ATOM     15  C   UNL     1      45.385   4.282   8.625  0.00  0.00    +0.000 A 
ATOM     16  C   UNL     1      46.328   4.052   7.637  0.00  0.00    +0.000 A 
ATOM     17  N   UNL     1      46.789   2.826   7.306  0.00  0.00    +0.000 NA
ENDBRANCH  10  14
ENDBRANCH   9  10
ENDBRANCH   7   9
ENDBRANCH   1   7
BRANCH   5  18
ATOM     18  O   UNL     1      47.592   4.039  14.703  0.00  0.00    +0.000 OA
BRANCH  18  19
ATOM     19  C   UNL     1      47.402   4.391  16.095  0.00  0.00    +0.000 C 
ATOM     20  C   UNL     1      48.551   5.138  16.806  0.00  0.00    +0.000 C 
ATOM     21  N   UNL     1      48.432   4.158  17.866  0.00  0.00    +0.000 N 
ATOM     22  C   UNL     1      48.720   4.276  19.185  0.00  0.00    +0.000 C 
ATOM     23  N   UNL     1      48.366   3.211  19.949  0.00  0.00    +0.000 N 
ATOM     24  O   UNL     1      49.244   5.260  19.691  0.00  0.00    +0.000 OA
ATOM     25  C   UNL     1      47.637   3.233  17.093  0.00  0.00    +0.000 C 
ATOM     26  H   UNL     1      48.404   2.300  19.521  0.00  0.00    +0.000 HD
ATOM     27  H   UNL     1      48.707   3.265  20.901  0.00  0.00    +0.000 HD
ENDBRANCH  18  19
ENDBRANCH   5  18
TORSDOF 6
ENDMDL
MODEL 2
REMARK VINA RESULT:    -7.732      1.668      8.379
REMARK INTER + INTRA:         -11.486
REMARK INTER:                 -10.858
REMARK INTRA:                  -0.628
REMARK UNBOUND:                -1.042
REMARK  Name = 
REMARK  8 active torsions:
REMARK  status: ('A' for Active; 'I' for Inactive)
REMARK    1  A    between atoms: C_1  and  C_2
REMARK    2  A    between atoms: C_4  and  O_5
REMARK    3  A    between atoms: O_5  and  C_6
REMARK    4  A    between atoms: C_6  and  C_7
REMARK    5  A    between atoms: C_7  and  C_8
REMARK    6  A    between atoms: C_7  and  C_9
REMARK    7  A    between atoms: C_13  and  O_14
REMARK    8  A    between atoms: O_14  and  C_15
REMARK                            x       y       z     vdW  Elec       q    Type
REMARK                         _______ _______ _______ _____ _____    ______ ____
ROOT
ATOM      1  C   UNL     1      45.358   4.912  12.640  0.00  0.00    +0.000 A 
ATOM      2  C   UNL     1      44.117   4.513  13.149  0.00  0.00    +0.000 A 
ATOM      3  C   UNL     1      43.053   4.231  12.288  0.00  0.00    +0.000 A 
ATOM      4  C   UNL     1      43.213   4.334  10.903  0.00  0.00    +0.000 A 
ATOM      5  C   UNL     1      44.443   4.719  10.379  0.00  0.00    +0.000 A 
ATOM      6  C   UNL     1      45.501   5.017  11.244  0.00  0.00    +0.000 A 
ENDROOT
BRANCH   1   7
ATOM      7  C   UNL     1      46.516   5.204  13.586  0.00  0.00    +0.000 C 
ATOM      8  C   UNL     1      47.586   6.068  12.911  0.00  0.00    +0.000 C 
BRANCH   7   9
ATOM      9  C   UNL     1      47.105   3.894  14.141  0.00  0.00    +0.000 C 
BRANCH   9  10
ATOM     10  O   UNL     1      46.727   3.701  15.509  0.00  0.00    +0.000 OA
BRANCH  10  14
ATOM     11  C   UNL     1      50.855   1.698  17.412  0.00  0.00    +0.000 C 
ATOM     12  C   UNL     1      49.755   2.716  17.389  0.00  0.00    +0.000 A 
ATOM     13  C   UNL     1      48.767   2.665  16.410  0.00  0.00    +0.000 A 
ATOM     14  C   UNL     1      47.759   3.627  16.410  0.00  0.00    +0.000 A 
ATOM     15  C   UNL     1      47.772   4.609  17.394  0.00  0.00    +0.000 A 
ATOM     16  C   UNL     1      48.790   4.588  18.332  0.00  0.00    +0.000 A 
ATOM     17  N   UNL     1      49.779   3.667  18.350  0.00  0.00    +0.000 NA
ENDBRANCH  10  14
ENDBRANCH   9  10
ENDBRANCH   7   9
ENDBRANCH   1   7
BRANCH   5  18
ATOM     18  O   UNL     1      44.721   4.867   9.042  0.00  0.00    +0.000 OA
BRANCH  18  19
ATOM     19  C   UNL     1      44.916   3.687   8.227  0.00  0.00    +0.000 C 
ATOM     20  C   UNL     1      45.323   2.382   8.944  0.00  0.00    +0.000 C 
ATOM     21  N   UNL     1      46.380   2.259   7.960  0.00  0.00    +0.000 N 
ATOM     22  C   UNL     1      46.987   1.146   7.482  0.00  0.00    +0.000 C 
ATOM     23  N   UNL     1      47.851   1.357   6.456  0.00  0.00    +0.000 N 
ATOM     24  O   UNL     1      46.784   0.015   7.904  0.00  0.00    +0.000 OA
ATOM     25  C   UNL     1      46.278   3.623   7.496  0.00  0.00    +0.000 C 
ATOM     26  H   UNL     1      48.355   2.230   6.446  0.00  0.00    +0.000 HD
ATOM     27  H   UNL     1      48.388   0.537   6.204  0.00  0.00    +0.000 HD
ENDBRANCH  18  19
ENDBRANCH   5  18
TORSDOF 6
ENDMDL
MODEL 3
REMARK VINA RESULT:    -7.160      3.846      7.929
REMARK INTER + INTRA:         -10.713
REMARK INTER:                 -10.107
REMARK INTRA:                  -0.606
REMARK UNBOUND:                -1.042
REMARK  Name = 
REMARK  8 active torsions:
REMARK  status: ('A' for Active; 'I' for Inactive)
REMARK    1  A    between atoms: C_1  and  C_2
REMARK    2  A    between atoms: C_4  and  O_5
REMARK    3  A    between atoms: O_5  and  C_6
REMARK    4  A    between atoms: C_6  and  C_7
REMARK    5  A    between atoms: C_7  and  C_8
REMARK    6  A    between atoms: C_7  and  C_9
REMARK    7  A    between atoms: C_13  and  O_14
REMARK    8  A    between atoms: O_14  and  C_15
REMARK                            x       y       z     vdW  Elec       q    Type
REMARK                         _______ _______ _______ _____ _____    ______ ____
ROOT
ATOM      1  C   UNL     1      45.630   4.771  12.508  0.00  0.00    +0.000 A 
ATOM      2  C   UNL     1      44.494   4.352  13.211  0.00  0.00    +0.000 A 
ATOM      3  C   UNL     1      43.306   4.064  12.536  0.00  0.00    +0.000 A 
ATOM      4  C   UNL     1      43.234   4.179  11.144  0.00  0.00    +0.000 A 
ATOM      5  C   UNL     1      44.356   4.584  10.428  0.00  0.00    +0.000 A 
ATOM      6  C   UNL     1      45.539   4.889  11.109  0.00  0.00    +0.000 A 
ENDROOT
BRANCH   1   7
ATOM      7  C   UNL     1      46.925   5.070  13.253  0.00  0.00    +0.000 C 
ATOM      8  C   UNL     1      46.938   4.411  14.637  0.00  0.00    +0.000 C 
BRANCH   7   9
ATOM      9  C   UNL     1      47.162   6.589  13.340  0.00  0.00    +0.000 C 
BRANCH   9  10
ATOM     10  O   UNL     1      45.959   7.312  13.057  0.00  0.00    +0.000 OA
BRANCH  10  14
ATOM     11  C   UNL     1      48.658  11.069  11.246  0.00  0.00    +0.000 C 
ATOM     12  C   UNL     1      47.363  10.430  11.650  0.00  0.00    +0.000 A 
ATOM     13  C   UNL     1      47.345   9.140  12.171  0.00  0.00    +0.000 A 
ATOM     14  C   UNL     1      46.126   8.570  12.534  0.00  0.00    +0.000 A 
ATOM     15  C   UNL     1      44.964   9.313  12.366  0.00  0.00    +0.000 A 
ATOM     16  C   UNL     1      45.069  10.590  11.842  0.00  0.00    +0.000 A 
ATOM     17  N   UNL     1      46.238  11.162  11.480  0.00  0.00    +0.000 NA
ENDBRANCH  10  14
ENDBRANCH   9  10
ENDBRANCH   7   9
ENDBRANCH   1   7
BRANCH   5  18
ATOM     18  O   UNL     1      44.408   4.746   9.065  0.00  0.00    +0.000 OA
BRANCH  18  19
ATOM     19  C   UNL     1      44.719   3.605   8.230  0.00  0.00    +0.000 C 
ATOM     20  C   UNL     1      45.134   2.295   8.934  0.00  0.00    +0.000 C 
ATOM     21  N   UNL     1      46.265   2.255   8.029  0.00  0.00    +0.000 N 
ATOM     22  C   UNL     1      46.958   1.188   7.564  0.00  0.00    +0.000 C 
ATOM     23  N   UNL     1      47.885   1.473   6.614  0.00  0.00    +0.000 N 
ATOM     24  O   UNL     1      46.780   0.034   7.934  0.00  0.00    +0.000 OA
ATOM     25  C   UNL     1      46.132   3.628   7.603  0.00  0.00    +0.000 C 
ATOM     26  H   UNL     1      48.346   2.368   6.670  0.00  0.00    +0.000 HD
ATOM     27  H   UNL     1      48.478   0.688   6.378  0.00  0.00    +0.000 HD
ENDBRANCH  18  19
ENDBRANCH   5  18
TORSDOF 6
ENDMDL
MODEL 4
REMARK VINA RESULT:    -7.013      3.385      4.539
REMARK INTER + INTRA:         -10.515
REMARK INTER:                  -9.697
REMARK INTRA:                  -0.818
REMARK UNBOUND:                -1.042
REMARK  Name = 
REMARK  8 active torsions:
REMARK  status: ('A' for Active; 'I' for Inactive)
REMARK    1  A    between atoms: C_1  and  C_2
REMARK    2  A    between atoms: C_4  and  O_5
REMARK    3  A    between atoms: O_5  and  C_6
REMARK    4  A    between atoms: C_6  and  C_7
REMARK    5  A    between atoms: C_7  and  C_8
REMARK    6  A    between atoms: C_7  and  C_9
REMARK    7  A    between atoms: C_13  and  O_14
REMARK    8  A    between atoms: O_14  and  C_15
REMARK                            x       y       z     vdW  Elec       q    Type
REMARK                         _______ _______ _______ _____ _____    ______ ____
ROOT
ATOM      1  C   UNL     1      44.980   5.415  11.947  0.00  0.00    +0.000 A 
ATOM      2  C   UNL     1      45.458   4.220  12.496  0.00  0.00    +0.000 A 
ATOM      3  C   UNL     1      46.525   4.229  13.398  0.00  0.00    +0.000 A 
ATOM      4  C   UNL     1      47.127   5.434  13.774  0.00  0.00    +0.000 A 
ATOM      5  C   UNL     1      46.657   6.632  13.246  0.00  0.00    +0.000 A 
ATOM      6  C   UNL     1      45.600   6.618  12.330  0.00  0.00    +0.000 A 
ENDROOT
BRANCH   1   7
ATOM      7  C   UNL     1      43.806   5.395  10.975  0.00  0.00    +0.000 C 
ATOM      8  C   UNL     1      42.465   5.373  11.719  0.00  0.00    +0.000 C 
BRANCH   7   9
ATOM      9  C   UNL     1      43.934   4.216   9.993  0.00  0.00    +0.000 C 
BRANCH   9  10
ATOM     10  O   UNL     1      44.771   4.562   8.883  0.00  0.00    +0.000 OA
BRANCH  10  14
ATOM     11  C   UNL     1      47.745   2.539   5.457  0.00  0.00    +0.000 C 
ATOM     12  C   UNL     1      46.882   2.473   6.682  0.00  0.00    +0.000 A 
ATOM     13  C   UNL     1      46.246   3.615   7.159  0.00  0.00    +0.000 A 
ATOM     14  C   UNL     1      45.454   3.524   8.302  0.00  0.00    +0.000 A 
ATOM     15  C   UNL     1      45.323   2.290   8.929  0.00  0.00    +0.000 A 
ATOM     16  C   UNL     1      45.989   1.203   8.388  0.00  0.00    +0.000 A 
ATOM     17  N   UNL     1      46.764   1.268   7.284  0.00  0.00    +0.000 NA
ENDBRANCH  10  14
ENDBRANCH   9  10
ENDBRANCH   7   9
ENDBRANCH   1   7
BRANCH   5  18
ATOM     18  O   UNL     1      47.170   7.875  13.527  0.00  0.00    +0.000 OA
BRANCH  18  19
ATOM     19  C   UNL     1      48.267   8.383  12.730  0.00  0.00    +0.000 C 
ATOM     20  C   UNL     1      48.764   7.509  11.558  0.00  0.00    +0.000 C 
ATOM     21  N   UNL     1      50.102   7.705  12.078  0.00  0.00    +0.000 N 
ATOM     22  C   UNL     1      51.289   7.703  11.424  0.00  0.00    +0.000 C 
ATOM     23  N   UNL     1      52.362   8.057  12.176  0.00  0.00    +0.000 N 
ATOM     24  O   UNL     1      51.423   7.427  10.238  0.00  0.00    +0.000 OA
ATOM     25  C   UNL     1      49.666   8.199  13.362  0.00  0.00    +0.000 C 
ATOM     26  H   UNL     1      52.343   7.813  13.154  0.00  0.00    +0.000 HD
ATOM     27  H   UNL     1      53.248   7.923  11.706  0.00  0.00    +0.000 HD
ENDBRANCH  18  19
ENDBRANCH   5  18
TORSDOF 6
ENDMDL
MODEL 5
REMARK VINA RESULT:    -6.917      2.604      8.824
REMARK INTER + INTRA:         -10.384
REMARK INTER:                  -9.943
REMARK INTRA:                  -0.442
REMARK UNBOUND:                -1.042
REMARK  Name = 
REMARK  8 active torsions:
REMARK  status: ('A' for Active; 'I' for Inactive)
REMARK    1  A    between atoms: C_1  and  C_2
REMARK    2  A    between atoms: C_4  and  O_5
REMARK    3  A    between atoms: O_5  and  C_6
REMARK    4  A    between atoms: C_6  and  C_7
REMARK    5  A    between atoms: C_7  and  C_8
REMARK    6  A    between atoms: C_7  and  C_9
REMARK    7  A    between atoms: C_13  and  O_14
REMARK    8  A    between atoms: O_14  and  C_15
REMARK                            x       y       z     vdW  Elec       q    Type
REMARK                         _______ _______ _______ _____ _____    ______ ____
ROOT
ATOM      1  C   UNL     1      45.788   5.312  12.084  0.00  0.00    +0.000 A 
ATOM      2  C   UNL     1      45.358   4.248  12.886  0.00  0.00    +0.000 A 
ATOM      3  C   UNL     1      44.562   3.232  12.352  0.00  0.00    +0.000 A 
ATOM      4  C   UNL     1      44.189   3.256  11.004  0.00  0.00    +0.000 A 
ATOM      5  C   UNL     1      44.617   4.299  10.190  0.00  0.00    +0.000 A 
ATOM      6  C   UNL     1      45.400   5.325  10.732  0.00  0.00    +0.000 A 
ENDROOT
BRANCH   1   7
ATOM      7  C   UNL     1      46.668   6.408  12.673  0.00  0.00    +0.000 C 
ATOM      8  C   UNL     1      47.599   7.007  11.614  0.00  0.00    +0.000 C 
BRANCH   7   9
ATOM      9  C   UNL     1      47.451   5.879  13.889  0.00  0.00    +0.000 C 
BRANCH   9  10
ATOM     10  O   UNL     1      48.764   6.450  13.941  0.00  0.00    +0.000 OA
BRANCH  10  14
ATOM     11  C   UNL     1      48.260  10.231  17.123  0.00  0.00    +0.000 C 
ATOM     12  C   UNL     1      48.882   8.946  16.666  0.00  0.00    +0.000 A 
ATOM     13  C   UNL     1      48.473   8.347  15.479  0.00  0.00    +0.000 A 
ATOM     14  C   UNL     1      49.067   7.150  15.081  0.00  0.00    +0.000 A 
ATOM     15  C   UNL     1      50.054   6.593  15.886  0.00  0.00    +0.000 A 
ATOM     16  C   UNL     1      50.403   7.254  17.052  0.00  0.00    +0.000 A 
ATOM     17  N   UNL     1      49.840   8.413  17.459  0.00  0.00    +0.000 NA
ENDBRANCH  10  14
ENDBRANCH   9  10
ENDBRANCH   7   9
ENDBRANCH   1   7
BRANCH   5  18
ATOM     18  O   UNL     1      44.310   4.441   8.859  0.00  0.00    +0.000 OA
BRANCH  18  19
ATOM     19  C   UNL     1      44.925   3.553   7.894  0.00  0.00    +0.000 C 
ATOM     20  C   UNL     1      45.645   2.299   8.434  0.00  0.00    +0.000 C 
ATOM     21  N   UNL     1      46.770   2.680   7.605  0.00  0.00    +0.000 N 
ATOM     22  C   UNL     1      47.726   1.903   7.041  0.00  0.00    +0.000 C 
ATOM     23  N   UNL     1      48.572   2.551   6.200  0.00  0.00    +0.000 N 
ATOM     24  O   UNL     1      47.841   0.700   7.235  0.00  0.00    +0.000 OA
ATOM     25  C   UNL     1      46.300   4.024   7.366  0.00  0.00    +0.000 C 
ATOM     26  H   UNL     1      48.786   3.514   6.408  0.00  0.00    +0.000 HD
ATOM     27  H   UNL     1      49.352   1.984   5.894  0.00  0.00    +0.000 HD
ENDBRANCH  18  19
ENDBRANCH   5  18
TORSDOF 6
ENDMDL
MODEL 6
REMARK VINA RESULT:    -6.816      3.650      8.163
REMARK INTER + INTRA:         -10.248
REMARK INTER:                  -9.874
REMARK INTRA:                  -0.374
REMARK UNBOUND:                -1.042
REMARK  Name = 
REMARK  8 active torsions:
REMARK  status: ('A' for Active; 'I' for Inactive)
REMARK    1  A    between atoms: C_1  and  C_2
REMARK    2  A    between atoms: C_4  and  O_5
REMARK    3  A    between atoms: O_5  and  C_6
REMARK    4  A    between atoms: C_6  and  C_7
REMARK    5  A    between atoms: C_7  and  C_8
REMARK    6  A    between atoms: C_7  and  C_9
REMARK    7  A    between atoms: C_13  and  O_14
REMARK    8  A    between atoms: O_14  and  C_15
REMARK                            x       y       z     vdW  Elec       q    Type
REMARK                         _______ _______ _______ _____ _____    ______ ____
ROOT
ATOM      1  C   UNL     1      45.133   5.176  12.285  0.00  0.00    +0.000 A 
ATOM      2  C   UNL     1      44.579   4.085  12.965  0.00  0.00    +0.000 A 
ATOM      3  C   UNL     1      43.880   3.094  12.272  0.00  0.00    +0.000 A 
ATOM      4  C   UNL     1      43.729   3.171  10.884  0.00  0.00    +0.000 A 
ATOM      5  C   UNL     1      44.282   4.243  10.190  0.00  0.00    +0.000 A 
ATOM      6  C   UNL     1      44.967   5.242  10.889  0.00  0.00    +0.000 A 
ENDROOT
BRANCH   1   7
ATOM      7  C   UNL     1      45.906   6.243  13.049  0.00  0.00    +0.000 C 
ATOM      8  C   UNL     1      45.530   7.652  12.577  0.00  0.00    +0.000 C 
BRANCH   7   9
ATOM      9  C   UNL     1      47.422   5.991  12.947  0.00  0.00    +0.000 C 
BRANCH   9  10
ATOM     10  O   UNL     1      48.031   6.901  12.023  0.00  0.00    +0.000 OA
BRANCH  10  14
ATOM     11  C   UNL     1      51.496   7.994  15.410  0.00  0.00    +0.000 C 
ATOM     12  C   UNL     1      50.840   8.158  14.072  0.00  0.00    +0.000 A 
ATOM     13  C   UNL     1      49.720   7.403  13.738  0.00  0.00    +0.000 A 
ATOM     14  C   UNL     1      49.133   7.574  12.486  0.00  0.00    +0.000 A 
ATOM     15  C   UNL     1      49.688   8.499  11.608  0.00  0.00    +0.000 A 
ATOM     16  C   UNL     1      50.802   9.209  12.019  0.00  0.00    +0.000 A 
ATOM     17  N   UNL     1      51.390   9.059  13.226  0.00  0.00    +0.000 NA
ENDBRANCH  10  14
ENDBRANCH   9  10
ENDBRANCH   7   9
ENDBRANCH   1   7
BRANCH   5  18
ATOM     18  O   UNL     1      44.192   4.436   8.833  0.00  0.00    +0.000 OA
BRANCH  18  19
ATOM     19  C   UNL     1      44.736   3.435   7.939  0.00  0.00    +0.000 C 
ATOM     20  C   UNL     1      45.409   2.199   8.575  0.00  0.00    +0.000 C 
ATOM     21  N   UNL     1      46.528   2.445   7.688  0.00  0.00    +0.000 N 
ATOM     22  C   UNL     1      47.428   1.573   7.175  0.00  0.00    +0.000 C 
ATOM     23  N   UNL     1      48.280   2.098   6.258  0.00  0.00    +0.000 N 
ATOM     24  O   UNL     1      47.490   0.388   7.476  0.00  0.00    +0.000 OA
ATOM     25  C   UNL     1      46.117   3.785   7.338  0.00  0.00    +0.000 C 
ATOM     26  H   UNL     1      48.547   3.063   6.371  0.00  0.00    +0.000 HD
ATOM     27  H   UNL     1      49.023   1.466   5.987  0.00  0.00    +0.000 HD
ENDBRANCH  18  19
ENDBRANCH   5  18
TORSDOF 6
ENDMDL
MODEL 7
REMARK VINA RESULT:    -6.481      1.907      8.282
REMARK INTER + INTRA:          -9.797
REMARK INTER:                  -9.022
REMARK INTRA:                  -0.774
REMARK UNBOUND:                -1.042
REMARK  Name = 
REMARK  8 active torsions:
REMARK  status: ('A' for Active; 'I' for Inactive)
REMARK    1  A    between atoms: C_1  and  C_2
REMARK    2  A    between atoms: C_4  and  O_5
REMARK    3  A    between atoms: O_5  and  C_6
REMARK    4  A    between atoms: C_6  and  C_7
REMARK    5  A    between atoms: C_7  and  C_8
REMARK    6  A    between atoms: C_7  and  C_9
REMARK    7  A    between atoms: C_13  and  O_14
REMARK    8  A    between atoms: O_14  and  C_15
REMARK                            x       y       z     vdW  Elec       q    Type
REMARK                         _______ _______ _______ _____ _____    ______ ____
ROOT
ATOM      1  C   UNL     1      44.846   5.944  12.239  0.00  0.00    +0.000 A 
ATOM      2  C   UNL     1      43.473   6.214  12.211  0.00  0.00    +0.000 A 
ATOM      3  C   UNL     1      42.584   5.319  11.609  0.00  0.00    +0.000 A 
ATOM      4  C   UNL     1      43.051   4.134  11.032  0.00  0.00    +0.000 A 
ATOM      5  C   UNL     1      44.412   3.845  11.060  0.00  0.00    +0.000 A 
ATOM      6  C   UNL     1      45.301   4.751  11.648  0.00  0.00    +0.000 A 
ENDROOT
BRANCH   1   7
ATOM      7  C   UNL     1      45.805   6.919  12.910  0.00  0.00    +0.000 C 
ATOM      8  C   UNL     1      45.728   8.310  12.270  0.00  0.00    +0.000 C 
BRANCH   7   9
ATOM      9  C   UNL     1      47.241   6.363  12.898  0.00  0.00    +0.000 C 
BRANCH   9  10
ATOM     10  O   UNL     1      48.058   7.032  13.866  0.00  0.00    +0.000 OA
BRANCH  10  14
ATOM     11  C   UNL     1      47.367   3.366  17.146  0.00  0.00    +0.000 C 
ATOM     12  C   UNL     1      48.101   4.561  16.616  0.00  0.00    +0.000 A 
ATOM     13  C   UNL     1      47.665   5.201  15.460  0.00  0.00    +0.000 A 
ATOM     14  C   UNL     1      48.370   6.307  14.989  0.00  0.00    +0.000 A 
ATOM     15  C   UNL     1      49.489   6.737  15.692  0.00  0.00    +0.000 A 
ATOM     16  C   UNL     1      49.855   6.044  16.833  0.00  0.00    +0.000 A 
ATOM     17  N   UNL     1      49.189   4.968  17.308  0.00  0.00    +0.000 NA
ENDBRANCH  10  14
ENDBRANCH   9  10
ENDBRANCH   7   9
ENDBRANCH   1   7
BRANCH   5  18
ATOM     18  O   UNL     1      44.992   2.723  10.520  0.00  0.00    +0.000 OA
BRANCH  18  19
ATOM     19  C   UNL     1      45.000   2.556   9.082  0.00  0.00    +0.000 C 
ATOM     20  C   UNL     1      46.003   1.544   8.485  0.00  0.00    +0.000 C 
ATOM     21  N   UNL     1      46.396   2.590   7.564  0.00  0.00    +0.000 N 
ATOM     22  C   UNL     1      46.903   2.489   6.312  0.00  0.00    +0.000 C 
ATOM     23  N   UNL     1      47.040   3.665   5.649  0.00  0.00    +0.000 N 
ATOM     24  O   UNL     1      47.210   1.431   5.775  0.00  0.00    +0.000 OA
ATOM     25  C   UNL     1      45.763   3.655   8.306  0.00  0.00    +0.000 C 
ATOM     26  H   UNL     1      47.254   4.484   6.197  0.00  0.00    +0.000 HD
ATOM     27  H   UNL     1      47.540   3.581   4.773  0.00  0.00    +0.000 HD
ENDBRANCH  18  19
ENDBRANCH   5  18
TORSDOF 6
ENDMDL
MODEL 8
REMARK VINA RESULT:    -6.443      3.364      8.192
REMARK INTER + INTRA:          -9.745
REMARK INTER:                  -9.304
REMARK INTRA:                  -0.441
REMARK UNBOUND:                -1.042
REMARK  Name = 
REMARK  8 active torsions:
REMARK  status: ('A' for Active; 'I' for Inactive)
REMARK    1  A    between atoms: C_1  and  C_2
REMARK    2  A    between atoms: C_4  and  O_5
REMARK    3  A    between atoms: O_5  and  C_6
REMARK    4  A    between atoms: C_6  and  C_7
REMARK    5  A    between atoms: C_7  and  C_8
REMARK    6  A    between atoms: C_7  and  C_9
REMARK    7  A    between atoms: C_13  and  O_14
REMARK    8  A    between atoms: O_14  and  C_15
REMARK                            x       y       z     vdW  Elec       q    Type
REMARK                         _______ _______ _______ _____ _____    ______ ____
ROOT
ATOM      1  C   UNL     1      45.660   4.945  12.373  0.00  0.00    +0.000 A 
ATOM      2  C   UNL     1      44.824   6.065  12.286  0.00  0.00    +0.000 A 
ATOM      3  C   UNL     1      43.656   6.022  11.521  0.00  0.00    +0.000 A 
ATOM      4  C   UNL     1      43.297   4.857  10.837  0.00  0.00    +0.000 A 
ATOM      5  C   UNL     1      44.110   3.731  10.921  0.00  0.00    +0.000 A 
ATOM      6  C   UNL     1      45.288   3.783  11.673  0.00  0.00    +0.000 A 
ENDROOT
BRANCH   1   7
ATOM      7  C   UNL     1      46.925   4.998  13.221  0.00  0.00    +0.000 C 
ATOM      8  C   UNL     1      46.696   4.377  14.604  0.00  0.00    +0.000 C 
BRANCH   7   9
ATOM      9  C   UNL     1      47.450   6.442  13.323  0.00  0.00    +0.000 C 
BRANCH   9  10
ATOM     10  O   UNL     1      48.865   6.458  13.542  0.00  0.00    +0.000 OA
BRANCH  10  14
ATOM     11  C   UNL     1      49.555  10.683  11.023  0.00  0.00    +0.000 C 
ATOM     12  C   UNL     1      49.894   9.707  12.110  0.00  0.00    +0.000 A 
ATOM     13  C   UNL     1      49.162   8.533  12.257  0.00  0.00    +0.000 A 
ATOM     14  C   UNL     1      49.498   7.647  13.279  0.00  0.00    +0.000 A 
ATOM     15  C   UNL     1      50.559   7.964  14.119  0.00  0.00    +0.000 A 
ATOM     16  C   UNL     1      51.236   9.152  13.903  0.00  0.00    +0.000 A 
ATOM     17  N   UNL     1      50.927  10.028  12.921  0.00  0.00    +0.000 NA
ENDBRANCH  10  14
ENDBRANCH   9  10
ENDBRANCH   7   9
ENDBRANCH   1   7
BRANCH   5  18
ATOM     18  O   UNL     1      43.873   2.536  10.288  0.00  0.00    +0.000 OA
BRANCH  18  19
ATOM     19  C   UNL     1      44.358   2.343   8.937  0.00  0.00    +0.000 C 
ATOM     20  C   UNL     1      45.619   1.471   8.748  0.00  0.00    +0.000 C 
ATOM     21  N   UNL     1      46.146   2.545   7.930  0.00  0.00    +0.000 N 
ATOM     22  C   UNL     1      47.033   2.492   6.908  0.00  0.00    +0.000 C 
ATOM     23  N   UNL     1      47.222   3.663   6.248  0.00  0.00    +0.000 N 
ATOM     24  O   UNL     1      47.628   1.479   6.561  0.00  0.00    +0.000 OA
ATOM     25  C   UNL     1      45.180   3.523   8.370  0.00  0.00    +0.000 C 
ATOM     26  H   UNL     1      47.143   4.514   6.782  0.00  0.00    +0.000 HD
ATOM     27  H   UNL     1      47.980   3.633   5.578  0.00  0.00    +0.000 HD
ENDBRANCH  18  19
ENDBRANCH   5  18
TORSDOF 6
ENDMDL
MODEL 9
REMARK VINA RESULT:    -6.391      3.365      4.171
REMARK INTER + INTRA:          -9.674
REMARK INTER:                  -9.298
REMARK INTRA:                  -0.376
REMARK UNBOUND:                -1.042
REMARK  Name = 
REMARK  8 active torsions:
REMARK  status: ('A' for Active; 'I' for Inactive)
REMARK    1  A    between atoms: C_1  and  C_2
REMARK    2  A    between atoms: C_4  and  O_5
REMARK    3  A    between atoms: O_5  and  C_6
REMARK    4  A    between atoms: C_6  and  C_7
REMARK    5  A    between atoms: C_7  and  C_8
REMARK    6  A    between atoms: C_7  and  C_9
REMARK    7  A    between atoms: C_13  and  O_14
REMARK    8  A    between atoms: O_14  and  C_15
REMARK                            x       y       z     vdW  Elec       q    Type
REMARK                         _______ _______ _______ _____ _____    ______ ____
ROOT
ATOM      1  C   UNL     1      45.605   5.603  12.014  0.00  0.00    +0.000 A 
ATOM      2  C   UNL     1      45.902   5.080  13.277  0.00  0.00    +0.000 A 
ATOM      3  C   UNL     1      47.098   5.409  13.920  0.00  0.00    +0.000 A 
ATOM      4  C   UNL     1      48.014   6.274  13.316  0.00  0.00    +0.000 A 
ATOM      5  C   UNL     1      47.730   6.813  12.065  0.00  0.00    +0.000 A 
ATOM      6  C   UNL     1      46.540   6.468  11.416  0.00  0.00    +0.000 A 
ENDROOT
BRANCH   1   7
ATOM      7  C   UNL     1      44.291   5.249  11.327  0.00  0.00    +0.000 C 
ATOM      8  C   UNL     1      43.092   5.839  12.078  0.00  0.00    +0.000 C 
BRANCH   7   9
ATOM      9  C   UNL     1      44.164   3.724  11.154  0.00  0.00    +0.000 C 
BRANCH   9  10
ATOM     10  O   UNL     1      43.791   3.391   9.812  0.00  0.00    +0.000 OA
BRANCH  10  14
ATOM     11  C   UNL     1      46.824   0.087   7.676  0.00  0.00    +0.000 C 
ATOM     12  C   UNL     1      46.321   1.480   7.910  0.00  0.00    +0.000 A 
ATOM     13  C   UNL     1      45.266   1.711   8.787  0.00  0.00    +0.000 A 
ATOM     14  C   UNL     1      44.818   3.016   8.982  0.00  0.00    +0.000 A 
ATOM     15  C   UNL     1      45.442   4.049   8.292  0.00  0.00    +0.000 A 
ATOM     16  C   UNL     1      46.485   3.733   7.438  0.00  0.00    +0.000 A 
ATOM     17  N   UNL     1      46.936   2.476   7.231  0.00  0.00    +0.000 NA
ENDBRANCH  10  14
ENDBRANCH   9  10
ENDBRANCH   7   9
ENDBRANCH   1   7
BRANCH   5  18
ATOM     18  O   UNL     1      48.552   7.663  11.365  0.00  0.00    +0.000 OA
BRANCH  18  19
ATOM     19  C   UNL     1      48.873   8.958  11.928  0.00  0.00    +0.000 C 
ATOM     20  C   UNL     1      50.105   9.050  12.853  0.00  0.00    +0.000 C 
ATOM     21  N   UNL     1      49.252   9.742  13.797  0.00  0.00    +0.000 N 
ATOM     22  C   UNL     1      49.576  10.658  14.741  0.00  0.00    +0.000 C 
ATOM     23  N   UNL     1      48.521  11.226  15.379  0.00  0.00    +0.000 N 
ATOM     24  O   UNL     1      50.723  10.990  15.015  0.00  0.00    +0.000 OA
ATOM     25  C   UNL     1      48.017   9.361  13.152  0.00  0.00    +0.000 C 
ATOM     26  H   UNL     1      47.700  10.658  15.513  0.00  0.00    +0.000 HD
ATOM     27  H   UNL     1      48.787  11.806  16.165  0.00  0.00    +0.000 HD
ENDBRANCH  18  19
ENDBRANCH   5  18
TORSDOF 6
ENDMDL
