MODEL 1
REMARK VINA RESULT:    -7.888      0.000      0.000
REMARK INTER + INTRA:         -11.130
REMARK INTER:                 -10.424
REMARK INTRA:                  -0.706
REMARK UNBOUND:                -0.706
REMARK  Name = 
REMARK  6 active torsions:
REMARK  status: ('A' for Active; 'I' for Inactive)
REMARK    1  A    between atoms: N_1  and  C_2
REMARK    2  A    between atoms: C_2  and  C_3
REMARK    3  A    between atoms: C_3  and  C_4
REMARK    4  A    between atoms: C_7  and  C_8
REMARK    5  A    between atoms: C_8  and  C_9
REMARK    6  A    between atoms: C_15  and  C_16
REMARK                            x       y       z     vdW  Elec       q    Type
REMARK                         _______ _______ _______ _____ _____    ______ ____
ROOT
ATOM      1  C   UNL     1      44.689   5.011  11.740  0.00  0.00    +0.000 A 
ATOM      2  C   UNL     1      45.508   4.241  12.548  0.00  0.00    +0.000 A 
ATOM      3  S   UNL     1      46.560   5.176  13.524  0.00  0.00    +0.000 S 
ATOM      4  C   UNL     1      45.947   6.630  12.894  0.00  0.00    +0.000 A 
ATOM      5  N   UNL     1      46.433   7.827  13.293  0.00  0.00    +0.000 NA
ATOM      6  C   UNL     1      45.843   8.889  12.689  0.00  0.00    +0.000 A 
ATOM      7  C   UNL     1      44.830   8.827  11.741  0.00  0.00    +0.000 A 
ATOM      8  C   UNL     1      44.374   7.566  11.363  0.00  0.00    +0.000 A 
ATOM      9  C   UNL     1      44.943   6.418  11.954  0.00  0.00    +0.000 A 
ENDROOT
BRANCH   7  10
ATOM     10  C   UNL     1      44.282  10.080  11.176  0.00  0.00    +0.000 C 
ATOM     11  N   UNL     1      43.713  10.049   9.933  0.00  0.00    +0.000 N 
ATOM     12  O   UNL     1      44.334  11.130  11.803  0.00  0.00    +0.000 OA
ATOM     13  H   UNL     1      43.644   9.249   9.332  0.00  0.00    +0.000 HD
ATOM     14  H   UNL     1      43.352  10.931   9.578  0.00  0.00    +0.000 HD
ENDBRANCH   7  10
BRANCH   1  15
ATOM     15  C   UNL     1      43.739   4.471  10.708  0.00  0.00    +0.000 C 
BRANCH  15  19
ATOM     16  C   UNL     1      46.106   2.289   7.806  0.00  0.00    +0.000 A 
ATOM     17  C   UNL     1      46.093   3.688   7.789  0.00  0.00    +0.000 A 
ATOM     18  C   UNL     1      45.327   4.402   8.717  0.00  0.00    +0.000 A 
ATOM     19  C   UNL     1      44.544   3.730   9.669  0.00  0.00    +0.000 A 
ATOM     20  C   UNL     1      44.570   2.329   9.682  0.00  0.00    +0.000 A 
ATOM     21  C   UNL     1      45.359   1.617   8.777  0.00  0.00    +0.000 A 
BRANCH  16  22
ATOM     22  C   UNL     1      46.917   1.517   6.793  0.00  0.00    +0.000 C 
BRANCH  22  23
ATOM     23  C   UNL     1      48.225   2.227   6.438  0.00  0.00    +0.000 C 
BRANCH  23  24
ATOM     24  N   UNL     1      48.261   2.570   5.016  0.00  0.00    +0.000 NA
ATOM     25  H   UNL     1      48.592   1.766   4.484  0.00  0.00    +0.000 HD
ATOM     26  H   UNL     1      48.938   3.314   4.860  0.00  0.00    +0.000 HD
ENDBRANCH  23  24
ENDBRANCH  22  23
ENDBRANCH  16  22
ENDBRANCH  15  19
ENDBRANCH   1  15
TORSDOF 6
ENDMDL
MODEL 2
REMARK VINA RESULT:    -7.715      2.843      4.200
REMARK INTER + INTRA:         -10.901
REMARK INTER:                 -10.310
REMARK INTRA:                  -0.591
REMARK UNBOUND:                -0.706
REMARK  Name = 
REMARK  6 active torsions:
REMARK  status: ('A' for Active; 'I' for Inactive)
REMARK    1  A    between atoms: N_1  and  C_2
REMARK    2  A    between atoms: C_2  and  C_3
REMARK    3  A    between atoms: C_3  and  C_4
REMARK    4  A    between atoms: C_7  and  C_8
REMARK    5  A    between atoms: C_8  and  C_9
REMARK    6  A    between atoms: C_15  and  C_16
REMARK                            x       y       z     vdW  Elec       q    Type
REMARK                         _______ _______ _______ _____ _____    ______ ____
ROOT
ATOM      1  C   UNL     1      45.101   6.104  11.705  0.00  0.00    +0.000 A 
ATOM      2  C   UNL     1      45.224   7.401  11.237  0.00  0.00    +0.000 A 
ATOM      3  S   UNL     1      46.387   8.318  12.097  0.00  0.00    +0.000 S 
ATOM      4  C   UNL     1      46.755   7.008  13.113  0.00  0.00    +0.000 A 
ATOM      5  N   UNL     1      47.669   7.123  14.103  0.00  0.00    +0.000 NA
ATOM      6  C   UNL     1      47.840   5.989  14.829  0.00  0.00    +0.000 A 
ATOM      7  C   UNL     1      47.173   4.787  14.629  0.00  0.00    +0.000 A 
ATOM      8  C   UNL     1      46.237   4.730  13.600  0.00  0.00    +0.000 A 
ATOM      9  C   UNL     1      46.011   5.873  12.804  0.00  0.00    +0.000 A 
ENDROOT
BRANCH   7  10
ATOM     10  C   UNL     1      47.476   3.633  15.505  0.00  0.00    +0.000 C 
ATOM     11  N   UNL     1      47.023   3.648  16.795  0.00  0.00    +0.000 N 
ATOM     12  O   UNL     1      48.119   2.678  15.090  0.00  0.00    +0.000 OA
ATOM     13  H   UNL     1      46.510   4.391  17.236  0.00  0.00    +0.000 HD
ATOM     14  H   UNL     1      47.254   2.839  17.366  0.00  0.00    +0.000 HD
ENDBRANCH   7  10
BRANCH   1  15
ATOM     15  C   UNL     1      44.093   5.101  11.217  0.00  0.00    +0.000 C 
BRANCH  15  19
ATOM     16  C   UNL     1      45.926   2.717   8.096  0.00  0.00    +0.000 A 
ATOM     17  C   UNL     1      45.218   2.093   9.129  0.00  0.00    +0.000 A 
ATOM     18  C   UNL     1      44.629   2.853  10.146  0.00  0.00    +0.000 A 
ATOM     19  C   UNL     1      44.751   4.251  10.158  0.00  0.00    +0.000 A 
ATOM     20  C   UNL     1      45.455   4.867   9.115  0.00  0.00    +0.000 A 
ATOM     21  C   UNL     1      46.016   4.112   8.083  0.00  0.00    +0.000 A 
BRANCH  16  22
ATOM     22  C   UNL     1      46.579   1.897   7.009  0.00  0.00    +0.000 C 
BRANCH  22  23
ATOM     23  C   UNL     1      48.036   2.299   6.779  0.00  0.00    +0.000 C 
BRANCH  23  24
ATOM     24  N   UNL     1      48.487   1.885   5.451  0.00  0.00    +0.000 NA
ATOM     25  H   UNL     1      49.158   2.565   5.095  0.00  0.00    +0.000 HD
ATOM     26  H   UNL     1      47.701   1.895   4.802  0.00  0.00    +0.000 HD
ENDBRANCH  23  24
ENDBRANCH  22  23
ENDBRANCH  16  22
ENDBRANCH  15  19
ENDBRANCH   1  15
TORSDOF 6
ENDMDL
MODEL 3
REMARK VINA RESULT:    -7.200      1.954      2.356
REMARK INTER + INTRA:         -10.221
REMARK INTER:                  -9.459
REMARK INTRA:                  -0.762
REMARK UNBOUND:                -0.706
REMARK  Name = 
REMARK  6 active torsions:
REMARK  status: ('A' for Active; 'I' for Inactive)
REMARK    1  A    between atoms: N_1  and  C_2
REMARK    2  A    between atoms: C_2  and  C_3
REMARK    3  A    between atoms: C_3  and  C_4
REMARK    4  A    between atoms: C_7  and  C_8
REMARK    5  A    between atoms: C_8  and  C_9
REMARK    6  A    between atoms: C_15  and  C_16
REMARK                            x       y       z     vdW  Elec       q    Type
REMARK                         _______ _______ _______ _____ _____    ______ ____
ROOT
ATOM      1  C   UNL     1      45.450   4.836  12.456  0.00  0.00    +0.000 A 
ATOM      2  C   UNL     1      45.771   3.725  13.217  0.00  0.00    +0.000 A 
ATOM      3  S   UNL     1      47.132   3.971  14.225  0.00  0.00    +0.000 S 
ATOM      4  C   UNL     1      47.327   5.567  13.673  0.00  0.00    +0.000 A 
ATOM      5  N   UNL     1      48.335   6.347  14.123  0.00  0.00    +0.000 NA
ATOM      6  C   UNL     1      48.355   7.589  13.577  0.00  0.00    +0.000 A 
ATOM      7  C   UNL     1      47.457   8.080  12.639  0.00  0.00    +0.000 A 
ATOM      8  C   UNL     1      46.443   7.228  12.205  0.00  0.00    +0.000 A 
ATOM      9  C   UNL     1      46.362   5.922  12.734  0.00  0.00    +0.000 A 
ENDROOT
BRANCH   7  10
ATOM     10  C   UNL     1      47.608   9.465  12.141  0.00  0.00    +0.000 C 
ATOM     11  N   UNL     1      48.863  10.004  12.063  0.00  0.00    +0.000 N 
ATOM     12  O   UNL     1      46.634  10.124  11.803  0.00  0.00    +0.000 OA
ATOM     13  H   UNL     1      49.719   9.556  12.336  0.00  0.00    +0.000 HD
ATOM     14  H   UNL     1      48.926  10.959  11.720  0.00  0.00    +0.000 HD
ENDBRANCH   7  10
BRANCH   1  15
ATOM     15  C   UNL     1      44.373   4.885  11.409  0.00  0.00    +0.000 C 
BRANCH  15  19
ATOM     16  C   UNL     1      45.939   3.357   7.667  0.00  0.00    +0.000 A 
ATOM     17  C   UNL     1      45.217   2.515   8.520  0.00  0.00    +0.000 A 
ATOM     18  C   UNL     1      44.713   2.996   9.733  0.00  0.00    +0.000 A 
ATOM     19  C   UNL     1      44.937   4.325  10.126  0.00  0.00    +0.000 A 
ATOM     20  C   UNL     1      45.655   5.163   9.262  0.00  0.00    +0.000 A 
ATOM     21  C   UNL     1      46.131   4.692   8.036  0.00  0.00    +0.000 A 
BRANCH  16  22
ATOM     22  C   UNL     1      46.500   2.835   6.366  0.00  0.00    +0.000 C 
BRANCH  22  23
ATOM     23  C   UNL     1      47.508   1.705   6.584  0.00  0.00    +0.000 C 
BRANCH  23  24
ATOM     24  N   UNL     1      48.597   1.785   5.611  0.00  0.00    +0.000 NA
ATOM     25  H   UNL     1      48.280   1.405   4.719  0.00  0.00    +0.000 HD
ATOM     26  H   UNL     1      49.371   1.195   5.913  0.00  0.00    +0.000 HD
ENDBRANCH  23  24
ENDBRANCH  22  23
ENDBRANCH  16  22
ENDBRANCH  15  19
ENDBRANCH   1  15
TORSDOF 6
ENDMDL
MODEL 4
REMARK VINA RESULT:    -6.547      3.313      6.955
REMARK INTER + INTRA:          -9.358
REMARK INTER:                  -8.611
REMARK INTRA:                  -0.747
REMARK UNBOUND:                -0.706
REMARK  Name = 
REMARK  6 active torsions:
REMARK  status: ('A' for Active; 'I' for Inactive)
REMARK    1  A    between atoms: N_1  and  C_2
REMARK    2  A    between atoms: C_2  and  C_3
REMARK    3  A    between atoms: C_3  and  C_4
REMARK    4  A    between atoms: C_7  and  C_8
REMARK    5  A    between atoms: C_8  and  C_9
REMARK    6  A    between atoms: C_15  and  C_16
REMARK                            x       y       z     vdW  Elec       q    Type
REMARK                         _______ _______ _______ _____ _____    ______ ____
ROOT
ATOM      1  C   UNL     1      44.503   6.098  11.619  0.00  0.00    +0.000 A 
ATOM      2  C   UNL     1      43.670   5.764  12.674  0.00  0.00    +0.000 A 
ATOM      3  S   UNL     1      43.100   4.151  12.594  0.00  0.00    +0.000 S 
ATOM      4  C   UNL     1      43.950   3.859  11.152  0.00  0.00    +0.000 A 
ATOM      5  N   UNL     1      43.879   2.663  10.526  0.00  0.00    +0.000 NA
ATOM      6  C   UNL     1      44.608   2.595   9.384  0.00  0.00    +0.000 A 
ATOM      7  C   UNL     1      45.379   3.619   8.849  0.00  0.00    +0.000 A 
ATOM      8  C   UNL     1      45.408   4.832   9.533  0.00  0.00    +0.000 A 
ATOM      9  C   UNL     1      44.674   4.971  10.730  0.00  0.00    +0.000 A 
ENDROOT
BRANCH   7  10
ATOM     10  C   UNL     1      46.126   3.389   7.593  0.00  0.00    +0.000 C 
ATOM     11  N   UNL     1      46.522   2.115   7.286  0.00  0.00    +0.000 N 
ATOM     12  O   UNL     1      46.389   4.313   6.836  0.00  0.00    +0.000 OA
ATOM     13  H   UNL     1      46.376   1.297   7.848  0.00  0.00    +0.000 HD
ATOM     14  H   UNL     1      47.035   1.998   6.416  0.00  0.00    +0.000 HD
ENDBRANCH   7  10
BRANCH   1  15
ATOM     15  C   UNL     1      45.072   7.466  11.367  0.00  0.00    +0.000 C 
BRANCH  15  19
ATOM     16  C   UNL     1      48.664   7.783  13.772  0.00  0.00    +0.000 A 
ATOM     17  C   UNL     1      47.578   8.630  14.020  0.00  0.00    +0.000 A 
ATOM     18  C   UNL     1      46.416   8.541  13.245  0.00  0.00    +0.000 A 
ATOM     19  C   UNL     1      46.325   7.615  12.195  0.00  0.00    +0.000 A 
ATOM     20  C   UNL     1      47.415   6.766  11.958  0.00  0.00    +0.000 A 
ATOM     21  C   UNL     1      48.562   6.833  12.752  0.00  0.00    +0.000 A 
BRANCH  16  22
ATOM     22  C   UNL     1      49.925   7.892  14.594  0.00  0.00    +0.000 C 
BRANCH  22  23
ATOM     23  C   UNL     1      49.715   7.430  16.037  0.00  0.00    +0.000 C 
BRANCH  23  24
ATOM     24  N   UNL     1      50.020   6.007  16.178  0.00  0.00    +0.000 NA
ATOM     25  H   UNL     1      49.380   5.590  16.854  0.00  0.00    +0.000 HD
ATOM     26  H   UNL     1      50.956   5.892  16.564  0.00  0.00    +0.000 HD
ENDBRANCH  23  24
ENDBRANCH  22  23
ENDBRANCH  16  22
ENDBRANCH  15  19
ENDBRANCH   1  15
TORSDOF 6
ENDMDL
MODEL 5
REMARK VINA RESULT:    -6.375      2.687      2.913
REMARK INTER + INTRA:          -9.130
REMARK INTER:                  -8.547
REMARK INTRA:                  -0.583
REMARK UNBOUND:                -0.706
REMARK  Name = 
REMARK  6 active torsions:
REMARK  status: ('A' for Active; 'I' for Inactive)
REMARK    1  A    between atoms: N_1  and  C_2
REMARK    2  A    between atoms: C_2  and  C_3
REMARK    3  A    between atoms: C_3  and  C_4
REMARK    4  A    between atoms: C_7  and  C_8
REMARK    5  A    between atoms: C_8  and  C_9
REMARK    6  A    between atoms: C_15  and  C_16
REMARK                            x       y       z     vdW  Elec       q    Type
REMARK                         _______ _______ _______ _____ _____    ______ ____
ROOT
ATOM      1  C   UNL     1      43.981   4.802  11.258  0.00  0.00    +0.000 A 
ATOM      2  C   UNL     1      43.062   4.074  11.994  0.00  0.00    +0.000 A 
ATOM      3  S   UNL     1      43.552   3.817  13.615  0.00  0.00    +0.000 S 
ATOM      4  C   UNL     1      45.001   4.672  13.374  0.00  0.00    +0.000 A 
ATOM      5  N   UNL     1      45.905   4.813  14.370  0.00  0.00    +0.000 NA
ATOM      6  C   UNL     1      47.011   5.515  14.013  0.00  0.00    +0.000 A 
ATOM      7  C   UNL     1      47.257   6.064  12.761  0.00  0.00    +0.000 A 
ATOM      8  C   UNL     1      46.293   5.880  11.773  0.00  0.00    +0.000 A 
ATOM      9  C   UNL     1      45.117   5.162  12.076  0.00  0.00    +0.000 A 
ENDROOT
BRANCH   7  10
ATOM     10  C   UNL     1      48.513   6.811  12.528  0.00  0.00    +0.000 C 
ATOM     11  N   UNL     1      48.648   7.528  11.371  0.00  0.00    +0.000 N 
ATOM     12  O   UNL     1      49.420   6.792  13.349  0.00  0.00    +0.000 OA
ATOM     13  H   UNL     1      47.975   7.588  10.628  0.00  0.00    +0.000 HD
ATOM     14  H   UNL     1      49.526   8.025  11.246  0.00  0.00    +0.000 HD
ENDBRANCH   7  10
BRANCH   1  15
ATOM     15  C   UNL     1      43.873   5.095   9.788  0.00  0.00    +0.000 C 
BRANCH  15  19
ATOM     16  C   UNL     1      46.366   2.192   7.753  0.00  0.00    +0.000 A 
ATOM     17  C   UNL     1      46.490   3.553   7.453  0.00  0.00    +0.000 A 
ATOM     18  C   UNL     1      45.685   4.498   8.099  0.00  0.00    +0.000 A 
ATOM     19  C   UNL     1      44.728   4.098   9.044  0.00  0.00    +0.000 A 
ATOM     20  C   UNL     1      44.616   2.733   9.343  0.00  0.00    +0.000 A 
ATOM     21  C   UNL     1      45.441   1.793   8.722  0.00  0.00    +0.000 A 
BRANCH  16  22
ATOM     22  C   UNL     1      47.220   1.169   7.043  0.00  0.00    +0.000 C 
BRANCH  22  23
ATOM     23  C   UNL     1      47.436   1.519   5.570  0.00  0.00    +0.000 C 
BRANCH  23  24
ATOM     24  N   UNL     1      48.695   2.239   5.385  0.00  0.00    +0.000 NA
ATOM     25  H   UNL     1      48.498   3.226   5.220  0.00  0.00    +0.000 HD
ATOM     26  H   UNL     1      49.166   1.899   4.548  0.00  0.00    +0.000 HD
ENDBRANCH  23  24
ENDBRANCH  22  23
ENDBRANCH  16  22
ENDBRANCH  15  19
ENDBRANCH   1  15
TORSDOF 6
ENDMDL
MODEL 6
REMARK VINA RESULT:    -6.292      4.362      7.689
REMARK INTER + INTRA:          -9.022
REMARK INTER:                  -8.276
REMARK INTRA:                  -0.746
REMARK UNBOUND:                -0.706
REMARK  Name = 
REMARK  6 active torsions:
REMARK  status: ('A' for Active; 'I' for Inactive)
REMARK    1  A    between atoms: N_1  and  C_2
REMARK    2  A    between atoms: C_2  and  C_3
REMARK    3  A    between atoms: C_3  and  C_4
REMARK    4  A    between atoms: C_7  and  C_8
REMARK    5  A    between atoms: C_8  and  C_9
REMARK    6  A    between atoms: C_15  and  C_16
REMARK                            x       y       z     vdW  Elec       q    Type
REMARK                         _______ _______ _______ _____ _____    ______ ____
ROOT
ATOM      1  C   UNL     1      46.725   6.871  12.532  0.00  0.00    +0.000 A 
ATOM      2  C   UNL     1      46.469   8.231  12.575  0.00  0.00    +0.000 A 
ATOM      3  S   UNL     1      44.902   8.637  12.016  0.00  0.00    +0.000 S 
ATOM      4  C   UNL     1      44.527   7.009  11.704  0.00  0.00    +0.000 A 
ATOM      5  N   UNL     1      43.331   6.652  11.186  0.00  0.00    +0.000 NA
ATOM      6  C   UNL     1      43.193   5.316  10.989  0.00  0.00    +0.000 A 
ATOM      7  C   UNL     1      44.150   4.350  11.271  0.00  0.00    +0.000 A 
ATOM      8  C   UNL     1      45.367   4.778  11.797  0.00  0.00    +0.000 A 
ATOM      9  C   UNL     1      45.576   6.153  12.028  0.00  0.00    +0.000 A 
ENDROOT
BRANCH   7  10
ATOM     10  C   UNL     1      43.847   2.926  11.005  0.00  0.00    +0.000 C 
ATOM     11  N   UNL     1      44.538   2.278  10.017  0.00  0.00    +0.000 N 
ATOM     12  O   UNL     1      42.996   2.330  11.652  0.00  0.00    +0.000 OA
ATOM     13  H   UNL     1      45.234   2.682   9.418  0.00  0.00    +0.000 HD
ATOM     14  H   UNL     1      44.299   1.302   9.862  0.00  0.00    +0.000 HD
ENDBRANCH   7  10
BRANCH   1  15
ATOM     15  C   UNL     1      48.044   6.230  12.862  0.00  0.00    +0.000 C 
BRANCH  15  19
ATOM     16  C   UNL     1      48.233   5.404  17.113  0.00  0.00    +0.000 A 
ATOM     17  C   UNL     1      47.523   4.548  16.264  0.00  0.00    +0.000 A 
ATOM     18  C   UNL     1      47.450   4.809  14.892  0.00  0.00    +0.000 A 
ATOM     19  C   UNL     1      48.070   5.942  14.343  0.00  0.00    +0.000 A 
ATOM     20  C   UNL     1      48.785   6.790  15.201  0.00  0.00    +0.000 A 
ATOM     21  C   UNL     1      48.885   6.513  16.565  0.00  0.00    +0.000 A 
BRANCH  16  22
ATOM     22  C   UNL     1      48.296   5.134  18.597  0.00  0.00    +0.000 C 
BRANCH  22  23
ATOM     23  C   UNL     1      48.674   3.685  18.905  0.00  0.00    +0.000 C 
BRANCH  23  24
ATOM     24  N   UNL     1      48.347   3.345  20.290  0.00  0.00    +0.000 NA
ATOM     25  H   UNL     1      49.183   2.999  20.759  0.00  0.00    +0.000 HD
ATOM     26  H   UNL     1      47.674   2.580  20.306  0.00  0.00    +0.000 HD
ENDBRANCH  23  24
ENDBRANCH  22  23
ENDBRANCH  16  22
ENDBRANCH  15  19
ENDBRANCH   1  15
TORSDOF 6
ENDMDL
MODEL 7
REMARK VINA RESULT:    -5.962      4.648      7.142
REMARK INTER + INTRA:          -8.585
REMARK INTER:                  -7.912
REMARK INTRA:                  -0.673
REMARK UNBOUND:                -0.706
REMARK  Name = 
REMARK  6 active torsions:
REMARK  status: ('A' for Active; 'I' for Inactive)
REMARK    1  A    between atoms: N_1  and  C_2
REMARK    2  A    between atoms: C_2  and  C_3
REMARK    3  A    between atoms: C_3  and  C_4
REMARK    4  A    between atoms: C_7  and  C_8
REMARK    5  A    between atoms: C_8  and  C_9
REMARK    6  A    between atoms: C_15  and  C_16
REMARK                            x       y       z     vdW  Elec       q    Type
REMARK                         _______ _______ _______ _____ _____    ______ ____
ROOT
ATOM      1  C   UNL     1      48.969   7.325  14.733  0.00  0.00    +0.000 A 
ATOM      2  C   UNL     1      49.278   8.661  14.925  0.00  0.00    +0.000 A 
ATOM      3  S   UNL     1      49.212   9.135  16.569  0.00  0.00    +0.000 S 
ATOM      4  C   UNL     1      48.770   7.570  17.064  0.00  0.00    +0.000 A 
ATOM      5  N   UNL     1      48.533   7.287  18.365  0.00  0.00    +0.000 NA
ATOM      6  C   UNL     1      48.183   5.995  18.591  0.00  0.00    +0.000 A 
ATOM      7  C   UNL     1      48.060   5.005  17.626  0.00  0.00    +0.000 A 
ATOM      8  C   UNL     1      48.309   5.357  16.301  0.00  0.00    +0.000 A 
ATOM      9  C   UNL     1      48.680   6.683  15.995  0.00  0.00    +0.000 A 
ENDROOT
BRANCH   7  10
ATOM     10  C   UNL     1      47.674   3.635  18.033  0.00  0.00    +0.000 C 
ATOM     11  N   UNL     1      48.322   3.055  19.089  0.00  0.00    +0.000 N 
ATOM     12  O   UNL     1      46.793   3.026  17.442  0.00  0.00    +0.000 OA
ATOM     13  H   UNL     1      49.071   3.460  19.621  0.00  0.00    +0.000 HD
ATOM     14  H   UNL     1      48.031   2.112  19.336  0.00  0.00    +0.000 HD
ENDBRANCH   7  10
BRANCH   1  15
ATOM     15  C   UNL     1      48.846   6.651  13.395  0.00  0.00    +0.000 C 
BRANCH  15  19
ATOM     16  C   UNL     1      44.657   5.668  12.872  0.00  0.00    +0.000 A 
ATOM     17  C   UNL     1      45.586   4.656  13.137  0.00  0.00    +0.000 A 
ATOM     18  C   UNL     1      46.941   4.961  13.301  0.00  0.00    +0.000 A 
ATOM     19  C   UNL     1      47.397   6.283  13.184  0.00  0.00    +0.000 A 
ATOM     20  C   UNL     1      46.458   7.291  12.925  0.00  0.00    +0.000 A 
ATOM     21  C   UNL     1      45.101   6.991  12.793  0.00  0.00    +0.000 A 
BRANCH  16  22
ATOM     22  C   UNL     1      43.197   5.338  12.676  0.00  0.00    +0.000 C 
BRANCH  22  23
ATOM     23  C   UNL     1      42.959   4.490  11.425  0.00  0.00    +0.000 C 
BRANCH  23  24
ATOM     24  N   UNL     1      43.365   5.213  10.221  0.00  0.00    +0.000 NA
ATOM     25  H   UNL     1      44.348   5.023  10.028  0.00  0.00    +0.000 HD
ATOM     26  H   UNL     1      43.296   6.217  10.383  0.00  0.00    +0.000 HD
ENDBRANCH  23  24
ENDBRANCH  22  23
ENDBRANCH  16  22
ENDBRANCH  15  19
ENDBRANCH   1  15
TORSDOF 6
ENDMDL
MODEL 8
REMARK VINA RESULT:    -5.715      5.286      8.084
REMARK INTER + INTRA:          -8.259
REMARK INTER:                  -7.416
REMARK INTRA:                  -0.843
REMARK UNBOUND:                -0.706
REMARK  Name = 
REMARK  6 active torsions:
REMARK  status: ('A' for Active; 'I' for Inactive)
REMARK    1  A    between atoms: N_1  and  C_2
REMARK    2  A    between atoms: C_2  and  C_3
REMARK    3  A    between atoms: C_3  and  C_4
REMARK    4  A    between atoms: C_7  and  C_8
REMARK    5  A    between atoms: C_8  and  C_9
REMARK    6  A    between atoms: C_15  and  C_16
REMARK                            x       y       z     vdW  Elec       q    Type
REMARK                         _______ _______ _______ _____ _____    ______ ____
ROOT
ATOM      1  C   UNL     1      48.989   7.363  16.274  0.00  0.00    +0.000 A 
ATOM      2  C   UNL     1      48.501   8.365  17.096  0.00  0.00    +0.000 A 
ATOM      3  S   UNL     1      48.133   7.818  18.676  0.00  0.00    +0.000 S 
ATOM      4  C   UNL     1      48.617   6.232  18.304  0.00  0.00    +0.000 A 
ATOM      5  N   UNL     1      48.537   5.241  19.220  0.00  0.00    +0.000 NA
ATOM      6  C   UNL     1      48.954   4.034  18.762  0.00  0.00    +0.000 A 
ATOM      7  C   UNL     1      49.430   3.768  17.484  0.00  0.00    +0.000 A 
ATOM      8  C   UNL     1      49.482   4.827  16.580  0.00  0.00    +0.000 A 
ATOM      9  C   UNL     1      49.066   6.111  16.991  0.00  0.00    +0.000 A 
ENDROOT
BRANCH   7  10
ATOM     10  C   UNL     1      49.855   2.394  17.136  0.00  0.00    +0.000 C 
ATOM     11  N   UNL     1      50.796   1.779  17.915  0.00  0.00    +0.000 N 
ATOM     12  O   UNL     1      49.378   1.811  16.172  0.00  0.00    +0.000 OA
ATOM     13  H   UNL     1      51.263   2.178  18.709  0.00  0.00    +0.000 HD
ATOM     14  H   UNL     1      51.064   0.836  17.642  0.00  0.00    +0.000 HD
ENDBRANCH   7  10
BRANCH   1  15
ATOM     15  C   UNL     1      49.301   7.520  14.812  0.00  0.00    +0.000 C 
BRANCH  15  19
ATOM     16  C   UNL     1      45.685   6.918  12.499  0.00  0.00    +0.000 A 
ATOM     17  C   UNL     1      46.057   8.208  12.893  0.00  0.00    +0.000 A 
ATOM     18  C   UNL     1      47.219   8.413  13.646  0.00  0.00    +0.000 A 
ATOM     19  C   UNL     1      48.021   7.329  14.035  0.00  0.00    +0.000 A 
ATOM     20  C   UNL     1      47.643   6.041  13.629  0.00  0.00    +0.000 A 
ATOM     21  C   UNL     1      46.502   5.840  12.851  0.00  0.00    +0.000 A 
BRANCH  16  22
ATOM     22  C   UNL     1      44.422   6.694  11.703  0.00  0.00    +0.000 C 
BRANCH  22  23
ATOM     23  C   UNL     1      43.719   5.391  12.088  0.00  0.00    +0.000 C 
BRANCH  23  24
ATOM     24  N   UNL     1      42.848   5.592  13.246  0.00  0.00    +0.000 NA
ATOM     25  H   UNL     1      41.881   5.414  12.975  0.00  0.00    +0.000 HD
ATOM     26  H   UNL     1      42.886   6.567  13.540  0.00  0.00    +0.000 HD
ENDBRANCH  23  24
ENDBRANCH  22  23
ENDBRANCH  16  22
ENDBRANCH  15  19
ENDBRANCH   1  15
TORSDOF 6
ENDMDL
MODEL 9
REMARK VINA RESULT:    -5.456      4.887      8.556
REMARK INTER + INTRA:          -7.917
REMARK INTER:                  -7.168
REMARK INTRA:                  -0.748
REMARK UNBOUND:                -0.706
REMARK  Name = 
REMARK  6 active torsions:
REMARK  status: ('A' for Active; 'I' for Inactive)
REMARK    1  A    between atoms: N_1  and  C_2
REMARK    2  A    between atoms: C_2  and  C_3
REMARK    3  A    between atoms: C_3  and  C_4
REMARK    4  A    between atoms: C_7  and  C_8
REMARK    5  A    between atoms: C_8  and  C_9
REMARK    6  A    between atoms: C_15  and  C_16
REMARK                            x       y       z     vdW  Elec       q    Type
REMARK                         _______ _______ _______ _____ _____    ______ ____
ROOT
ATOM      1  C   UNL     1      48.252   7.711  13.841  0.00  0.00    +0.000 A 
ATOM      2  C   UNL     1      48.094   9.054  13.544  0.00  0.00    +0.000 A 
ATOM      3  S   UNL     1      46.758   9.363  12.519  0.00  0.00    +0.000 S 
ATOM      4  C   UNL     1      46.356   7.713  12.447  0.00  0.00    +0.000 A 
ATOM      5  N   UNL     1      45.311   7.277  11.709  0.00  0.00    +0.000 NA
ATOM      6  C   UNL     1      45.130   5.933  11.751  0.00  0.00    +0.000 A 
ATOM      7  C   UNL     1      45.909   5.029  12.463  0.00  0.00    +0.000 A 
ATOM      8  C   UNL     1      46.978   5.535  13.199  0.00  0.00    +0.000 A 
ATOM      9  C   UNL     1      47.221   6.925  13.201  0.00  0.00    +0.000 A 
ENDROOT
BRANCH   7  10
ATOM     10  C   UNL     1      45.580   3.587  12.413  0.00  0.00    +0.000 C 
ATOM     11  N   UNL     1      44.748   3.135  11.425  0.00  0.00    +0.000 N 
ATOM     12  O   UNL     1      46.039   2.807  13.235  0.00  0.00    +0.000 OA
ATOM     13  H   UNL     1      44.304   3.696  10.721  0.00  0.00    +0.000 HD
ATOM     14  H   UNL     1      44.543   2.139  11.426  0.00  0.00    +0.000 HD
ENDBRANCH   7  10
BRANCH   1  15
ATOM     15  C   UNL     1      49.391   7.129  14.630  0.00  0.00    +0.000 C 
BRANCH  15  19
ATOM     16  C   UNL     1      47.884   6.289  18.607  0.00  0.00    +0.000 A 
ATOM     17  C   UNL     1      48.294   7.584  18.273  0.00  0.00    +0.000 A 
ATOM     18  C   UNL     1      48.788   7.865  16.994  0.00  0.00    +0.000 A 
ATOM     19  C   UNL     1      48.900   6.851  16.030  0.00  0.00    +0.000 A 
ATOM     20  C   UNL     1      48.480   5.558  16.372  0.00  0.00    +0.000 A 
ATOM     21  C   UNL     1      47.956   5.284  17.637  0.00  0.00    +0.000 A 
BRANCH  16  22
ATOM     22  C   UNL     1      47.368   5.980  19.992  0.00  0.00    +0.000 C 
BRANCH  22  23
ATOM     23  C   UNL     1      48.418   5.279  20.856  0.00  0.00    +0.000 C 
BRANCH  23  24
ATOM     24  N   UNL     1      48.259   3.827  20.792  0.00  0.00    +0.000 NA
ATOM     25  H   UNL     1      47.487   3.599  20.166  0.00  0.00    +0.000 HD
ATOM     26  H   UNL     1      47.998   3.469  21.709  0.00  0.00    +0.000 HD
ENDBRANCH  23  24
ENDBRANCH  22  23
ENDBRANCH  16  22
ENDBRANCH  15  19
ENDBRANCH   1  15
TORSDOF 6
ENDMDL
