MODEL 1
REMARK VINA RESULT:    -8.954      0.000      0.000
REMARK INTER + INTRA:         -12.126
REMARK INTER:                 -11.048
REMARK INTRA:                  -1.078
REMARK UNBOUND:                -1.078
REMARK  Name = 
REMARK  4 active torsions:
REMARK  status: ('A' for Active; 'I' for Inactive)
REMARK    1  A    between atoms: C_2  and  C_4
REMARK    2  A    between atoms: N_8  and  C_9
REMARK    3  A    between atoms: C_9  and  C_10
REMARK    4  A    between atoms: C_14  and  C_15
REMARK                            x       y       z     vdW  Elec       q    Type
REMARK                         _______ _______ _______ _____ _____    ______ ____
ROOT
ATOM      1  C   UNL     1      43.845   4.932  11.367  0.00  0.00    +0.000 C 
ATOM      2  C   UNL     1      42.521   5.124  12.097  0.00  0.00    +0.000 C 
ATOM      3  C   UNL     1      42.930   6.098  11.044  0.00  0.00    +0.000 C 
ENDROOT
BRANCH   1   8
ATOM      4  C   UNL     1      46.611   2.788   7.510  0.00  0.00    +0.000 A 
ATOM      5  C   UNL     1      46.271   4.123   7.702  0.00  0.00    +0.000 A 
ATOM      6  C   UNL     1      45.404   4.467   8.741  0.00  0.00    +0.000 A 
ATOM      7  C   UNL     1      44.891   3.473   9.562  0.00  0.00    +0.000 A 
ATOM      8  N   UNL     1      43.914   3.717  10.532  0.00  0.00    +0.000 N 
ATOM      9  N   UNL     1      45.222   2.173   9.393  0.00  0.00    +0.000 NA
ATOM     10  C   UNL     1      46.061   1.856   8.375  0.00  0.00    +0.000 A 
ATOM     11  H   UNL     1      43.808   2.832  11.025  0.00  0.00    +0.000 HD
BRANCH   4  13
ATOM     12  N   UNL     1      47.335   2.983   5.200  0.00  0.00    +0.000 N 
ATOM     13  C   UNL     1      47.470   2.335   6.397  0.00  0.00    +0.000 C 
ATOM     14  O   UNL     1      48.282   1.431   6.541  0.00  0.00    +0.000 OA
ATOM     15  H   UNL     1      47.968   2.709   4.459  0.00  0.00    +0.000 HD
ATOM     16  H   UNL     1      46.864   3.873   5.107  0.00  0.00    +0.000 HD
ENDBRANCH   4  13
ENDBRANCH   1   8
BRANCH   1  17
ATOM     17  C   UNL     1      45.128   5.176  12.157  0.00  0.00    +0.000 A 
ATOM     18  C   UNL     1      45.602   4.201  13.050  0.00  0.00    +0.000 A 
ATOM     19  C   UNL     1      46.838   4.329  13.676  0.00  0.00    +0.000 A 
ATOM     20  C   UNL     1      47.626   5.449  13.420  0.00  0.00    +0.000 A 
ATOM     21  C   UNL     1      47.205   6.453  12.532  0.00  0.00    +0.000 A 
ATOM     22  C   UNL     1      45.936   6.311  11.942  0.00  0.00    +0.000 A 
BRANCH  21  23
ATOM     23  C   UNL     1      48.106   7.575  12.178  0.00  0.00    +0.000 A 
ATOM     24  C   UNL     1      47.588   8.874  12.053  0.00  0.00    +0.000 A 
ATOM     25  C   UNL     1      48.438   9.924  11.737  0.00  0.00    +0.000 A 
ATOM     26  N   UNL     1      49.765   9.780  11.556  0.00  0.00    +0.000 NA
ATOM     27  C   UNL     1      50.256   8.531  11.688  0.00  0.00    +0.000 A 
ATOM     28  C   UNL     1      49.481   7.420  11.992  0.00  0.00    +0.000 A 
ENDBRANCH  21  23
ENDBRANCH   1  17
TORSDOF 4
ENDMDL
MODEL 2
REMARK VINA RESULT:    -8.787      2.142      3.353
REMARK INTER + INTRA:         -11.920
REMARK INTER:                 -11.313
REMARK INTRA:                  -0.607
REMARK UNBOUND:                -1.078
REMARK  Name = 
REMARK  4 active torsions:
REMARK  status: ('A' for Active; 'I' for Inactive)
REMARK    1  A    between atoms: C_2  and  C_4
REMARK    2  A    between atoms: N_8  and  C_9
REMARK    3  A    between atoms: C_9  and  C_10
REMARK    4  A    between atoms: C_14  and  C_15
REMARK                            x       y       z     vdW  Elec       q    Type
REMARK                         _______ _______ _______ _____ _____    ______ ____
ROOT
ATOM      1  C   UNL     1      43.937   4.883  11.478  0.00  0.00    +0.000 C 
ATOM      2  C   UNL     1      42.763   4.962  12.446  0.00  0.00    +0.000 C 
ATOM      3  C   UNL     1      42.839   5.915  11.301  0.00  0.00    +0.000 C 
ENDROOT
BRANCH   1   8
ATOM      4  C   UNL     1      46.476   2.710   7.483  0.00  0.00    +0.000 A 
ATOM      5  C   UNL     1      46.086   4.035   7.652  0.00  0.00    +0.000 A 
ATOM      6  C   UNL     1      45.292   4.382   8.748  0.00  0.00    +0.000 A 
ATOM      7  C   UNL     1      44.901   3.400   9.648  0.00  0.00    +0.000 A 
ATOM      8  N   UNL     1      43.998   3.638  10.688  0.00  0.00    +0.000 N 
ATOM      9  N   UNL     1      45.283   2.112   9.500  0.00  0.00    +0.000 NA
ATOM     10  C   UNL     1      46.049   1.791   8.427  0.00  0.00    +0.000 A 
ATOM     11  H   UNL     1      43.979   2.771  11.222  0.00  0.00    +0.000 HD
BRANCH   4  13
ATOM     12  N   UNL     1      47.222   3.029   5.194  0.00  0.00    +0.000 N 
ATOM     13  C   UNL     1      47.261   2.252   6.319  0.00  0.00    +0.000 C 
ATOM     14  O   UNL     1      47.933   1.231   6.362  0.00  0.00    +0.000 OA
ATOM     15  H   UNL     1      47.808   2.742   4.420  0.00  0.00    +0.000 HD
ATOM     16  H   UNL     1      46.884   3.982   5.196  0.00  0.00    +0.000 HD
ENDBRANCH   4  13
ENDBRANCH   1   8
BRANCH   1  17
ATOM     17  C   UNL     1      45.306   5.321  11.992  0.00  0.00    +0.000 A 
ATOM     18  C   UNL     1      46.013   6.343  11.335  0.00  0.00    +0.000 A 
ATOM     19  C   UNL     1      47.192   6.862  11.859  0.00  0.00    +0.000 A 
ATOM     20  C   UNL     1      47.693   6.359  13.057  0.00  0.00    +0.000 A 
ATOM     21  C   UNL     1      47.026   5.341  13.760  0.00  0.00    +0.000 A 
ATOM     22  C   UNL     1      45.855   4.814  13.187  0.00  0.00    +0.000 A 
BRANCH  21  23
ATOM     23  C   UNL     1      47.507   4.903  15.092  0.00  0.00    +0.000 A 
ATOM     24  C   UNL     1      48.319   5.756  15.856  0.00  0.00    +0.000 A 
ATOM     25  C   UNL     1      48.753   5.348  17.110  0.00  0.00    +0.000 A 
ATOM     26  N   UNL     1      48.424   4.165  17.664  0.00  0.00    +0.000 NA
ATOM     27  C   UNL     1      47.634   3.357  16.928  0.00  0.00    +0.000 A 
ATOM     28  C   UNL     1      47.161   3.677  15.662  0.00  0.00    +0.000 A 
ENDBRANCH  21  23
ENDBRANCH   1  17
TORSDOF 4
ENDMDL
MODEL 3
REMARK VINA RESULT:    -6.595      4.429      8.303
REMARK INTER + INTRA:          -9.216
REMARK INTER:                  -8.237
REMARK INTRA:                  -0.979
REMARK UNBOUND:                -1.078
REMARK  Name = 
REMARK  4 active torsions:
REMARK  status: ('A' for Active; 'I' for Inactive)
REMARK    1  A    between atoms: C_2  and  C_4
REMARK    2  A    between atoms: N_8  and  C_9
REMARK    3  A    between atoms: C_9  and  C_10
REMARK    4  A    between atoms: C_14  and  C_15
REMARK                            x       y       z     vdW  Elec       q    Type
REMARK                         _______ _______ _______ _____ _____    ______ ____
ROOT
ATOM      1  C   UNL     1      48.991   7.904  12.777  0.00  0.00    +0.000 C 
ATOM      2  C   UNL     1      49.959   8.121  11.621  0.00  0.00    +0.000 C 
ATOM      3  C   UNL     1      49.642   9.253  12.539  0.00  0.00    +0.000 C 
ENDROOT
BRANCH   1   8
ATOM      4  C   UNL     1      48.435   6.754  17.827  0.00  0.00    +0.000 A 
ATOM      5  C   UNL     1      48.447   8.003  17.213  0.00  0.00    +0.000 A 
ATOM      6  C   UNL     1      48.744   8.094  15.851  0.00  0.00    +0.000 A 
ATOM      7  C   UNL     1      49.027   6.940  15.133  0.00  0.00    +0.000 A 
ATOM      8  N   UNL     1      49.466   6.959  13.806  0.00  0.00    +0.000 N 
ATOM      9  N   UNL     1      49.008   5.721  15.716  0.00  0.00    +0.000 NA
ATOM     10  C   UNL     1      48.723   5.650  17.041  0.00  0.00    +0.000 A 
ATOM     11  H   UNL     1      49.502   5.979  13.528  0.00  0.00    +0.000 HD
BRANCH   4  13
ATOM     12  N   UNL     1      47.300   5.612  19.645  0.00  0.00    +0.000 N 
ATOM     13  C   UNL     1      48.193   6.579  19.273  0.00  0.00    +0.000 C 
ATOM     14  O   UNL     1      48.777   7.258  20.107  0.00  0.00    +0.000 OA
ATOM     15  H   UNL     1      47.182   5.457  20.638  0.00  0.00    +0.000 HD
ATOM     16  H   UNL     1      46.987   4.883  19.018  0.00  0.00    +0.000 HD
ENDBRANCH   4  13
ENDBRANCH   1   8
BRANCH   1  17
ATOM     17  C   UNL     1      47.516   7.707  12.436  0.00  0.00    +0.000 A 
ATOM     18  C   UNL     1      46.604   8.762  12.616  0.00  0.00    +0.000 A 
ATOM     19  C   UNL     1      45.286   8.663  12.182  0.00  0.00    +0.000 A 
ATOM     20  C   UNL     1      44.852   7.496  11.560  0.00  0.00    +0.000 A 
ATOM     21  C   UNL     1      45.721   6.412  11.348  0.00  0.00    +0.000 A 
ATOM     22  C   UNL     1      47.038   6.529  11.829  0.00  0.00    +0.000 A 
BRANCH  21  23
ATOM     23  C   UNL     1      45.277   5.227  10.578  0.00  0.00    +0.000 A 
ATOM     24  C   UNL     1      45.622   5.106   9.222  0.00  0.00    +0.000 A 
ATOM     25  C   UNL     1      45.218   3.986   8.508  0.00  0.00    +0.000 A 
ATOM     26  N   UNL     1      44.514   2.973   9.048  0.00  0.00    +0.000 NA
ATOM     27  C   UNL     1      44.196   3.092  10.353  0.00  0.00    +0.000 A 
ATOM     28  C   UNL     1      44.548   4.178  11.142  0.00  0.00    +0.000 A 
ENDBRANCH  21  23
ENDBRANCH   1  17
TORSDOF 4
ENDMDL
MODEL 4
REMARK VINA RESULT:    -6.502      3.663      7.524
REMARK INTER + INTRA:          -9.100
REMARK INTER:                  -9.137
REMARK INTRA:                   0.036
REMARK UNBOUND:                -1.078
REMARK  Name = 
REMARK  4 active torsions:
REMARK  status: ('A' for Active; 'I' for Inactive)
REMARK    1  A    between atoms: C_2  and  C_4
REMARK    2  A    between atoms: N_8  and  C_9
REMARK    3  A    between atoms: C_9  and  C_10
REMARK    4  A    between atoms: C_14  and  C_15
REMARK                            x       y       z     vdW  Elec       q    Type
REMARK                         _______ _______ _______ _____ _____    ______ ____
ROOT
ATOM      1  C   UNL     1      48.498   7.864  12.855  0.00  0.00    +0.000 C 
ATOM      2  C   UNL     1      49.646   7.258  12.057  0.00  0.00    +0.000 C 
ATOM      3  C   UNL     1      49.436   8.735  12.040  0.00  0.00    +0.000 C 
ENDROOT
BRANCH   1   8
ATOM      4  C   UNL     1      48.024   4.315  16.637  0.00  0.00    +0.000 A 
ATOM      5  C   UNL     1      47.264   4.465  15.481  0.00  0.00    +0.000 A 
ATOM      6  C   UNL     1      47.478   5.574  14.659  0.00  0.00    +0.000 A 
ATOM      7  C   UNL     1      48.441   6.510  15.009  0.00  0.00    +0.000 A 
ATOM      8  N   UNL     1      48.620   7.712  14.318  0.00  0.00    +0.000 N 
ATOM      9  N   UNL     1      49.193   6.370  16.124  0.00  0.00    +0.000 NA
ATOM     10  C   UNL     1      48.968   5.290  16.915  0.00  0.00    +0.000 A 
ATOM     11  H   UNL     1      49.441   8.139  14.743  0.00  0.00    +0.000 HD
BRANCH   4  13
ATOM     12  N   UNL     1      48.865   2.878  18.405  0.00  0.00    +0.000 N 
ATOM     13  C   UNL     1      47.816   3.206  17.590  0.00  0.00    +0.000 C 
ATOM     14  O   UNL     1      46.748   2.615  17.661  0.00  0.00    +0.000 OA
ATOM     15  H   UNL     1      48.697   2.157  19.096  0.00  0.00    +0.000 HD
ATOM     16  H   UNL     1      49.662   3.483  18.545  0.00  0.00    +0.000 HD
ENDBRANCH   4  13
ENDBRANCH   1   8
BRANCH   1  17
ATOM     17  C   UNL     1      47.078   7.611  12.354  0.00  0.00    +0.000 A 
ATOM     18  C   UNL     1      46.119   8.637  12.406  0.00  0.00    +0.000 A 
ATOM     19  C   UNL     1      44.862   8.485  11.829  0.00  0.00    +0.000 A 
ATOM     20  C   UNL     1      44.539   7.291  11.188  0.00  0.00    +0.000 A 
ATOM     21  C   UNL     1      45.461   6.234  11.100  0.00  0.00    +0.000 A 
ATOM     22  C   UNL     1      46.710   6.406  11.724  0.00  0.00    +0.000 A 
BRANCH  21  23
ATOM     23  C   UNL     1      45.145   5.020  10.311  0.00  0.00    +0.000 A 
ATOM     24  C   UNL     1      45.613   4.903   8.993  0.00  0.00    +0.000 A 
ATOM     25  C   UNL     1      45.329   3.757   8.263  0.00  0.00    +0.000 A 
ATOM     26  N   UNL     1      44.631   2.715   8.755  0.00  0.00    +0.000 NA
ATOM     27  C   UNL     1      44.195   2.831  10.026  0.00  0.00    +0.000 A 
ATOM     28  C   UNL     1      44.423   3.942  10.826  0.00  0.00    +0.000 A 
ENDBRANCH  21  23
ENDBRANCH   1  17
TORSDOF 4
ENDMDL
MODEL 5
REMARK VINA RESULT:    -6.223      2.647      6.808
REMARK INTER + INTRA:          -8.757
REMARK INTER:                  -7.789
REMARK INTRA:                  -0.967
REMARK UNBOUND:                -1.078
REMARK  Name = 
REMARK  4 active torsions:
REMARK  status: ('A' for Active; 'I' for Inactive)
REMARK    1  A    between atoms: C_2  and  C_4
REMARK    2  A    between atoms: N_8  and  C_9
REMARK    3  A    between atoms: C_9  and  C_10
REMARK    4  A    between atoms: C_14  and  C_15
REMARK                            x       y       z     vdW  Elec       q    Type
REMARK                         _______ _______ _______ _____ _____    ______ ____
ROOT
ATOM      1  C   UNL     1      46.137   5.173  13.415  0.00  0.00    +0.000 C 
ATOM      2  C   UNL     1      45.948   4.339  14.676  0.00  0.00    +0.000 C 
ATOM      3  C   UNL     1      47.203   4.199  13.882  0.00  0.00    +0.000 C 
ENDROOT
BRANCH   1   8
ATOM      4  C   UNL     1      48.561   9.443  11.675  0.00  0.00    +0.000 A 
ATOM      5  C   UNL     1      49.057   8.149  11.804  0.00  0.00    +0.000 A 
ATOM      6  C   UNL     1      48.273   7.172  12.421  0.00  0.00    +0.000 A 
ATOM      7  C   UNL     1      47.014   7.507  12.901  0.00  0.00    +0.000 A 
ATOM      8  N   UNL     1      46.227   6.628  13.650  0.00  0.00    +0.000 N 
ATOM      9  N   UNL     1      46.517   8.758  12.772  0.00  0.00    +0.000 NA
ATOM     10  C   UNL     1      47.294   9.696  12.175  0.00  0.00    +0.000 A 
ATOM     11  H   UNL     1      45.341   7.113  13.778  0.00  0.00    +0.000 HD
BRANCH   4  13
ATOM     12  N   UNL     1      48.665  11.515  10.414  0.00  0.00    +0.000 N 
ATOM     13  C   UNL     1      49.351  10.546  11.092  0.00  0.00    +0.000 C 
ATOM     14  O   UNL     1      50.566  10.601  11.222  0.00  0.00    +0.000 OA
ATOM     15  H   UNL     1      49.205  12.299  10.068  0.00  0.00    +0.000 HD
ATOM     16  H   UNL     1      47.664  11.634  10.489  0.00  0.00    +0.000 HD
ENDBRANCH   4  13
ENDBRANCH   1   8
BRANCH   1  17
ATOM     17  C   UNL     1      45.278   4.826  12.203  0.00  0.00    +0.000 A 
ATOM     18  C   UNL     1      43.989   5.372  12.073  0.00  0.00    +0.000 A 
ATOM     19  C   UNL     1      43.238   5.191  10.916  0.00  0.00    +0.000 A 
ATOM     20  C   UNL     1      43.765   4.450   9.862  0.00  0.00    +0.000 A 
ATOM     21  C   UNL     1      45.050   3.886   9.934  0.00  0.00    +0.000 A 
ATOM     22  C   UNL     1      45.771   4.057  11.130  0.00  0.00    +0.000 A 
BRANCH  21  23
ATOM     23  C   UNL     1      45.643   3.205   8.759  0.00  0.00    +0.000 A 
ATOM     24  C   UNL     1      46.073   3.962   7.657  0.00  0.00    +0.000 A 
ATOM     25  C   UNL     1      46.643   3.321   6.565  0.00  0.00    +0.000 A 
ATOM     26  N   UNL     1      46.833   1.989   6.499  0.00  0.00    +0.000 NA
ATOM     27  C   UNL     1      46.428   1.272   7.566  0.00  0.00    +0.000 A 
ATOM     28  C   UNL     1      45.839   1.825   8.695  0.00  0.00    +0.000 A 
ENDBRANCH  21  23
ENDBRANCH   1  17
TORSDOF 4
ENDMDL
MODEL 6
REMARK VINA RESULT:    -6.090      1.194      2.322
REMARK INTER + INTRA:          -8.592
REMARK INTER:                  -8.656
REMARK INTRA:                   0.064
REMARK UNBOUND:                -1.078
REMARK  Name = 
REMARK  4 active torsions:
REMARK  status: ('A' for Active; 'I' for Inactive)
REMARK    1  A    between atoms: C_2  and  C_4
REMARK    2  A    between atoms: N_8  and  C_9
REMARK    3  A    between atoms: C_9  and  C_10
REMARK    4  A    between atoms: C_14  and  C_15
REMARK                            x       y       z     vdW  Elec       q    Type
REMARK                         _______ _______ _______ _____ _____    ______ ____
ROOT
ATOM      1  C   UNL     1      44.135   3.878  11.851  0.00  0.00    +0.000 C 
ATOM      2  C   UNL     1      45.036   3.278  12.923  0.00  0.00    +0.000 C 
ATOM      3  C   UNL     1      43.577   3.434  13.190  0.00  0.00    +0.000 C 
ENDROOT
BRANCH   1   8
ATOM      4  C   UNL     1      46.533   2.939   7.323  0.00  0.00    +0.000 A 
ATOM      5  C   UNL     1      46.406   4.142   8.010  0.00  0.00    +0.000 A 
ATOM      6  C   UNL     1      45.603   4.199   9.152  0.00  0.00    +0.000 A 
ATOM      7  C   UNL     1      44.940   3.057   9.580  0.00  0.00    +0.000 A 
ATOM      8  N   UNL     1      44.013   3.063  10.626  0.00  0.00    +0.000 N 
ATOM      9  N   UNL     1      45.064   1.879   8.927  0.00  0.00    +0.000 NA
ATOM     10  C   UNL     1      45.844   1.843   7.817  0.00  0.00    +0.000 A 
ATOM     11  H   UNL     1      43.770   2.083  10.766  0.00  0.00    +0.000 HD
BRANCH   4  13
ATOM     12  N   UNL     1      48.643   2.525   6.196  0.00  0.00    +0.000 N 
ATOM     13  C   UNL     1      47.311   2.811   6.074  0.00  0.00    +0.000 C 
ATOM     14  O   UNL     1      46.787   2.939   4.977  0.00  0.00    +0.000 OA
ATOM     15  H   UNL     1      49.159   2.381   5.336  0.00  0.00    +0.000 HD
ATOM     16  H   UNL     1      49.055   2.180   7.052  0.00  0.00    +0.000 HD
ENDBRANCH   4  13
ENDBRANCH   1   8
BRANCH   1  17
ATOM     17  C   UNL     1      44.286   5.367  11.553  0.00  0.00    +0.000 A 
ATOM     18  C   UNL     1      43.161   6.135  11.209  0.00  0.00    +0.000 A 
ATOM     19  C   UNL     1      43.239   7.517  11.073  0.00  0.00    +0.000 A 
ATOM     20  C   UNL     1      44.458   8.160  11.273  0.00  0.00    +0.000 A 
ATOM     21  C   UNL     1      45.615   7.443  11.624  0.00  0.00    +0.000 A 
ATOM     22  C   UNL     1      45.511   6.044  11.721  0.00  0.00    +0.000 A 
BRANCH  21  23
ATOM     23  C   UNL     1      46.874   8.154  11.952  0.00  0.00    +0.000 A 
ATOM     24  C   UNL     1      48.090   7.453  11.958  0.00  0.00    +0.000 A 
ATOM     25  C   UNL     1      49.269   8.126  12.250  0.00  0.00    +0.000 A 
ATOM     26  N   UNL     1      49.326   9.445  12.518  0.00  0.00    +0.000 NA
ATOM     27  C   UNL     1      48.155  10.113  12.500  0.00  0.00    +0.000 A 
ATOM     28  C   UNL     1      46.929   9.521  12.228  0.00  0.00    +0.000 A 
ENDBRANCH  21  23
ENDBRANCH   1  17
TORSDOF 4
ENDMDL
MODEL 7
REMARK VINA RESULT:    -5.997      2.843      6.670
REMARK INTER + INTRA:          -8.477
REMARK INTER:                  -7.802
REMARK INTRA:                  -0.675
REMARK UNBOUND:                -1.078
REMARK  Name = 
REMARK  4 active torsions:
REMARK  status: ('A' for Active; 'I' for Inactive)
REMARK    1  A    between atoms: C_2  and  C_4
REMARK    2  A    between atoms: N_8  and  C_9
REMARK    3  A    between atoms: C_9  and  C_10
REMARK    4  A    between atoms: C_14  and  C_15
REMARK                            x       y       z     vdW  Elec       q    Type
REMARK                         _______ _______ _______ _____ _____    ______ ____
ROOT
ATOM      1  C   UNL     1      44.293   5.931  11.502  0.00  0.00    +0.000 C 
ATOM      2  C   UNL     1      42.949   6.632  11.343  0.00  0.00    +0.000 C 
ATOM      3  C   UNL     1      43.418   6.235  12.703  0.00  0.00    +0.000 C 
ENDROOT
BRANCH   1   8
ATOM      4  C   UNL     1      48.971   7.385  13.271  0.00  0.00    +0.000 A 
ATOM      5  C   UNL     1      47.794   7.178  13.985  0.00  0.00    +0.000 A 
ATOM      6  C   UNL     1      46.610   6.916  13.292  0.00  0.00    +0.000 A 
ATOM      7  C   UNL     1      46.624   6.873  11.905  0.00  0.00    +0.000 A 
ATOM      8  N   UNL     1      45.462   6.755  11.136  0.00  0.00    +0.000 N 
ATOM      9  N   UNL     1      47.763   7.062  11.201  0.00  0.00    +0.000 NA
ATOM     10  C   UNL     1      48.903   7.320  11.890  0.00  0.00    +0.000 A 
ATOM     11  H   UNL     1      45.791   6.660  10.177  0.00  0.00    +0.000 HD
BRANCH   4  13
ATOM     12  N   UNL     1      51.315   8.000  13.112  0.00  0.00    +0.000 N 
ATOM     13  C   UNL     1      50.250   7.728  13.926  0.00  0.00    +0.000 C 
ATOM     14  O   UNL     1      50.352   7.784  15.144  0.00  0.00    +0.000 OA
ATOM     15  H   UNL     1      52.172   8.292  13.564  0.00  0.00    +0.000 HD
ATOM     16  H   UNL     1      51.216   8.199  12.125  0.00  0.00    +0.000 HD
ENDBRANCH   4  13
ENDBRANCH   1   8
BRANCH   1  17
ATOM     17  C   UNL     1      44.405   4.496  10.994  0.00  0.00    +0.000 A 
ATOM     18  C   UNL     1      43.577   3.493  11.528  0.00  0.00    +0.000 A 
ATOM     19  C   UNL     1      43.552   2.210  10.990  0.00  0.00    +0.000 A 
ATOM     20  C   UNL     1      44.367   1.904   9.903  0.00  0.00    +0.000 A 
ATOM     21  C   UNL     1      45.211   2.868   9.326  0.00  0.00    +0.000 A 
ATOM     22  C   UNL     1      45.239   4.145   9.914  0.00  0.00    +0.000 A 
BRANCH  21  23
ATOM     23  C   UNL     1      45.980   2.560   8.097  0.00  0.00    +0.000 A 
ATOM     24  C   UNL     1      46.124   3.538   7.100  0.00  0.00    +0.000 A 
ATOM     25  C   UNL     1      46.858   3.251   5.958  0.00  0.00    +0.000 A 
ATOM     26  N   UNL     1      47.474   2.072   5.745  0.00  0.00    +0.000 NA
ATOM     27  C   UNL     1      47.340   1.142   6.712  0.00  0.00    +0.000 A 
ATOM     28  C   UNL     1      46.617   1.337   7.881  0.00  0.00    +0.000 A 
ENDBRANCH  21  23
ENDBRANCH   1  17
TORSDOF 4
ENDMDL
