MODEL 1
REMARK VINA RESULT:    -8.335      0.000      0.000
REMARK INTER + INTRA:         -12.074
REMARK INTER:                 -11.258
REMARK INTRA:                  -0.816
REMARK UNBOUND:                -0.816
REMARK  Name = 
REMARK  8 active torsions:
REMARK  status: ('A' for Active; 'I' for Inactive)
REMARK    1  A    between atoms: C_1  and  C_2
REMARK    2  A    between atoms: C_5  and  C_6
REMARK    3  A    between atoms: N_8  and  C_9
REMARK    4  A    between atoms: C_9  and  C_10
REMARK    5  A    between atoms: C_9  and  C_11
REMARK    6  A    between atoms: C_14  and  C_15
REMARK    7  A    between atoms: C_15  and  N_16
REMARK    8  A    between atoms: C_17  and  C_19
REMARK                            x       y       z     vdW  Elec       q    Type
REMARK                         _______ _______ _______ _____ _____    ______ ____
ROOT
ATOM      1  C   UNL     1      44.888   5.559  11.383  0.00  0.00    +0.000 A 
ATOM      2  C   UNL     1      44.688   6.947  11.431  0.00  0.00    +0.000 A 
ATOM      3  C   UNL     1      45.546   7.775  12.174  0.00  0.00    +0.000 A 
ATOM      4  C   UNL     1      46.633   7.239  12.877  0.00  0.00    +0.000 A 
ATOM      5  C   UNL     1      46.819   5.851  12.851  0.00  0.00    +0.000 A 
ATOM      6  C   UNL     1      45.964   5.025  12.112  0.00  0.00    +0.000 A 
ENDROOT
BRANCH   1   7
ATOM      7  C   UNL     1      43.948   4.655  10.585  0.00  0.00    +0.000 C 
ATOM      8  C   UNL     1      43.001   3.908  11.533  0.00  0.00    +0.000 C 
BRANCH   7  11
ATOM      9  C   UNL     1      45.553   4.154   8.738  0.00  0.00    +0.000 C 
ATOM     10  O   UNL     1      45.723   5.334   8.456  0.00  0.00    +0.000 OA
ATOM     11  N   UNL     1      44.712   3.738   9.747  0.00  0.00    +0.000 N 
ATOM     12  H   UNL     1      44.740   2.770  10.023  0.00  0.00    +0.000 HD
BRANCH   9  17
ATOM     13  C   UNL     1      46.677  -0.537   7.588  0.00  0.00    +0.000 C 
ATOM     14  C   UNL     1      46.740   0.942   7.494  0.00  0.00    +0.000 A 
ATOM     15  C   UNL     1      47.472   1.760   6.660  0.00  0.00    +0.000 A 
ATOM     16  C   UNL     1      47.155   3.101   6.989  0.00  0.00    +0.000 A 
ATOM     17  C   UNL     1      46.225   3.089   8.016  0.00  0.00    +0.000 A 
ATOM     18  N   UNL     1      45.997   1.758   8.311  0.00  0.00    +0.000 N 
ATOM     19  H   UNL     1      45.363   1.451   9.041  0.00  0.00    +0.000 HD
ENDBRANCH   9  17
ENDBRANCH   7  11
ENDBRANCH   1   7
BRANCH   4  20
ATOM     20  C   UNL     1      47.577   8.122  13.661  0.00  0.00    +0.000 C 
BRANCH  20  21
ATOM     21  N   UNL     1      47.941   7.530  14.925  0.00  0.00    +0.000 N 
ATOM     22  C   UNL     1      49.212   7.064  15.159  0.00  0.00    +0.000 C 
ATOM     23  O   UNL     1      50.105   7.157  14.324  0.00  0.00    +0.000 OA
ATOM     24  H   UNL     1      47.181   7.216  15.519  0.00  0.00    +0.000 HD
BRANCH  22  25
ATOM     25  C   UNL     1      49.467   6.503  16.494  0.00  0.00    +0.000 A 
ATOM     26  C   UNL     1      50.313   7.165  17.374  0.00  0.00    +0.000 A 
ATOM     27  S   UNL     1      50.454   6.401  18.894  0.00  0.00    +0.000 S 
ATOM     28  C   UNL     1      49.431   5.130  18.412  0.00  0.00    +0.000 A 
ATOM     29  N   UNL     1      49.150   4.099  19.253  0.00  0.00    +0.000 NA
ATOM     30  C   UNL     1      48.385   3.190  18.746  0.00  0.00    +0.000 A 
ATOM     31  N   UNL     1      47.868   3.224  17.476  0.00  0.00    +0.000 N 
ATOM     32  C   UNL     1      48.099   4.261  16.604  0.00  0.00    +0.000 A 
ATOM     33  O   UNL     1      47.582   4.284  15.491  0.00  0.00    +0.000 OA
ATOM     34  C   UNL     1      48.968   5.300  17.118  0.00  0.00    +0.000 A 
ATOM     35  H   UNL     1      47.265   2.487  17.141  0.00  0.00    +0.000 HD
ENDBRANCH  22  25
ENDBRANCH  20  21
ENDBRANCH   4  20
TORSDOF 6
ENDMDL
MODEL 2
REMARK VINA RESULT:    -8.165      1.148      1.698
REMARK INTER + INTRA:         -11.845
REMARK INTER:                 -10.840
REMARK INTRA:                  -1.006
REMARK UNBOUND:                -0.816
REMARK  Name = 
REMARK  8 active torsions:
REMARK  status: ('A' for Active; 'I' for Inactive)
REMARK    1  A    between atoms: C_1  and  C_2
REMARK    2  A    between atoms: C_5  and  C_6
REMARK    3  A    between atoms: N_8  and  C_9
REMARK    4  A    between atoms: C_9  and  C_10
REMARK    5  A    between atoms: C_9  and  C_11
REMARK    6  A    between atoms: C_14  and  C_15
REMARK    7  A    between atoms: C_15  and  N_16
REMARK    8  A    between atoms: C_17  and  C_19
REMARK                            x       y       z     vdW  Elec       q    Type
REMARK                         _______ _______ _______ _____ _____    ______ ____
ROOT
ATOM      1  C   UNL     1      44.887   5.130  11.912  0.00  0.00    +0.000 A 
ATOM      2  C   UNL     1      46.033   4.893  12.685  0.00  0.00    +0.000 A 
ATOM      3  C   UNL     1      46.797   5.958  13.190  0.00  0.00    +0.000 A 
ATOM      4  C   UNL     1      46.429   7.288  12.945  0.00  0.00    +0.000 A 
ATOM      5  C   UNL     1      45.299   7.526  12.151  0.00  0.00    +0.000 A 
ATOM      6  C   UNL     1      44.537   6.465  11.647  0.00  0.00    +0.000 A 
ENDROOT
BRANCH   1   7
ATOM      7  C   UNL     1      44.061   3.972  11.353  0.00  0.00    +0.000 C 
ATOM      8  C   UNL     1      43.552   3.085  12.497  0.00  0.00    +0.000 C 
BRANCH   7  11
ATOM      9  C   UNL     1      44.865   3.499   9.036  0.00  0.00    +0.000 C 
ATOM     10  O   UNL     1      44.225   4.418   8.539  0.00  0.00    +0.000 OA
ATOM     11  N   UNL     1      44.841   3.211  10.383  0.00  0.00    +0.000 N 
ATOM     12  H   UNL     1      45.507   2.546  10.740  0.00  0.00    +0.000 HD
BRANCH   9  17
ATOM     13  C   UNL     1      47.860   2.297   5.271  0.00  0.00    +0.000 C 
ATOM     14  C   UNL     1      47.069   2.078   6.506  0.00  0.00    +0.000 A 
ATOM     15  C   UNL     1      46.901   0.950   7.279  0.00  0.00    +0.000 A 
ATOM     16  C   UNL     1      46.043   1.289   8.354  0.00  0.00    +0.000 A 
ATOM     17  C   UNL     1      45.701   2.626   8.232  0.00  0.00    +0.000 A 
ATOM     18  N   UNL     1      46.334   3.081   7.089  0.00  0.00    +0.000 N 
ATOM     19  H   UNL     1      46.248   4.032   6.747  0.00  0.00    +0.000 HD
ENDBRANCH   9  17
ENDBRANCH   7  11
ENDBRANCH   1   7
BRANCH   4  20
ATOM     20  C   UNL     1      47.229   8.443  13.501  0.00  0.00    +0.000 C 
BRANCH  20  21
ATOM     21  N   UNL     1      47.571   8.242  14.888  0.00  0.00    +0.000 N 
ATOM     22  C   UNL     1      48.806   7.771  15.262  0.00  0.00    +0.000 C 
ATOM     23  O   UNL     1      49.688   7.532  14.443  0.00  0.00    +0.000 OA
ATOM     24  H   UNL     1      46.800   8.186  15.545  0.00  0.00    +0.000 HD
BRANCH  22  25
ATOM     25  C   UNL     1      49.042   7.629  16.706  0.00  0.00    +0.000 A 
ATOM     26  C   UNL     1      49.328   8.749  17.474  0.00  0.00    +0.000 A 
ATOM     27  S   UNL     1      49.522   8.408  19.136  0.00  0.00    +0.000 S 
ATOM     28  C   UNL     1      49.284   6.744  18.879  0.00  0.00    +0.000 A 
ATOM     29  N   UNL     1      49.351   5.858  19.909  0.00  0.00    +0.000 NA
ATOM     30  C   UNL     1      49.180   4.625  19.565  0.00  0.00    +0.000 A 
ATOM     31  N   UNL     1      48.940   4.198  18.285  0.00  0.00    +0.000 N 
ATOM     32  C   UNL     1      48.833   5.059  17.218  0.00  0.00    +0.000 A 
ATOM     33  O   UNL     1      48.569   4.649  16.092  0.00  0.00    +0.000 OA
ATOM     34  C   UNL     1      49.035   6.456  17.548  0.00  0.00    +0.000 A 
ATOM     35  H   UNL     1      48.803   3.219  18.080  0.00  0.00    +0.000 HD
ENDBRANCH  22  25
ENDBRANCH  20  21
ENDBRANCH   4  20
TORSDOF 6
ENDMDL
MODEL 3
REMARK VINA RESULT:    -7.805      1.888      2.527
REMARK INTER + INTRA:         -11.359
REMARK INTER:                 -10.583
REMARK INTRA:                  -0.776
REMARK UNBOUND:                -0.816
REMARK  Name = 
REMARK  8 active torsions:
REMARK  status: ('A' for Active; 'I' for Inactive)
REMARK    1  A    between atoms: C_1  and  C_2
REMARK    2  A    between atoms: C_5  and  C_6
REMARK    3  A    between atoms: N_8  and  C_9
REMARK    4  A    between atoms: C_9  and  C_10
REMARK    5  A    between atoms: C_9  and  C_11
REMARK    6  A    between atoms: C_14  and  C_15
REMARK    7  A    between atoms: C_15  and  N_16
REMARK    8  A    between atoms: C_17  and  C_19
REMARK                            x       y       z     vdW  Elec       q    Type
REMARK                         _______ _______ _______ _____ _____    ______ ____
ROOT
ATOM      1  C   UNL     1      45.033   5.795  11.527  0.00  0.00    +0.000 A 
ATOM      2  C   UNL     1      45.883   5.057  12.364  0.00  0.00    +0.000 A 
ATOM      3  C   UNL     1      46.844   5.697  13.164  0.00  0.00    +0.000 A 
ATOM      4  C   UNL     1      46.971   7.093  13.157  0.00  0.00    +0.000 A 
ATOM      5  C   UNL     1      46.141   7.829  12.302  0.00  0.00    +0.000 A 
ATOM      6  C   UNL     1      45.184   7.191  11.504  0.00  0.00    +0.000 A 
ENDROOT
BRANCH   1   7
ATOM      7  C   UNL     1      43.995   5.098  10.647  0.00  0.00    +0.000 C 
ATOM      8  C   UNL     1      42.906   4.460  11.520  0.00  0.00    +0.000 C 
BRANCH   7  11
ATOM      9  C   UNL     1      45.599   4.444   8.848  0.00  0.00    +0.000 C 
ATOM     10  O   UNL     1      45.989   5.591   8.666  0.00  0.00    +0.000 OA
ATOM     11  N   UNL     1      44.638   4.117   9.780  0.00  0.00    +0.000 N 
ATOM     12  H   UNL     1      44.480   3.143   9.981  0.00  0.00    +0.000 HD
BRANCH   9  17
ATOM     13  C   UNL     1      47.909   2.235   5.056  0.00  0.00    +0.000 C 
ATOM     14  C   UNL     1      47.173   2.319   6.341  0.00  0.00    +0.000 A 
ATOM     15  C   UNL     1      46.765   1.331   7.211  0.00  0.00    +0.000 A 
ATOM     16  C   UNL     1      46.102   1.959   8.293  0.00  0.00    +0.000 A 
ATOM     17  C   UNL     1      46.119   3.327   8.079  0.00  0.00    +0.000 A 
ATOM     18  N   UNL     1      46.770   3.519   6.875  0.00  0.00    +0.000 N 
ATOM     19  H   UNL     1      46.916   4.433   6.460  0.00  0.00    +0.000 HD
ENDBRANCH   9  17
ENDBRANCH   7  11
ENDBRANCH   1   7
BRANCH   4  20
ATOM     20  C   UNL     1      47.986   7.796  14.030  0.00  0.00    +0.000 C 
BRANCH  20  21
ATOM     21  N   UNL     1      47.962   7.303  15.385  0.00  0.00    +0.000 N 
ATOM     22  C   UNL     1      49.065   6.711  15.952  0.00  0.00    +0.000 C 
ATOM     23  O   UNL     1      50.128   6.602  15.351  0.00  0.00    +0.000 OA
ATOM     24  H   UNL     1      47.049   7.150  15.801  0.00  0.00    +0.000 HD
BRANCH  22  25
ATOM     25  C   UNL     1      48.924   6.269  17.347  0.00  0.00    +0.000 A 
ATOM     26  C   UNL     1      49.317   4.987  17.711  0.00  0.00    +0.000 A 
ATOM     27  S   UNL     1      49.133   4.661  19.377  0.00  0.00    +0.000 S 
ATOM     28  C   UNL     1      48.471   6.202  19.661  0.00  0.00    +0.000 A 
ATOM     29  N   UNL     1      48.061   6.570  20.904  0.00  0.00    +0.000 NA
ATOM     30  C   UNL     1      47.552   7.756  20.969  0.00  0.00    +0.000 A 
ATOM     31  N   UNL     1      47.422   8.609  19.904  0.00  0.00    +0.000 N 
ATOM     32  C   UNL     1      47.851   8.292  18.637  0.00  0.00    +0.000 A 
ATOM     33  O   UNL     1      47.765   9.097  17.715  0.00  0.00    +0.000 OA
ATOM     34  C   UNL     1      48.416   6.963  18.506  0.00  0.00    +0.000 A 
ATOM     35  H   UNL     1      47.026   9.530  20.021  0.00  0.00    +0.000 HD
ENDBRANCH  22  25
ENDBRANCH  20  21
ENDBRANCH   4  20
TORSDOF 6
ENDMDL
MODEL 4
REMARK VINA RESULT:    -7.462      3.897      8.620
REMARK INTER + INTRA:         -10.895
REMARK INTER:                  -9.721
REMARK INTRA:                  -1.174
REMARK UNBOUND:                -0.816
REMARK  Name = 
REMARK  8 active torsions:
REMARK  status: ('A' for Active; 'I' for Inactive)
REMARK    1  A    between atoms: C_1  and  C_2
REMARK    2  A    between atoms: C_5  and  C_6
REMARK    3  A    between atoms: N_8  and  C_9
REMARK    4  A    between atoms: C_9  and  C_10
REMARK    5  A    between atoms: C_9  and  C_11
REMARK    6  A    between atoms: C_14  and  C_15
REMARK    7  A    between atoms: C_15  and  N_16
REMARK    8  A    between atoms: C_17  and  C_19
REMARK                            x       y       z     vdW  Elec       q    Type
REMARK                         _______ _______ _______ _____ _____    ______ ____
ROOT
ATOM      1  C   UNL     1      49.738   4.812  17.633  0.00  0.00    +0.000 A 
ATOM      2  C   UNL     1      50.545   5.837  17.115  0.00  0.00    +0.000 A 
ATOM      3  C   UNL     1      50.100   6.637  16.049  0.00  0.00    +0.000 A 
ATOM      4  C   UNL     1      48.833   6.442  15.483  0.00  0.00    +0.000 A 
ATOM      5  C   UNL     1      48.037   5.403  15.982  0.00  0.00    +0.000 A 
ATOM      6  C   UNL     1      48.480   4.605  17.044  0.00  0.00    +0.000 A 
ENDROOT
BRANCH   1   7
ATOM      7  C   UNL     1      50.226   3.933  18.785  0.00  0.00    +0.000 C 
ATOM      8  C   UNL     1      50.360   4.768  20.066  0.00  0.00    +0.000 C 
BRANCH   7  11
ATOM      9  C   UNL     1      51.546   2.126  17.677  0.00  0.00    +0.000 C 
ATOM     10  O   UNL     1      50.553   1.552  17.247  0.00  0.00    +0.000 OA
ATOM     11  N   UNL     1      51.479   3.278  18.431  0.00  0.00    +0.000 N 
ATOM     12  H   UNL     1      52.334   3.776  18.617  0.00  0.00    +0.000 HD
BRANCH   9  17
ATOM     13  C   UNL     1      54.976  -1.248  16.476  0.00  0.00    +0.000 C 
ATOM     14  C   UNL     1      54.454   0.079  16.885  0.00  0.00    +0.000 A 
ATOM     15  C   UNL     1      55.110   1.261  17.148  0.00  0.00    +0.000 A 
ATOM     16  C   UNL     1      54.133   2.226  17.495  0.00  0.00    +0.000 A 
ATOM     17  C   UNL     1      52.887   1.625  17.431  0.00  0.00    +0.000 A 
ATOM     18  N   UNL     1      53.112   0.311  17.066  0.00  0.00    +0.000 N 
ATOM     19  H   UNL     1      52.370  -0.371  16.957  0.00  0.00    +0.000 HD
ENDBRANCH   9  17
ENDBRANCH   7  11
ENDBRANCH   1   7
BRANCH   4  20
ATOM     20  C   UNL     1      48.334   7.310  14.351  0.00  0.00    +0.000 C 
BRANCH  20  21
ATOM     21  N   UNL     1      47.078   6.836  13.822  0.00  0.00    +0.000 N 
ATOM     22  C   UNL     1      46.858   6.747  12.469  0.00  0.00    +0.000 C 
ATOM     23  O   UNL     1      47.724   7.031  11.648  0.00  0.00    +0.000 OA
ATOM     24  H   UNL     1      46.285   6.842  14.454  0.00  0.00    +0.000 HD
BRANCH  22  25
ATOM     25  C   UNL     1      45.547   6.228  12.053  0.00  0.00    +0.000 A 
ATOM     26  C   UNL     1      44.604   7.088  11.506  0.00  0.00    +0.000 A 
ATOM     27  S   UNL     1      43.160   6.309  11.032  0.00  0.00    +0.000 S 
ATOM     28  C   UNL     1      43.724   4.805  11.591  0.00  0.00    +0.000 A 
ATOM     29  N   UNL     1      42.947   3.691  11.511  0.00  0.00    +0.000 NA
ATOM     30  C   UNL     1      43.490   2.625  11.999  0.00  0.00    +0.000 A 
ATOM     31  N   UNL     1      44.742   2.572  12.554  0.00  0.00    +0.000 N 
ATOM     32  C   UNL     1      45.574   3.664  12.628  0.00  0.00    +0.000 A 
ATOM     33  O   UNL     1      46.709   3.571  13.086  0.00  0.00    +0.000 OA
ATOM     34  C   UNL     1      45.005   4.891  12.108  0.00  0.00    +0.000 A 
ATOM     35  H   UNL     1      45.116   1.704  12.909  0.00  0.00    +0.000 HD
ENDBRANCH  22  25
ENDBRANCH  20  21
ENDBRANCH   4  20
TORSDOF 6
ENDMDL
MODEL 5
REMARK VINA RESULT:    -7.386      1.741      2.627
REMARK INTER + INTRA:         -10.792
REMARK INTER:                 -10.106
REMARK INTRA:                  -0.686
REMARK UNBOUND:                -0.816
REMARK  Name = 
REMARK  8 active torsions:
REMARK  status: ('A' for Active; 'I' for Inactive)
REMARK    1  A    between atoms: C_1  and  C_2
REMARK    2  A    between atoms: C_5  and  C_6
REMARK    3  A    between atoms: N_8  and  C_9
REMARK    4  A    between atoms: C_9  and  C_10
REMARK    5  A    between atoms: C_9  and  C_11
REMARK    6  A    between atoms: C_14  and  C_15
REMARK    7  A    between atoms: C_15  and  N_16
REMARK    8  A    between atoms: C_17  and  C_19
REMARK                            x       y       z     vdW  Elec       q    Type
REMARK                         _______ _______ _______ _____ _____    ______ ____
ROOT
ATOM      1  C   UNL     1      44.825   5.669  11.469  0.00  0.00    +0.000 A 
ATOM      2  C   UNL     1      45.843   5.091  12.243  0.00  0.00    +0.000 A 
ATOM      3  C   UNL     1      46.745   5.891  12.964  0.00  0.00    +0.000 A 
ATOM      4  C   UNL     1      46.644   7.289  12.941  0.00  0.00    +0.000 A 
ATOM      5  C   UNL     1      45.645   7.868  12.148  0.00  0.00    +0.000 A 
ATOM      6  C   UNL     1      44.746   7.071  11.429  0.00  0.00    +0.000 A 
ENDROOT
BRANCH   1   7
ATOM      7  C   UNL     1      43.851   4.799  10.675  0.00  0.00    +0.000 C 
ATOM      8  C   UNL     1      42.924   4.036  11.630  0.00  0.00    +0.000 C 
BRANCH   7  11
ATOM      9  C   UNL     1      45.462   4.331   8.824  0.00  0.00    +0.000 C 
ATOM     10  O   UNL     1      45.704   5.515   8.626  0.00  0.00    +0.000 OA
ATOM     11  N   UNL     1      44.578   3.897   9.789  0.00  0.00    +0.000 N 
ATOM     12  H   UNL     1      44.546   2.913   9.998  0.00  0.00    +0.000 HD
BRANCH   9  17
ATOM     13  C   UNL     1      46.686  -0.330   7.650  0.00  0.00    +0.000 C 
ATOM     14  C   UNL     1      46.649   1.147   7.509  0.00  0.00    +0.000 A 
ATOM     15  C   UNL     1      47.207   1.974   6.559  0.00  0.00    +0.000 A 
ATOM     16  C   UNL     1      46.861   3.306   6.893  0.00  0.00    +0.000 A 
ATOM     17  C   UNL     1      46.087   3.279   8.042  0.00  0.00    +0.000 A 
ATOM     18  N   UNL     1      45.981   1.949   8.403  0.00  0.00    +0.000 N 
ATOM     19  H   UNL     1      45.476   1.633   9.223  0.00  0.00    +0.000 HD
ENDBRANCH   9  17
ENDBRANCH   7  11
ENDBRANCH   1   7
BRANCH   4  20
ATOM     20  C   UNL     1      47.594   8.161  13.730  0.00  0.00    +0.000 C 
BRANCH  20  21
ATOM     21  N   UNL     1      48.494   7.378  14.541  0.00  0.00    +0.000 N 
ATOM     22  C   UNL     1      48.741   7.701  15.854  0.00  0.00    +0.000 C 
ATOM     23  O   UNL     1      48.186   8.644  16.409  0.00  0.00    +0.000 OA
ATOM     24  H   UNL     1      49.141   6.771  14.051  0.00  0.00    +0.000 HD
BRANCH  22  25
ATOM     25  C   UNL     1      49.660   6.815  16.583  0.00  0.00    +0.000 A 
ATOM     26  C   UNL     1      49.184   6.031  17.626  0.00  0.00    +0.000 A 
ATOM     27  S   UNL     1      50.375   5.026  18.325  0.00  0.00    +0.000 S 
ATOM     28  C   UNL     1      51.579   5.644  17.295  0.00  0.00    +0.000 A 
ATOM     29  N   UNL     1      52.868   5.219  17.390  0.00  0.00    +0.000 NA
ATOM     30  C   UNL     1      53.681   5.793  16.567  0.00  0.00    +0.000 A 
ATOM     31  N   UNL     1      53.320   6.748  15.652  0.00  0.00    +0.000 N 
ATOM     32  C   UNL     1      52.026   7.185  15.500  0.00  0.00    +0.000 A 
ATOM     33  O   UNL     1      51.728   8.007  14.638  0.00  0.00    +0.000 OA
ATOM     34  C   UNL     1      51.074   6.584  16.413  0.00  0.00    +0.000 A 
ATOM     35  H   UNL     1      54.001   7.152  15.027  0.00  0.00    +0.000 HD
ENDBRANCH  22  25
ENDBRANCH  20  21
ENDBRANCH   4  20
TORSDOF 6
ENDMDL
MODEL 6
REMARK VINA RESULT:    -7.007      2.997      3.607
REMARK INTER + INTRA:         -10.281
REMARK INTER:                  -9.474
REMARK INTRA:                  -0.808
REMARK UNBOUND:                -0.816
REMARK  Name = 
REMARK  8 active torsions:
REMARK  status: ('A' for Active; 'I' for Inactive)
REMARK    1  A    between atoms: C_1  and  C_2
REMARK    2  A    between atoms: C_5  and  C_6
REMARK    3  A    between atoms: N_8  and  C_9
REMARK    4  A    between atoms: C_9  and  C_10
REMARK    5  A    between atoms: C_9  and  C_11
REMARK    6  A    between atoms: C_14  and  C_15
REMARK    7  A    between atoms: C_15  and  N_16
REMARK    8  A    between atoms: C_17  and  C_19
REMARK                            x       y       z     vdW  Elec       q    Type
REMARK                         _______ _______ _______ _____ _____    ______ ____
ROOT
ATOM      1  C   UNL     1      45.447   5.082  12.092  0.00  0.00    +0.000 A 
ATOM      2  C   UNL     1      46.147   6.298  12.073  0.00  0.00    +0.000 A 
ATOM      3  C   UNL     1      47.091   6.603  13.067  0.00  0.00    +0.000 A 
ATOM      4  C   UNL     1      47.370   5.696  14.099  0.00  0.00    +0.000 A 
ATOM      5  C   UNL     1      46.653   4.493  14.134  0.00  0.00    +0.000 A 
ATOM      6  C   UNL     1      45.711   4.188  13.143  0.00  0.00    +0.000 A 
ENDROOT
BRANCH   1   7
ATOM      7  C   UNL     1      44.411   4.754  11.017  0.00  0.00    +0.000 C 
ATOM      8  C   UNL     1      43.147   4.171  11.662  0.00  0.00    +0.000 C 
BRANCH   7  11
ATOM      9  C   UNL     1      45.728   4.280   8.948  0.00  0.00    +0.000 C 
ATOM     10  O   UNL     1      45.976   5.461   8.738  0.00  0.00    +0.000 OA
ATOM     11  N   UNL     1      44.978   3.851  10.022  0.00  0.00    +0.000 N 
ATOM     12  H   UNL     1      44.946   2.864  10.217  0.00  0.00    +0.000 HD
BRANCH   9  17
ATOM     13  C   UNL     1      47.947   2.383   4.940  0.00  0.00    +0.000 C 
ATOM     14  C   UNL     1      47.216   2.363   6.230  0.00  0.00    +0.000 A 
ATOM     15  C   UNL     1      46.772   1.308   6.997  0.00  0.00    +0.000 A 
ATOM     16  C   UNL     1      46.135   1.847   8.141  0.00  0.00    +0.000 A 
ATOM     17  C   UNL     1      46.204   3.229   8.067  0.00  0.00    +0.000 A 
ATOM     18  N   UNL     1      46.861   3.518   6.885  0.00  0.00    +0.000 N 
ATOM     19  H   UNL     1      47.041   4.463   6.566  0.00  0.00    +0.000 HD
ENDBRANCH   9  17
ENDBRANCH   7  11
ENDBRANCH   1   7
BRANCH   4  20
ATOM     20  C   UNL     1      48.400   6.003  15.161  0.00  0.00    +0.000 C 
BRANCH  20  21
ATOM     21  N   UNL     1      48.138   7.262  15.816  0.00  0.00    +0.000 N 
ATOM     22  C   UNL     1      48.782   7.612  16.978  0.00  0.00    +0.000 C 
ATOM     23  O   UNL     1      49.631   6.894  17.496  0.00  0.00    +0.000 OA
ATOM     24  H   UNL     1      47.282   7.741  15.560  0.00  0.00    +0.000 HD
BRANCH  22  25
ATOM     25  C   UNL     1      48.447   8.930  17.538  0.00  0.00    +0.000 A 
ATOM     26  C   UNL     1      48.709  10.081  16.807  0.00  0.00    +0.000 A 
ATOM     27  S   UNL     1      48.210  11.516  17.586  0.00  0.00    +0.000 S 
ATOM     28  C   UNL     1      47.676  10.654  18.952  0.00  0.00    +0.000 A 
ATOM     29  N   UNL     1      47.152  11.300  20.028  0.00  0.00    +0.000 NA
ATOM     30  C   UNL     1      46.816  10.524  21.004  0.00  0.00    +0.000 A 
ATOM     31  N   UNL     1      46.948   9.160  20.998  0.00  0.00    +0.000 N 
ATOM     32  C   UNL     1      47.442   8.462  19.922  0.00  0.00    +0.000 A 
ATOM     33  O   UNL     1      47.503   7.236  19.930  0.00  0.00    +0.000 OA
ATOM     34  C   UNL     1      47.852   9.288  18.804  0.00  0.00    +0.000 A 
ATOM     35  H   UNL     1      46.656   8.606  21.790  0.00  0.00    +0.000 HD
ENDBRANCH  22  25
ENDBRANCH  20  21
ENDBRANCH   4  20
TORSDOF 6
ENDMDL
MODEL 7
REMARK VINA RESULT:    -7.005      1.936      2.160
REMARK INTER + INTRA:         -10.278
REMARK INTER:                  -9.577
REMARK INTRA:                  -0.701
REMARK UNBOUND:                -0.816
REMARK  Name = 
REMARK  8 active torsions:
REMARK  status: ('A' for Active; 'I' for Inactive)
REMARK    1  A    between atoms: C_1  and  C_2
REMARK    2  A    between atoms: C_5  and  C_6
REMARK    3  A    between atoms: N_8  and  C_9
REMARK    4  A    between atoms: C_9  and  C_10
REMARK    5  A    between atoms: C_9  and  C_11
REMARK    6  A    between atoms: C_14  and  C_15
REMARK    7  A    between atoms: C_15  and  N_16
REMARK    8  A    between atoms: C_17  and  C_19
REMARK                            x       y       z     vdW  Elec       q    Type
REMARK                         _______ _______ _______ _____ _____    ______ ____
ROOT
ATOM      1  C   UNL     1      45.772   6.449  12.449  0.00  0.00    +0.000 A 
ATOM      2  C   UNL     1      45.804   7.851  12.492  0.00  0.00    +0.000 A 
ATOM      3  C   UNL     1      46.778   8.528  13.243  0.00  0.00    +0.000 A 
ATOM      4  C   UNL     1      47.753   7.822  13.961  0.00  0.00    +0.000 A 
ATOM      5  C   UNL     1      47.707   6.422  13.940  0.00  0.00    +0.000 A 
ATOM      6  C   UNL     1      46.735   5.747  13.191  0.00  0.00    +0.000 A 
ENDROOT
BRANCH   1   7
ATOM      7  C   UNL     1      44.704   5.711  11.640  0.00  0.00    +0.000 C 
ATOM      8  C   UNL     1      43.827   4.864  12.572  0.00  0.00    +0.000 C 
BRANCH   7  11
ATOM      9  C   UNL     1      44.614   4.067   9.763  0.00  0.00    +0.000 C 
ATOM     10  O   UNL     1      43.399   3.926   9.837  0.00  0.00    +0.000 OA
ATOM     11  N   UNL     1      45.324   4.904  10.595  0.00  0.00    +0.000 N 
ATOM     12  H   UNL     1      46.290   5.087  10.377  0.00  0.00    +0.000 HD
BRANCH   9  17
ATOM     13  C   UNL     1      46.744   0.098   7.688  0.00  0.00    +0.000 C 
ATOM     14  C   UNL     1      46.386   1.530   7.840  0.00  0.00    +0.000 A 
ATOM     15  C   UNL     1      46.708   2.624   7.068  0.00  0.00    +0.000 A 
ATOM     16  C   UNL     1      46.104   3.760   7.660  0.00  0.00    +0.000 A 
ATOM     17  C   UNL     1      45.410   3.346   8.785  0.00  0.00    +0.000 A 
ATOM     18  N   UNL     1      45.607   1.981   8.878  0.00  0.00    +0.000 N 
ATOM     19  H   UNL     1      45.221   1.412   9.623  0.00  0.00    +0.000 HD
ENDBRANCH   9  17
ENDBRANCH   7  11
ENDBRANCH   1   7
BRANCH   4  20
ATOM     20  C   UNL     1      48.821   8.539  14.755  0.00  0.00    +0.000 C 
BRANCH  20  21
ATOM     21  N   UNL     1      49.830   7.630  15.243  0.00  0.00    +0.000 N 
ATOM     22  C   UNL     1      50.480   7.852  16.433  0.00  0.00    +0.000 C 
ATOM     23  O   UNL     1      50.214   8.809  17.152  0.00  0.00    +0.000 OA
ATOM     24  H   UNL     1      50.239   6.994  14.567  0.00  0.00    +0.000 HD
BRANCH  22  25
ATOM     25  C   UNL     1      51.471   6.844  16.834  0.00  0.00    +0.000 A 
ATOM     26  C   UNL     1      52.804   7.205  16.987  0.00  0.00    +0.000 A 
ATOM     27  S   UNL     1      53.805   5.923  17.506  0.00  0.00    +0.000 S 
ATOM     28  C   UNL     1      52.503   4.828  17.493  0.00  0.00    +0.000 A 
ATOM     29  N   UNL     1      52.685   3.519  17.816  0.00  0.00    +0.000 NA
ATOM     30  C   UNL     1      51.617   2.796  17.735  0.00  0.00    +0.000 A 
ATOM     31  N   UNL     1      50.383   3.266  17.368  0.00  0.00    +0.000 N 
ATOM     32  C   UNL     1      50.146   4.586  17.064  0.00  0.00    +0.000 A 
ATOM     33  O   UNL     1      49.019   4.983  16.787  0.00  0.00    +0.000 OA
ATOM     34  C   UNL     1      51.317   5.438  17.123  0.00  0.00    +0.000 A 
ATOM     35  H   UNL     1      49.582   2.652  17.335  0.00  0.00    +0.000 HD
ENDBRANCH  22  25
ENDBRANCH  20  21
ENDBRANCH   4  20
TORSDOF 6
ENDMDL
MODEL 8
REMARK VINA RESULT:    -6.905      3.341      4.982
REMARK INTER + INTRA:         -10.143
REMARK INTER:                  -9.223
REMARK INTRA:                  -0.920
REMARK UNBOUND:                -0.816
REMARK  Name = 
REMARK  8 active torsions:
REMARK  status: ('A' for Active; 'I' for Inactive)
REMARK    1  A    between atoms: C_1  and  C_2
REMARK    2  A    between atoms: C_5  and  C_6
REMARK    3  A    between atoms: N_8  and  C_9
REMARK    4  A    between atoms: C_9  and  C_10
REMARK    5  A    between atoms: C_9  and  C_11
REMARK    6  A    between atoms: C_14  and  C_15
REMARK    7  A    between atoms: C_15  and  N_16
REMARK    8  A    between atoms: C_17  and  C_19
REMARK                            x       y       z     vdW  Elec       q    Type
REMARK                         _______ _______ _______ _____ _____    ______ ____
ROOT
ATOM      1  C   UNL     1      45.649   4.905  12.514  0.00  0.00    +0.000 A 
ATOM      2  C   UNL     1      46.064   6.215  12.228  0.00  0.00    +0.000 A 
ATOM      3  C   UNL     1      47.015   6.863  13.034  0.00  0.00    +0.000 A 
ATOM      4  C   UNL     1      47.585   6.215  14.137  0.00  0.00    +0.000 A 
ATOM      5  C   UNL     1      47.153   4.917  14.439  0.00  0.00    +0.000 A 
ATOM      6  C   UNL     1      46.205   4.270  13.637  0.00  0.00    +0.000 A 
ENDROOT
BRANCH   1   7
ATOM      7  C   UNL     1      44.606   4.203  11.645  0.00  0.00    +0.000 C 
ATOM      8  C   UNL     1      43.697   3.325  12.515  0.00  0.00    +0.000 C 
BRANCH   7  11
ATOM      9  C   UNL     1      44.966   3.589   9.251  0.00  0.00    +0.000 C 
ATOM     10  O   UNL     1      44.132   4.385   8.837  0.00  0.00    +0.000 OA
ATOM     11  N   UNL     1      45.255   3.435  10.590  0.00  0.00    +0.000 N 
ATOM     12  H   UNL     1      46.055   2.879  10.844  0.00  0.00    +0.000 HD
BRANCH   9  17
ATOM     13  C   UNL     1      47.701   2.487   5.263  0.00  0.00    +0.000 C 
ATOM     14  C   UNL     1      46.966   2.229   6.526  0.00  0.00    +0.000 A 
ATOM     15  C   UNL     1      46.788   1.065   7.241  0.00  0.00    +0.000 A 
ATOM     16  C   UNL     1      46.005   1.376   8.379  0.00  0.00    +0.000 A 
ATOM     17  C   UNL     1      45.719   2.731   8.353  0.00  0.00    +0.000 A 
ATOM     18  N   UNL     1      46.310   3.226   7.206  0.00  0.00    +0.000 N 
ATOM     19  H   UNL     1      46.249   4.198   6.924  0.00  0.00    +0.000 HD
ENDBRANCH   9  17
ENDBRANCH   7  11
ENDBRANCH   1   7
BRANCH   4  20
ATOM     20  C   UNL     1      48.626   6.893  14.998  0.00  0.00    +0.000 C 
BRANCH  20  21
ATOM     21  N   UNL     1      49.838   7.164  14.264  0.00  0.00    +0.000 N 
ATOM     22  C   UNL     1      50.549   8.323  14.457  0.00  0.00    +0.000 C 
ATOM     23  O   UNL     1      50.212   9.166  15.283  0.00  0.00    +0.000 OA
ATOM     24  H   UNL     1      49.991   6.624  13.419  0.00  0.00    +0.000 HD
BRANCH  22  25
ATOM     25  C   UNL     1      51.779   8.475  13.665  0.00  0.00    +0.000 A 
ATOM     26  C   UNL     1      53.001   8.094  14.204  0.00  0.00    +0.000 A 
ATOM     27  S   UNL     1      54.314   8.292  13.130  0.00  0.00    +0.000 S 
ATOM     28  C   UNL     1      53.303   8.943  11.927  0.00  0.00    +0.000 A 
ATOM     29  N   UNL     1      53.810   9.358  10.735  0.00  0.00    +0.000 NA
ATOM     30  C   UNL     1      52.934   9.859   9.928  0.00  0.00    +0.000 A 
ATOM     31  N   UNL     1      51.596   9.975  10.203  0.00  0.00    +0.000 N 
ATOM     32  C   UNL     1      51.035   9.541  11.381  0.00  0.00    +0.000 A 
ATOM     33  O   UNL     1      49.826   9.615  11.576  0.00  0.00    +0.000 OA
ATOM     34  C   UNL     1      51.979   8.986  12.330  0.00  0.00    +0.000 A 
ATOM     35  H   UNL     1      50.958  10.365   9.525  0.00  0.00    +0.000 HD
ENDBRANCH  22  25
ENDBRANCH  20  21
ENDBRANCH   4  20
TORSDOF 6
ENDMDL
MODEL 9
REMARK VINA RESULT:    -6.854      4.756      7.786
REMARK INTER + INTRA:         -10.073
REMARK INTER:                  -9.030
REMARK INTRA:                  -1.044
REMARK UNBOUND:                -0.816
REMARK  Name = 
REMARK  8 active torsions:
REMARK  status: ('A' for Active; 'I' for Inactive)
REMARK    1  A    between atoms: C_1  and  C_2
REMARK    2  A    between atoms: C_5  and  C_6
REMARK    3  A    between atoms: N_8  and  C_9
REMARK    4  A    between atoms: C_9  and  C_10
REMARK    5  A    between atoms: C_9  and  C_11
REMARK    6  A    between atoms: C_14  and  C_15
REMARK    7  A    between atoms: C_15  and  N_16
REMARK    8  A    between atoms: C_17  and  C_19
REMARK                            x       y       z     vdW  Elec       q    Type
REMARK                         _______ _______ _______ _____ _____    ______ ____
ROOT
ATOM      1  C   UNL     1      50.654   8.666  11.783  0.00  0.00    +0.000 A 
ATOM      2  C   UNL     1      49.956   9.699  12.427  0.00  0.00    +0.000 A 
ATOM      3  C   UNL     1      48.598   9.557  12.755  0.00  0.00    +0.000 A 
ATOM      4  C   UNL     1      47.905   8.375  12.459  0.00  0.00    +0.000 A 
ATOM      5  C   UNL     1      48.594   7.353  11.793  0.00  0.00    +0.000 A 
ATOM      6  C   UNL     1      49.948   7.494  11.465  0.00  0.00    +0.000 A 
ENDROOT
BRANCH   1   7
ATOM      7  C   UNL     1      52.129   8.824  11.415  0.00  0.00    +0.000 C 
ATOM      8  C   UNL     1      52.497  10.312  11.331  0.00  0.00    +0.000 C 
BRANCH   7  11
ATOM      9  C   UNL     1      53.485   7.258  10.019  0.00  0.00    +0.000 C 
ATOM     10  O   UNL     1      54.277   7.012  10.920  0.00  0.00    +0.000 OA
ATOM     11  N   UNL     1      52.422   8.122  10.170  0.00  0.00    +0.000 N 
ATOM     12  H   UNL     1      51.728   8.156   9.442  0.00  0.00    +0.000 HD
BRANCH   9  17
ATOM     13  C   UNL     1      53.732   3.552   6.733  0.00  0.00    +0.000 C 
ATOM     14  C   UNL     1      53.726   4.959   7.202  0.00  0.00    +0.000 A 
ATOM     15  C   UNL     1      53.832   6.141   6.503  0.00  0.00    +0.000 A 
ATOM     16  C   UNL     1      53.765   7.202   7.439  0.00  0.00    +0.000 A 
ATOM     17  C   UNL     1      53.610   6.657   8.703  0.00  0.00    +0.000 A 
ATOM     18  N   UNL     1      53.599   5.285   8.531  0.00  0.00    +0.000 N 
ATOM     19  H   UNL     1      53.512   4.628   9.299  0.00  0.00    +0.000 HD
ENDBRANCH   9  17
ENDBRANCH   7  11
ENDBRANCH   1   7
BRANCH   4  20
ATOM     20  C   UNL     1      46.450   8.201  12.827  0.00  0.00    +0.000 C 
BRANCH  20  21
ATOM     21  N   UNL     1      45.978   6.868  12.541  0.00  0.00    +0.000 N 
ATOM     22  C   UNL     1      44.944   6.647  11.664  0.00  0.00    +0.000 C 
ATOM     23  O   UNL     1      44.396   7.562  11.057  0.00  0.00    +0.000 OA
ATOM     24  H   UNL     1      46.230   6.142  13.202  0.00  0.00    +0.000 HD
BRANCH  22  25
ATOM     25  C   UNL     1      44.568   5.244  11.438  0.00  0.00    +0.000 A 
ATOM     26  C   UNL     1      43.826   4.563  12.394  0.00  0.00    +0.000 A 
ATOM     27  S   UNL     1      43.435   2.962  11.945  0.00  0.00    +0.000 S 
ATOM     28  C   UNL     1      44.290   3.106  10.481  0.00  0.00    +0.000 A 
ATOM     29  N   UNL     1      44.379   2.060   9.617  0.00  0.00    +0.000 NA
ATOM     30  C   UNL     1      45.082   2.300   8.560  0.00  0.00    +0.000 A 
ATOM     31  N   UNL     1      45.697   3.494   8.286  0.00  0.00    +0.000 N 
ATOM     32  C   UNL     1      45.608   4.587   9.115  0.00  0.00    +0.000 A 
ATOM     33  O   UNL     1      46.130   5.657   8.817  0.00  0.00    +0.000 OA
ATOM     34  C   UNL     1      44.843   4.365  10.326  0.00  0.00    +0.000 A 
ATOM     35  H   UNL     1      46.225   3.624   7.436  0.00  0.00    +0.000 HD
ENDBRANCH  22  25
ENDBRANCH  20  21
ENDBRANCH   4  20
TORSDOF 6
ENDMDL
