MODEL 1
REMARK VINA RESULT:    -7.214      0.000      0.000
REMARK INTER + INTRA:         -12.274
REMARK INTER:                 -11.220
REMARK INTRA:                  -1.054
REMARK UNBOUND:                -1.054
REMARK  Name = 
REMARK  10 active torsions:
REMARK  status: ('A' for Active; 'I' for Inactive)
REMARK    1  A    between atoms: N_1  and  C_2
REMARK    2  A    between atoms: C_2  and  C_3
REMARK    3  A    between atoms: C_3  and  N_4
REMARK    4  A    between atoms: N_4  and  C_5
REMARK    5  A    between atoms: C_5  and  C_6
REMARK    6  A    between atoms: C_9  and  C_10
REMARK    7  A    between atoms: C_10  and  C_11
REMARK    8  A    between atoms: C_14  and  C_15
REMARK    9  A    between atoms: C_15  and  N_16
REMARK   10  A    between atoms: C_17  and  C_19
REMARK                            x       y       z     vdW  Elec       q    Type
REMARK                         _______ _______ _______ _____ _____    ______ ____
ROOT
ATOM      1  C   UNL     1      45.271   6.710  12.651  0.00  0.00    +0.000 A 
ATOM      2  C   UNL     1      45.549   8.072  12.578  0.00  0.00    +0.000 A 
ATOM      3  C   UNL     1      46.738   8.548  13.127  0.00  0.00    +0.000 A 
ATOM      4  C   UNL     1      47.635   7.658  13.719  0.00  0.00    +0.000 A 
ATOM      5  C   UNL     1      47.259   6.321  13.775  0.00  0.00    +0.000 A 
ATOM      6  N   UNL     1      46.109   5.831  13.257  0.00  0.00    +0.000 NA
ENDROOT
BRANCH   1   7
ATOM      7  C   UNL     1      44.023   6.138  12.018  0.00  0.00    +0.000 C 
BRANCH   7  11
ATOM      8  C   UNL     1      44.640   2.885   9.328  0.00  0.00    +0.000 A 
ATOM      9  C   UNL     1      45.304   4.084   9.081  0.00  0.00    +0.000 A 
ATOM     10  C   UNL     1      45.123   5.149   9.960  0.00  0.00    +0.000 A 
ATOM     11  C   UNL     1      44.282   5.002  11.064  0.00  0.00    +0.000 A 
ATOM     12  C   UNL     1      43.660   3.767  11.230  0.00  0.00    +0.000 A 
ATOM     13  N   UNL     1      43.822   2.713  10.396  0.00  0.00    +0.000 NA
BRANCH   8  14
ATOM     14  C   UNL     1      44.877   1.688   8.426  0.00  0.00    +0.000 C 
BRANCH  14  15
ATOM     15  N   UNL     1      46.236   1.115   8.516  0.00  0.00    +0.000 NA
ATOM     16  H   UNL     1      46.801   1.801   9.024  0.00  0.00    +0.000 HD
BRANCH  15  17
ATOM     17  C   UNL     1      46.870   0.986   7.189  0.00  0.00    +0.000 C 
BRANCH  17  18
ATOM     18  C   UNL     1      47.754   2.187   6.801  0.00  0.00    +0.000 C 
BRANCH  18  19
ATOM     19  N   UNL     1      48.556   1.889   5.608  0.00  0.00    +0.000 NA
ATOM     20  H   UNL     1      48.656   0.878   5.528  0.00  0.00    +0.000 HD
ATOM     21  H   UNL     1      49.497   2.257   5.746  0.00  0.00    +0.000 HD
ENDBRANCH  18  19
ENDBRANCH  17  18
ENDBRANCH  15  17
ENDBRANCH  14  15
ENDBRANCH   8  14
ENDBRANCH   7  11
ENDBRANCH   1   7
BRANCH   4  22
ATOM     22  C   UNL     1      48.935   8.115  14.312  0.00  0.00    +0.000 C 
BRANCH  22  23
ATOM     23  N   UNL     1      48.926   7.993  15.747  0.00  0.00    +0.000 N 
ATOM     24  C   UNL     1      49.777   7.136  16.394  0.00  0.00    +0.000 C 
ATOM     25  O   UNL     1      50.624   6.484  15.788  0.00  0.00    +0.000 OA
ATOM     26  H   UNL     1      48.106   8.340  16.236  0.00  0.00    +0.000 HD
BRANCH  24  27
ATOM     27  C   UNL     1      49.662   7.079  17.857  0.00  0.00    +0.000 A 
ATOM     28  C   UNL     1      49.977   8.199  18.614  0.00  0.00    +0.000 A 
ATOM     29  S   UNL     1      49.738   7.980  20.288  0.00  0.00    +0.000 S 
ATOM     30  C   UNL     1      49.258   6.364  20.067  0.00  0.00    +0.000 A 
ATOM     31  N   UNL     1      48.928   5.577  21.127  0.00  0.00    +0.000 NA
ATOM     32  C   UNL     1      48.614   4.365  20.815  0.00  0.00    +0.000 A 
ATOM     33  N   UNL     1      48.594   3.866  19.537  0.00  0.00    +0.000 N 
ATOM     34  C   UNL     1      48.888   4.630  18.434  0.00  0.00    +0.000 A 
ATOM     35  O   UNL     1      48.815   4.169  17.299  0.00  0.00    +0.000 OA
ATOM     36  C   UNL     1      49.262   6.002  18.732  0.00  0.00    +0.000 A 
ATOM     37  H   UNL     1      48.331   2.907  19.360  0.00  0.00    +0.000 HD
ENDBRANCH  24  27
ENDBRANCH  22  23
ENDBRANCH   4  22
TORSDOF 10
ENDMDL
MODEL 2
REMARK VINA RESULT:    -6.740      4.611      9.470
REMARK INTER + INTRA:         -11.537
REMARK INTER:                 -10.490
REMARK INTRA:                  -1.048
REMARK UNBOUND:                -1.054
REMARK  Name = 
REMARK  10 active torsions:
REMARK  status: ('A' for Active; 'I' for Inactive)
REMARK    1  A    between atoms: N_1  and  C_2
REMARK    2  A    between atoms: C_2  and  C_3
REMARK    3  A    between atoms: C_3  and  N_4
REMARK    4  A    between atoms: N_4  and  C_5
REMARK    5  A    between atoms: C_5  and  C_6
REMARK    6  A    between atoms: C_9  and  C_10
REMARK    7  A    between atoms: C_10  and  C_11
REMARK    8  A    between atoms: C_14  and  C_15
REMARK    9  A    between atoms: C_15  and  N_16
REMARK   10  A    between atoms: C_17  and  C_19
REMARK                            x       y       z     vdW  Elec       q    Type
REMARK                         _______ _______ _______ _____ _____    ______ ____
ROOT
ATOM      1  C   UNL     1      49.406   5.452  16.945  0.00  0.00    +0.000 A 
ATOM      2  C   UNL     1      50.066   6.586  16.480  0.00  0.00    +0.000 A 
ATOM      3  C   UNL     1      49.626   7.186  15.301  0.00  0.00    +0.000 A 
ATOM      4  C   UNL     1      48.527   6.657  14.621  0.00  0.00    +0.000 A 
ATOM      5  C   UNL     1      47.952   5.505  15.143  0.00  0.00    +0.000 A 
ATOM      6  N   UNL     1      48.362   4.897  16.280  0.00  0.00    +0.000 NA
ENDROOT
BRANCH   1   7
ATOM      7  C   UNL     1      49.810   4.802  18.249  0.00  0.00    +0.000 C 
BRANCH   7  11
ATOM      8  C   UNL     1      52.510   1.544  17.704  0.00  0.00    +0.000 A 
ATOM      9  C   UNL     1      52.997   2.722  18.264  0.00  0.00    +0.000 A 
ATOM     10  C   UNL     1      52.123   3.787  18.461  0.00  0.00    +0.000 A 
ATOM     11  C   UNL     1      50.782   3.662  18.093  0.00  0.00    +0.000 A 
ATOM     12  C   UNL     1      50.385   2.447  17.541  0.00  0.00    +0.000 A 
ATOM     13  N   UNL     1      51.211   1.393  17.342  0.00  0.00    +0.000 NA
BRANCH   8  14
ATOM     14  C   UNL     1      53.425   0.344  17.545  0.00  0.00    +0.000 C 
BRANCH  14  15
ATOM     15  N   UNL     1      53.154  -0.760  18.490  0.00  0.00    +0.000 NA
ATOM     16  H   UNL     1      53.063  -0.327  19.413  0.00  0.00    +0.000 HD
BRANCH  15  17
ATOM     17  C   UNL     1      54.297  -1.687  18.599  0.00  0.00    +0.000 C 
BRANCH  17  18
ATOM     18  C   UNL     1      53.982  -2.975  19.384  0.00  0.00    +0.000 C 
BRANCH  18  19
ATOM     19  N   UNL     1      52.981  -3.790  18.684  0.00  0.00    +0.000 NA
ATOM     20  H   UNL     1      52.053  -3.487  18.977  0.00  0.00    +0.000 HD
ATOM     21  H   UNL     1      53.073  -4.757  18.992  0.00  0.00    +0.000 HD
ENDBRANCH  18  19
ENDBRANCH  17  18
ENDBRANCH  15  17
ENDBRANCH  14  15
ENDBRANCH   8  14
ENDBRANCH   7  11
ENDBRANCH   1   7
BRANCH   4  22
ATOM     22  C   UNL     1      48.003   7.271  13.357  0.00  0.00    +0.000 C 
BRANCH  22  23
ATOM     23  N   UNL     1      47.299   6.302  12.559  0.00  0.00    +0.000 N 
ATOM     24  C   UNL     1      46.305   6.681  11.693  0.00  0.00    +0.000 C 
ATOM     25  O   UNL     1      46.017   7.862  11.513  0.00  0.00    +0.000 OA
ATOM     26  H   UNL     1      47.359   5.331  12.848  0.00  0.00    +0.000 HD
BRANCH  24  27
ATOM     27  C   UNL     1      45.641   5.604  10.948  0.00  0.00    +0.000 A 
ATOM     28  C   UNL     1      45.693   5.595   9.561  0.00  0.00    +0.000 A 
ATOM     29  S   UNL     1      44.918   4.249   8.857  0.00  0.00    +0.000 S 
ATOM     30  C   UNL     1      44.437   3.659  10.378  0.00  0.00    +0.000 A 
ATOM     31  N   UNL     1      43.701   2.520  10.489  0.00  0.00    +0.000 NA
ATOM     32  C   UNL     1      43.380   2.207  11.699  0.00  0.00    +0.000 A 
ATOM     33  N   UNL     1      43.732   2.926  12.813  0.00  0.00    +0.000 N 
ATOM     34  C   UNL     1      44.501   4.064  12.753  0.00  0.00    +0.000 A 
ATOM     35  O   UNL     1      44.840   4.660  13.770  0.00  0.00    +0.000 OA
ATOM     36  C   UNL     1      44.878   4.468  11.409  0.00  0.00    +0.000 A 
ATOM     37  H   UNL     1      43.455   2.622  13.735  0.00  0.00    +0.000 HD
ENDBRANCH  24  27
ENDBRANCH  22  23
ENDBRANCH   4  22
TORSDOF 10
ENDMDL
MODEL 3
REMARK VINA RESULT:    -6.689      3.280      9.402
REMARK INTER + INTRA:         -11.458
REMARK INTER:                 -10.292
REMARK INTRA:                  -1.165
REMARK UNBOUND:                -1.054
REMARK  Name = 
REMARK  10 active torsions:
REMARK  status: ('A' for Active; 'I' for Inactive)
REMARK    1  A    between atoms: N_1  and  C_2
REMARK    2  A    between atoms: C_2  and  C_3
REMARK    3  A    between atoms: C_3  and  N_4
REMARK    4  A    between atoms: N_4  and  C_5
REMARK    5  A    between atoms: C_5  and  C_6
REMARK    6  A    between atoms: C_9  and  C_10
REMARK    7  A    between atoms: C_10  and  C_11
REMARK    8  A    between atoms: C_14  and  C_15
REMARK    9  A    between atoms: C_15  and  N_16
REMARK   10  A    between atoms: C_17  and  C_19
REMARK                            x       y       z     vdW  Elec       q    Type
REMARK                         _______ _______ _______ _____ _____    ______ ____
ROOT
ATOM      1  C   UNL     1      50.394   7.842  14.463  0.00  0.00    +0.000 A 
ATOM      2  C   UNL     1      50.336   8.953  13.627  0.00  0.00    +0.000 A 
ATOM      3  C   UNL     1      49.301   9.044  12.697  0.00  0.00    +0.000 A 
ATOM      4  C   UNL     1      48.335   8.038  12.633  0.00  0.00    +0.000 A 
ATOM      5  C   UNL     1      48.492   6.952  13.485  0.00  0.00    +0.000 A 
ATOM      6  N   UNL     1      49.490   6.833  14.392  0.00  0.00    +0.000 NA
ENDROOT
BRANCH   1   7
ATOM      7  C   UNL     1      51.463   7.728  15.526  0.00  0.00    +0.000 C 
BRANCH   7  11
ATOM      8  C   UNL     1      50.236   5.330  18.835  0.00  0.00    +0.000 A 
ATOM      9  C   UNL     1      51.367   4.944  18.120  0.00  0.00    +0.000 A 
ATOM     10  C   UNL     1      51.787   5.726  17.047  0.00  0.00    +0.000 A 
ATOM     11  C   UNL     1      51.072   6.874  16.703  0.00  0.00    +0.000 A 
ATOM     12  C   UNL     1      49.954   7.182  17.475  0.00  0.00    +0.000 A 
ATOM     13  N   UNL     1      49.526   6.444  18.526  0.00  0.00    +0.000 NA
BRANCH   8  14
ATOM     14  C   UNL     1      49.801   4.536  20.052  0.00  0.00    +0.000 C 
BRANCH  14  15
ATOM     15  N   UNL     1      48.536   3.791  19.875  0.00  0.00    +0.000 NA
ATOM     16  H   UNL     1      48.554   3.033  20.562  0.00  0.00    +0.000 HD
BRANCH  15  17
ATOM     17  C   UNL     1      48.463   3.131  18.557  0.00  0.00    +0.000 C 
BRANCH  17  18
ATOM     18  C   UNL     1      47.268   3.584  17.697  0.00  0.00    +0.000 C 
BRANCH  18  19
ATOM     19  N   UNL     1      46.733   4.867  18.171  0.00  0.00    +0.000 NA
ATOM     20  H   UNL     1      47.498   5.539  18.223  0.00  0.00    +0.000 HD
ATOM     21  H   UNL     1      46.395   4.748  19.125  0.00  0.00    +0.000 HD
ENDBRANCH  18  19
ENDBRANCH  17  18
ENDBRANCH  15  17
ENDBRANCH  14  15
ENDBRANCH   8  14
ENDBRANCH   7  11
ENDBRANCH   1   7
BRANCH   4  22
ATOM     22  C   UNL     1      47.193   8.093  11.663  0.00  0.00    +0.000 C 
BRANCH  22  23
ATOM     23  N   UNL     1      46.583   6.799  11.500  0.00  0.00    +0.000 N 
ATOM     24  C   UNL     1      45.221   6.658  11.438  0.00  0.00    +0.000 C 
ATOM     25  O   UNL     1      44.466   7.628  11.454  0.00  0.00    +0.000 OA
ATOM     26  H   UNL     1      47.156   5.987  11.708  0.00  0.00    +0.000 HD
BRANCH  24  27
ATOM     27  C   UNL     1      44.711   5.288  11.294  0.00  0.00    +0.000 A 
ATOM     28  C   UNL     1      43.972   4.719  12.322  0.00  0.00    +0.000 A 
ATOM     29  S   UNL     1      43.411   3.147  11.970  0.00  0.00    +0.000 S 
ATOM     30  C   UNL     1      44.184   3.149  10.455  0.00  0.00    +0.000 A 
ATOM     31  N   UNL     1      44.120   2.066   9.633  0.00  0.00    +0.000 NA
ATOM     32  C   UNL     1      44.778   2.195   8.530  0.00  0.00    +0.000 A 
ATOM     33  N   UNL     1      45.491   3.310   8.169  0.00  0.00    +0.000 N 
ATOM     34  C   UNL     1      45.557   4.437   8.951  0.00  0.00    +0.000 A 
ATOM     35  O   UNL     1      46.163   5.438   8.580  0.00  0.00    +0.000 OA
ATOM     36  C   UNL     1      44.843   4.340  10.213  0.00  0.00    +0.000 A 
ATOM     37  H   UNL     1      45.978   3.349   7.285  0.00  0.00    +0.000 HD
ENDBRANCH  24  27
ENDBRANCH  22  23
ENDBRANCH   4  22
TORSDOF 10
ENDMDL
MODEL 4
REMARK VINA RESULT:    -6.654      3.694      4.994
REMARK INTER + INTRA:         -11.404
REMARK INTER:                 -10.990
REMARK INTRA:                  -0.414
REMARK UNBOUND:                -1.054
REMARK  Name = 
REMARK  10 active torsions:
REMARK  status: ('A' for Active; 'I' for Inactive)
REMARK    1  A    between atoms: N_1  and  C_2
REMARK    2  A    between atoms: C_2  and  C_3
REMARK    3  A    between atoms: C_3  and  N_4
REMARK    4  A    between atoms: N_4  and  C_5
REMARK    5  A    between atoms: C_5  and  C_6
REMARK    6  A    between atoms: C_9  and  C_10
REMARK    7  A    between atoms: C_10  and  C_11
REMARK    8  A    between atoms: C_14  and  C_15
REMARK    9  A    between atoms: C_15  and  N_16
REMARK   10  A    between atoms: C_17  and  C_19
REMARK                            x       y       z     vdW  Elec       q    Type
REMARK                         _______ _______ _______ _____ _____    ______ ____
ROOT
ATOM      1  C   UNL     1      47.903   5.911  14.936  0.00  0.00    +0.000 A 
ATOM      2  C   UNL     1      48.662   6.360  16.014  0.00  0.00    +0.000 A 
ATOM      3  C   UNL     1      48.916   5.485  17.070  0.00  0.00    +0.000 A 
ATOM      4  C   UNL     1      48.428   4.178  17.022  0.00  0.00    +0.000 A 
ATOM      5  C   UNL     1      47.654   3.830  15.922  0.00  0.00    +0.000 A 
ATOM      6  N   UNL     1      47.385   4.658  14.886  0.00  0.00    +0.000 NA
ENDROOT
BRANCH   1   7
ATOM      7  C   UNL     1      47.652   6.803  13.742  0.00  0.00    +0.000 C 
BRANCH   7  11
ATOM      8  C   UNL     1      44.682   5.300  11.073  0.00  0.00    +0.000 A 
ATOM      9  C   UNL     1      45.810   5.911  10.533  0.00  0.00    +0.000 A 
ATOM     10  C   UNL     1      46.793   6.393  11.392  0.00  0.00    +0.000 A 
ATOM     11  C   UNL     1      46.634   6.261  12.773  0.00  0.00    +0.000 A 
ATOM     12  C   UNL     1      45.474   5.634  13.222  0.00  0.00    +0.000 A 
ATOM     13  N   UNL     1      44.505   5.152  12.410  0.00  0.00    +0.000 NA
BRANCH   8  14
ATOM     14  C   UNL     1      43.630   4.702  10.157  0.00  0.00    +0.000 C 
BRANCH  14  15
ATOM     15  N   UNL     1      44.108   4.406   8.790  0.00  0.00    +0.000 NA
ATOM     16  H   UNL     1      43.286   4.463   8.183  0.00  0.00    +0.000 HD
BRANCH  15  17
ATOM     17  C   UNL     1      44.599   3.020   8.664  0.00  0.00    +0.000 C 
BRANCH  17  18
ATOM     18  C   UNL     1      45.987   2.908   8.005  0.00  0.00    +0.000 C 
BRANCH  18  19
ATOM     19  N   UNL     1      46.278   4.088   7.181  0.00  0.00    +0.000 NA
ATOM     20  H   UNL     1      47.264   4.068   6.922  0.00  0.00    +0.000 HD
ATOM     21  H   UNL     1      46.152   4.924   7.750  0.00  0.00    +0.000 HD
ENDBRANCH  18  19
ENDBRANCH  17  18
ENDBRANCH  15  17
ENDBRANCH  14  15
ENDBRANCH   8  14
ENDBRANCH   7  11
ENDBRANCH   1   7
BRANCH   4  22
ATOM     22  C   UNL     1      48.684   3.193  18.124  0.00  0.00    +0.000 C 
BRANCH  22  23
ATOM     23  N   UNL     1      50.094   2.946  18.285  0.00  0.00    +0.000 N 
ATOM     24  C   UNL     1      50.781   2.149  17.407  0.00  0.00    +0.000 C 
ATOM     25  O   UNL     1      50.244   1.665  16.413  0.00  0.00    +0.000 OA
ATOM     26  H   UNL     1      50.497   3.142  19.196  0.00  0.00    +0.000 HD
BRANCH  24  27
ATOM     27  C   UNL     1      52.209   1.950  17.684  0.00  0.00    +0.000 A 
ATOM     28  C   UNL     1      52.703   0.664  17.855  0.00  0.00    +0.000 A 
ATOM     29  S   UNL     1      54.387   0.608  18.115  0.00  0.00    +0.000 S 
ATOM     30  C   UNL     1      54.509   2.303  18.064  0.00  0.00    +0.000 A 
ATOM     31  N   UNL     1      55.705   2.928  18.244  0.00  0.00    +0.000 NA
ATOM     32  C   UNL     1      55.644   4.217  18.212  0.00  0.00    +0.000 A 
ATOM     33  N   UNL     1      54.497   4.941  18.010  0.00  0.00    +0.000 N 
ATOM     34  C   UNL     1      53.274   4.355  17.792  0.00  0.00    +0.000 A 
ATOM     35  O   UNL     1      52.273   5.028  17.568  0.00  0.00    +0.000 OA
ATOM     36  C   UNL     1      53.284   2.902  17.833  0.00  0.00    +0.000 A 
ATOM     37  H   UNL     1      54.520   5.950  17.988  0.00  0.00    +0.000 HD
ENDBRANCH  24  27
ENDBRANCH  22  23
ENDBRANCH   4  22
TORSDOF 10
ENDMDL
MODEL 5
REMARK VINA RESULT:    -6.502      5.107      7.534
REMARK INTER + INTRA:         -11.167
REMARK INTER:                 -10.243
REMARK INTRA:                  -0.924
REMARK UNBOUND:                -1.054
REMARK  Name = 
REMARK  10 active torsions:
REMARK  status: ('A' for Active; 'I' for Inactive)
REMARK    1  A    between atoms: N_1  and  C_2
REMARK    2  A    between atoms: C_2  and  C_3
REMARK    3  A    between atoms: C_3  and  N_4
REMARK    4  A    between atoms: N_4  and  C_5
REMARK    5  A    between atoms: C_5  and  C_6
REMARK    6  A    between atoms: C_9  and  C_10
REMARK    7  A    between atoms: C_10  and  C_11
REMARK    8  A    between atoms: C_14  and  C_15
REMARK    9  A    between atoms: C_15  and  N_16
REMARK   10  A    between atoms: C_17  and  C_19
REMARK                            x       y       z     vdW  Elec       q    Type
REMARK                         _______ _______ _______ _____ _____    ______ ____
ROOT
ATOM      1  C   UNL     1      47.107   7.295  12.656  0.00  0.00    +0.000 A 
ATOM      2  C   UNL     1      47.245   8.579  12.135  0.00  0.00    +0.000 A 
ATOM      3  C   UNL     1      48.525   9.070  11.882  0.00  0.00    +0.000 A 
ATOM      4  C   UNL     1      49.639   8.267  12.135  0.00  0.00    +0.000 A 
ATOM      5  C   UNL     1      49.406   7.013  12.685  0.00  0.00    +0.000 A 
ATOM      6  N   UNL     1      48.176   6.512  12.947  0.00  0.00    +0.000 NA
ENDROOT
BRANCH   1   7
ATOM      7  C   UNL     1      45.738   6.698  12.891  0.00  0.00    +0.000 C 
BRANCH   7  11
ATOM      8  C   UNL     1      44.928   3.394  10.316  0.00  0.00    +0.000 A 
ATOM      9  C   UNL     1      44.893   3.186  11.692  0.00  0.00    +0.000 A 
ATOM     10  C   UNL     1      45.141   4.259  12.544  0.00  0.00    +0.000 A 
ATOM     11  C   UNL     1      45.423   5.518  12.010  0.00  0.00    +0.000 A 
ATOM     12  C   UNL     1      45.436   5.631  10.622  0.00  0.00    +0.000 A 
ATOM     13  N   UNL     1      45.194   4.608   9.771  0.00  0.00    +0.000 NA
BRANCH   8  14
ATOM     14  C   UNL     1      44.591   2.258   9.368  0.00  0.00    +0.000 C 
BRANCH  14  15
ATOM     15  N   UNL     1      45.730   1.781   8.557  0.00  0.00    +0.000 NA
ATOM     16  H   UNL     1      46.550   1.814   9.170  0.00  0.00    +0.000 HD
BRANCH  15  17
ATOM     17  C   UNL     1      46.035   2.694   7.439  0.00  0.00    +0.000 C 
BRANCH  17  18
ATOM     18  C   UNL     1      47.512   2.674   7.002  0.00  0.00    +0.000 C 
BRANCH  18  19
ATOM     19  N   UNL     1      48.022   1.299   6.922  0.00  0.00    +0.000 NA
ATOM     20  H   UNL     1      48.473   1.172   6.018  0.00  0.00    +0.000 HD
ATOM     21  H   UNL     1      47.230   0.656   6.937  0.00  0.00    +0.000 HD
ENDBRANCH  18  19
ENDBRANCH  17  18
ENDBRANCH  15  17
ENDBRANCH  14  15
ENDBRANCH   8  14
ENDBRANCH   7  11
ENDBRANCH   1   7
BRANCH   4  22
ATOM     22  C   UNL     1      51.037   8.740  11.868  0.00  0.00    +0.000 C 
BRANCH  22  23
ATOM     23  N   UNL     1      51.478   8.352  10.553  0.00  0.00    +0.000 N 
ATOM     24  C   UNL     1      52.620   8.872  10.004  0.00  0.00    +0.000 C 
ATOM     25  O   UNL     1      53.350   9.639  10.628  0.00  0.00    +0.000 OA
ATOM     26  H   UNL     1      50.793   7.909   9.947  0.00  0.00    +0.000 HD
BRANCH  24  27
ATOM     27  C   UNL     1      52.959   8.419   8.648  0.00  0.00    +0.000 A 
ATOM     28  C   UNL     1      52.933   9.323   7.596  0.00  0.00    +0.000 A 
ATOM     29  S   UNL     1      53.404   8.648   6.102  0.00  0.00    +0.000 S 
ATOM     30  C   UNL     1      53.606   7.109   6.798  0.00  0.00    +0.000 A 
ATOM     31  N   UNL     1      53.986   6.042   6.044  0.00  0.00    +0.000 NA
ATOM     32  C   UNL     1      54.069   4.930   6.696  0.00  0.00    +0.000 A 
ATOM     33  N   UNL     1      53.813   4.788   8.035  0.00  0.00    +0.000 N 
ATOM     34  C   UNL     1      53.458   5.842   8.843  0.00  0.00    +0.000 A 
ATOM     35  O   UNL     1      53.282   5.693  10.047  0.00  0.00    +0.000 OA
ATOM     36  C   UNL     1      53.337   7.116   8.154  0.00  0.00    +0.000 A 
ATOM     37  H   UNL     1      53.905   3.890   8.487  0.00  0.00    +0.000 HD
ENDBRANCH  24  27
ENDBRANCH  22  23
ENDBRANCH   4  22
TORSDOF 10
ENDMDL
MODEL 6
REMARK VINA RESULT:    -6.468      2.643      3.694
REMARK INTER + INTRA:         -11.115
REMARK INTER:                  -9.955
REMARK INTRA:                  -1.160
REMARK UNBOUND:                -1.054
REMARK  Name = 
REMARK  10 active torsions:
REMARK  status: ('A' for Active; 'I' for Inactive)
REMARK    1  A    between atoms: N_1  and  C_2
REMARK    2  A    between atoms: C_2  and  C_3
REMARK    3  A    between atoms: C_3  and  N_4
REMARK    4  A    between atoms: N_4  and  C_5
REMARK    5  A    between atoms: C_5  and  C_6
REMARK    6  A    between atoms: C_9  and  C_10
REMARK    7  A    between atoms: C_10  and  C_11
REMARK    8  A    between atoms: C_14  and  C_15
REMARK    9  A    between atoms: C_15  and  N_16
REMARK   10  A    between atoms: C_17  and  C_19
REMARK                            x       y       z     vdW  Elec       q    Type
REMARK                         _______ _______ _______ _____ _____    ______ ____
ROOT
ATOM      1  C   UNL     1      48.122   7.666  13.693  0.00  0.00    +0.000 A 
ATOM      2  C   UNL     1      47.812   8.768  14.484  0.00  0.00    +0.000 A 
ATOM      3  C   UNL     1      48.297   8.818  15.791  0.00  0.00    +0.000 A 
ATOM      4  C   UNL     1      49.095   7.780  16.275  0.00  0.00    +0.000 A 
ATOM      5  C   UNL     1      49.325   6.706  15.424  0.00  0.00    +0.000 A 
ATOM      6  N   UNL     1      48.863   6.627  14.154  0.00  0.00    +0.000 NA
ENDROOT
BRANCH   1   7
ATOM      7  C   UNL     1      47.669   7.595  12.252  0.00  0.00    +0.000 C 
BRANCH   7  11
ATOM      8  C   UNL     1      44.837   4.528  11.374  0.00  0.00    +0.000 A 
ATOM      9  C   UNL     1      45.248   4.692  12.694  0.00  0.00    +0.000 A 
ATOM     10  C   UNL     1      46.161   5.698  12.997  0.00  0.00    +0.000 A 
ATOM     11  C   UNL     1      46.650   6.520  11.980  0.00  0.00    +0.000 A 
ATOM     12  C   UNL     1      46.181   6.283  10.690  0.00  0.00    +0.000 A 
ATOM     13  N   UNL     1      45.291   5.316  10.368  0.00  0.00    +0.000 NA
BRANCH   8  14
ATOM     14  C   UNL     1      43.789   3.486  11.030  0.00  0.00    +0.000 C 
BRANCH  14  15
ATOM     15  N   UNL     1      44.340   2.198  10.560  0.00  0.00    +0.000 NA
ATOM     16  H   UNL     1      45.322   2.185  10.850  0.00  0.00    +0.000 HD
BRANCH  15  17
ATOM     17  C   UNL     1      44.361   2.109   9.087  0.00  0.00    +0.000 C 
BRANCH  17  18
ATOM     18  C   UNL     1      45.769   2.236   8.474  0.00  0.00    +0.000 C 
BRANCH  18  19
ATOM     19  N   UNL     1      45.970   3.566   7.885  0.00  0.00    +0.000 NA
ATOM     20  H   UNL     1      46.350   4.184   8.601  0.00  0.00    +0.000 HD
ATOM     21  H   UNL     1      45.062   3.952   7.631  0.00  0.00    +0.000 HD
ENDBRANCH  18  19
ENDBRANCH  17  18
ENDBRANCH  15  17
ENDBRANCH  14  15
ENDBRANCH   8  14
ENDBRANCH   7  11
ENDBRANCH   1   7
BRANCH   4  22
ATOM     22  C   UNL     1      49.654   7.790  17.667  0.00  0.00    +0.000 C 
BRANCH  22  23
ATOM     23  N   UNL     1      50.611   6.730  17.852  0.00  0.00    +0.000 N 
ATOM     24  C   UNL     1      50.369   5.697  18.719  0.00  0.00    +0.000 C 
ATOM     25  O   UNL     1      49.304   5.594  19.325  0.00  0.00    +0.000 OA
ATOM     26  H   UNL     1      51.564   6.907  17.546  0.00  0.00    +0.000 HD
BRANCH  24  27
ATOM     27  C   UNL     1      51.426   4.685  18.844  0.00  0.00    +0.000 A 
ATOM     28  C   UNL     1      52.556   4.962  19.601  0.00  0.00    +0.000 A 
ATOM     29  S   UNL     1      53.657   3.663  19.686  0.00  0.00    +0.000 S 
ATOM     30  C   UNL     1      52.691   2.703  18.667  0.00  0.00    +0.000 A 
ATOM     31  N   UNL     1      53.077   1.448  18.310  0.00  0.00    +0.000 NA
ATOM     32  C   UNL     1      52.263   0.846  17.509  0.00  0.00    +0.000 A 
ATOM     33  N   UNL     1      51.093   1.382  17.035  0.00  0.00    +0.000 N 
ATOM     34  C   UNL     1      50.646   2.632  17.393  0.00  0.00    +0.000 A 
ATOM     35  O   UNL     1      49.572   3.066  16.990  0.00  0.00    +0.000 OA
ATOM     36  C   UNL     1      51.535   3.358  18.284  0.00  0.00    +0.000 A 
ATOM     37  H   UNL     1      50.495   0.855  16.415  0.00  0.00    +0.000 HD
ENDBRANCH  24  27
ENDBRANCH  22  23
ENDBRANCH   4  22
TORSDOF 10
ENDMDL
MODEL 7
REMARK VINA RESULT:    -6.389      5.189      8.648
REMARK INTER + INTRA:         -10.991
REMARK INTER:                 -10.026
REMARK INTRA:                  -0.965
REMARK UNBOUND:                -1.054
REMARK  Name = 
REMARK  10 active torsions:
REMARK  status: ('A' for Active; 'I' for Inactive)
REMARK    1  A    between atoms: N_1  and  C_2
REMARK    2  A    between atoms: C_2  and  C_3
REMARK    3  A    between atoms: C_3  and  N_4
REMARK    4  A    between atoms: N_4  and  C_5
REMARK    5  A    between atoms: C_5  and  C_6
REMARK    6  A    between atoms: C_9  and  C_10
REMARK    7  A    between atoms: C_10  and  C_11
REMARK    8  A    between atoms: C_14  and  C_15
REMARK    9  A    between atoms: C_15  and  N_16
REMARK   10  A    between atoms: C_17  and  C_19
REMARK                            x       y       z     vdW  Elec       q    Type
REMARK                         _______ _______ _______ _____ _____    ______ ____
ROOT
ATOM      1  C   UNL     1      50.350   9.043  11.456  0.00  0.00    +0.000 A 
ATOM      2  C   UNL     1      50.003   7.704  11.620  0.00  0.00    +0.000 A 
ATOM      3  C   UNL     1      48.718   7.390  12.061  0.00  0.00    +0.000 A 
ATOM      4  C   UNL     1      47.801   8.413  12.310  0.00  0.00    +0.000 A 
ATOM      5  C   UNL     1      48.246   9.719  12.150  0.00  0.00    +0.000 A 
ATOM      6  N   UNL     1      49.488  10.054  11.730  0.00  0.00    +0.000 NA
ENDROOT
BRANCH   1   7
ATOM      7  C   UNL     1      51.712   9.430  10.924  0.00  0.00    +0.000 C 
BRANCH   7  11
ATOM      8  C   UNL     1      53.999   6.098   9.557  0.00  0.00    +0.000 A 
ATOM      9  C   UNL     1      53.065   6.660   8.691  0.00  0.00    +0.000 A 
ATOM     10  C   UNL     1      52.322   7.757   9.120  0.00  0.00    +0.000 A 
ATOM     11  C   UNL     1      52.520   8.271  10.402  0.00  0.00    +0.000 A 
ATOM     12  C   UNL     1      53.477   7.645  11.198  0.00  0.00    +0.000 A 
ATOM     13  N   UNL     1      54.216   6.581  10.806  0.00  0.00    +0.000 NA
BRANCH   8  14
ATOM     14  C   UNL     1      54.871   4.948   9.089  0.00  0.00    +0.000 C 
BRANCH  14  15
ATOM     15  N   UNL     1      55.511   5.163   7.774  0.00  0.00    +0.000 NA
ATOM     16  H   UNL     1      55.074   6.000   7.378  0.00  0.00    +0.000 HD
BRANCH  15  17
ATOM     17  C   UNL     1      55.210   4.072   6.827  0.00  0.00    +0.000 C 
BRANCH  17  18
ATOM     18  C   UNL     1      53.711   3.925   6.502  0.00  0.00    +0.000 C 
BRANCH  18  19
ATOM     19  N   UNL     1      53.228   2.579   6.832  0.00  0.00    +0.000 NA
ATOM     20  H   UNL     1      52.577   2.280   6.107  0.00  0.00    +0.000 HD
ATOM     21  H   UNL     1      52.686   2.628   7.695  0.00  0.00    +0.000 HD
ENDBRANCH  18  19
ENDBRANCH  17  18
ENDBRANCH  15  17
ENDBRANCH  14  15
ENDBRANCH   8  14
ENDBRANCH   7  11
ENDBRANCH   1   7
BRANCH   4  22
ATOM     22  C   UNL     1      46.402   8.130  12.772  0.00  0.00    +0.000 C 
BRANCH  22  23
ATOM     23  N   UNL     1      45.991   6.798  12.409  0.00  0.00    +0.000 N 
ATOM     24  C   UNL     1      44.844   6.579  11.692  0.00  0.00    +0.000 C 
ATOM     25  O   UNL     1      44.153   7.504  11.274  0.00  0.00    +0.000 OA
ATOM     26  H   UNL     1      46.410   6.028  12.921  0.00  0.00    +0.000 HD
BRANCH  24  27
ATOM     27  C   UNL     1      44.514   5.178  11.399  0.00  0.00    +0.000 A 
ATOM     28  C   UNL     1      43.766   4.444  12.308  0.00  0.00    +0.000 A 
ATOM     29  S   UNL     1      43.427   2.855  11.790  0.00  0.00    +0.000 S 
ATOM     30  C   UNL     1      44.315   3.072  10.356  0.00  0.00    +0.000 A 
ATOM     31  N   UNL     1      44.448   2.064   9.452  0.00  0.00    +0.000 NA
ATOM     32  C   UNL     1      45.174   2.359   8.426  0.00  0.00    +0.000 A 
ATOM     33  N   UNL     1      45.777   3.573   8.217  0.00  0.00    +0.000 N 
ATOM     34  C   UNL     1      45.644   4.630   9.085  0.00  0.00    +0.000 A 
ATOM     35  O   UNL     1      46.156   5.720   8.848  0.00  0.00    +0.000 OA
ATOM     36  C   UNL     1      44.846   4.346  10.266  0.00  0.00    +0.000 A 
ATOM     37  H   UNL     1      46.327   3.742   7.387  0.00  0.00    +0.000 HD
ENDBRANCH  24  27
ENDBRANCH  22  23
ENDBRANCH   4  22
TORSDOF 10
ENDMDL
MODEL 8
REMARK VINA RESULT:    -6.187      4.204      5.782
REMARK INTER + INTRA:         -10.677
REMARK INTER:                  -9.545
REMARK INTRA:                  -1.133
REMARK UNBOUND:                -1.054
REMARK  Name = 
REMARK  10 active torsions:
REMARK  status: ('A' for Active; 'I' for Inactive)
REMARK    1  A    between atoms: N_1  and  C_2
REMARK    2  A    between atoms: C_2  and  C_3
REMARK    3  A    between atoms: C_3  and  N_4
REMARK    4  A    between atoms: N_4  and  C_5
REMARK    5  A    between atoms: C_5  and  C_6
REMARK    6  A    between atoms: C_9  and  C_10
REMARK    7  A    between atoms: C_10  and  C_11
REMARK    8  A    between atoms: C_14  and  C_15
REMARK    9  A    between atoms: C_15  and  N_16
REMARK   10  A    between atoms: C_17  and  C_19
REMARK                            x       y       z     vdW  Elec       q    Type
REMARK                         _______ _______ _______ _____ _____    ______ ____
ROOT
ATOM      1  C   UNL     1      45.698   6.645  12.886  0.00  0.00    +0.000 A 
ATOM      2  C   UNL     1      45.223   7.911  12.553  0.00  0.00    +0.000 A 
ATOM      3  C   UNL     1      46.044   9.017  12.770  0.00  0.00    +0.000 A 
ATOM      4  C   UNL     1      47.326   8.838  13.294  0.00  0.00    +0.000 A 
ATOM      5  C   UNL     1      47.701   7.542  13.626  0.00  0.00    +0.000 A 
ATOM      6  N   UNL     1      46.924   6.451  13.433  0.00  0.00    +0.000 NA
ENDROOT
BRANCH   1   7
ATOM      7  C   UNL     1      44.868   5.411  12.615  0.00  0.00    +0.000 C 
BRANCH   7  11
ATOM      8  C   UNL     1      45.371   3.933   8.645  0.00  0.00    +0.000 A 
ATOM      9  C   UNL     1      44.685   3.144   9.563  0.00  0.00    +0.000 A 
ATOM     10  C   UNL     1      44.500   3.620  10.858  0.00  0.00    +0.000 A 
ATOM     11  C   UNL     1      45.006   4.871  11.216  0.00  0.00    +0.000 A 
ATOM     12  C   UNL     1      45.679   5.590  10.230  0.00  0.00    +0.000 A 
ATOM     13  N   UNL     1      45.868   5.154   8.963  0.00  0.00    +0.000 NA
BRANCH   8  14
ATOM     14  C   UNL     1      45.523   3.468   7.208  0.00  0.00    +0.000 C 
BRANCH  14  15
ATOM     15  N   UNL     1      46.851   3.733   6.617  0.00  0.00    +0.000 NA
ATOM     16  H   UNL     1      46.716   3.730   5.602  0.00  0.00    +0.000 HD
BRANCH  15  17
ATOM     17  C   UNL     1      47.806   2.642   6.892  0.00  0.00    +0.000 C 
BRANCH  17  18
ATOM     18  C   UNL     1      47.265   1.239   6.555  0.00  0.00    +0.000 C 
BRANCH  18  19
ATOM     19  N   UNL     1      47.179   0.403   7.759  0.00  0.00    +0.000 NA
ATOM     20  H   UNL     1      47.998  -0.202   7.793  0.00  0.00    +0.000 HD
ATOM     21  H   UNL     1      46.374  -0.216   7.670  0.00  0.00    +0.000 HD
ENDBRANCH  18  19
ENDBRANCH  17  18
ENDBRANCH  15  17
ENDBRANCH  14  15
ENDBRANCH   8  14
ENDBRANCH   7  11
ENDBRANCH   1   7
BRANCH   4  22
ATOM     22  C   UNL     1      48.255   9.991  13.532  0.00  0.00    +0.000 C 
BRANCH  22  23
ATOM     23  N   UNL     1      49.440   9.883  12.722  0.00  0.00    +0.000 N 
ATOM     24  C   UNL     1      50.689  10.042  13.265  0.00  0.00    +0.000 C 
ATOM     25  O   UNL     1      50.855  10.219  14.469  0.00  0.00    +0.000 OA
ATOM     26  H   UNL     1      49.323   9.962  11.717  0.00  0.00    +0.000 HD
BRANCH  24  27
ATOM     27  C   UNL     1      51.823   9.933  12.339  0.00  0.00    +0.000 A 
ATOM     28  C   UNL     1      52.824  10.893  12.362  0.00  0.00    +0.000 A 
ATOM     29  S   UNL     1      54.091  10.587  11.263  0.00  0.00    +0.000 S 
ATOM     30  C   UNL     1      53.320   9.189  10.675  0.00  0.00    +0.000 A 
ATOM     31  N   UNL     1      53.875   8.447   9.679  0.00  0.00    +0.000 NA
ATOM     32  C   UNL     1      53.166   7.432   9.311  0.00  0.00    +0.000 A 
ATOM     33  N   UNL     1      51.954   7.088   9.852  0.00  0.00    +0.000 N 
ATOM     34  C   UNL     1      51.370   7.788  10.881  0.00  0.00    +0.000 A 
ATOM     35  O   UNL     1      50.308   7.428  11.376  0.00  0.00    +0.000 OA
ATOM     36  C   UNL     1      52.122   8.950  11.323  0.00  0.00    +0.000 A 
ATOM     37  H   UNL     1      51.453   6.275   9.524  0.00  0.00    +0.000 HD
ENDBRANCH  24  27
ENDBRANCH  22  23
ENDBRANCH   4  22
TORSDOF 10
ENDMDL
MODEL 9
REMARK VINA RESULT:    -6.075      5.260      8.157
REMARK INTER + INTRA:         -10.504
REMARK INTER:                  -9.314
REMARK INTRA:                  -1.189
REMARK UNBOUND:                -1.054
REMARK  Name = 
REMARK  10 active torsions:
REMARK  status: ('A' for Active; 'I' for Inactive)
REMARK    1  A    between atoms: N_1  and  C_2
REMARK    2  A    between atoms: C_2  and  C_3
REMARK    3  A    between atoms: C_3  and  N_4
REMARK    4  A    between atoms: N_4  and  C_5
REMARK    5  A    between atoms: C_5  and  C_6
REMARK    6  A    between atoms: C_9  and  C_10
REMARK    7  A    between atoms: C_10  and  C_11
REMARK    8  A    between atoms: C_14  and  C_15
REMARK    9  A    between atoms: C_15  and  N_16
REMARK   10  A    between atoms: C_17  and  C_19
REMARK                            x       y       z     vdW  Elec       q    Type
REMARK                         _______ _______ _______ _____ _____    ______ ____
ROOT
ATOM      1  C   UNL     1      48.382   8.591  13.132  0.00  0.00    +0.000 A 
ATOM      2  C   UNL     1      48.687   8.796  11.789  0.00  0.00    +0.000 A 
ATOM      3  C   UNL     1      50.021   8.743  11.385  0.00  0.00    +0.000 A 
ATOM      4  C   UNL     1      51.019   8.468  12.321  0.00  0.00    +0.000 A 
ATOM      5  C   UNL     1      50.624   8.310  13.644  0.00  0.00    +0.000 A 
ATOM      6  N   UNL     1      49.339   8.362  14.066  0.00  0.00    +0.000 NA
ENDROOT
BRANCH   1   7
ATOM      7  C   UNL     1      46.947   8.580  13.607  0.00  0.00    +0.000 C 
BRANCH   7  11
ATOM      8  C   UNL     1      44.439   5.760  11.618  0.00  0.00    +0.000 A 
ATOM      9  C   UNL     1      44.256   7.114  11.350  0.00  0.00    +0.000 A 
ATOM     10  C   UNL     1      45.078   8.044  11.981  0.00  0.00    +0.000 A 
ATOM     11  C   UNL     1      46.063   7.609  12.870  0.00  0.00    +0.000 A 
ATOM     12  C   UNL     1      46.172   6.236  13.076  0.00  0.00    +0.000 A 
ATOM     13  N   UNL     1      45.392   5.310  12.472  0.00  0.00    +0.000 NA
BRANCH   8  14
ATOM     14  C   UNL     1      43.605   4.723  10.889  0.00  0.00    +0.000 C 
BRANCH  14  15
ATOM     15  N   UNL     1      43.753   4.744   9.418  0.00  0.00    +0.000 NA
ATOM     16  H   UNL     1      43.105   4.038   9.057  0.00  0.00    +0.000 HD
BRANCH  15  17
ATOM     17  C   UNL     1      45.096   4.304   8.991  0.00  0.00    +0.000 C 
BRANCH  17  18
ATOM     18  C   UNL     1      45.109   2.935   8.285  0.00  0.00    +0.000 C 
BRANCH  18  19
ATOM     19  N   UNL     1      45.001   1.838   9.255  0.00  0.00    +0.000 NA
ATOM     20  H   UNL     1      45.237   2.198  10.179  0.00  0.00    +0.000 HD
ATOM     21  H   UNL     1      45.707   1.137   9.036  0.00  0.00    +0.000 HD
ENDBRANCH  18  19
ENDBRANCH  17  18
ENDBRANCH  15  17
ENDBRANCH  14  15
ENDBRANCH   8  14
ENDBRANCH   7  11
ENDBRANCH   1   7
BRANCH   4  22
ATOM     22  C   UNL     1      52.467   8.386  11.938  0.00  0.00    +0.000 C 
BRANCH  22  23
ATOM     23  N   UNL     1      52.623   7.931  10.581  0.00  0.00    +0.000 N 
ATOM     24  C   UNL     1      53.443   8.587   9.700  0.00  0.00    +0.000 C 
ATOM     25  O   UNL     1      54.128   9.548  10.044  0.00  0.00    +0.000 OA
ATOM     26  H   UNL     1      51.916   7.297  10.220  0.00  0.00    +0.000 HD
BRANCH  24  27
ATOM     27  C   UNL     1      53.506   8.046   8.337  0.00  0.00    +0.000 A 
ATOM     28  C   UNL     1      53.411   8.906   7.252  0.00  0.00    +0.000 A 
ATOM     29  S   UNL     1      53.556   8.123   5.744  0.00  0.00    +0.000 S 
ATOM     30  C   UNL     1      53.695   6.598   6.485  0.00  0.00    +0.000 A 
ATOM     31  N   UNL     1      53.826   5.465   5.743  0.00  0.00    +0.000 NA
ATOM     32  C   UNL     1      53.889   4.378   6.436  0.00  0.00    +0.000 A 
ATOM     33  N   UNL     1      53.839   4.318   7.805  0.00  0.00    +0.000 N 
ATOM     34  C   UNL     1      53.739   5.437   8.597  0.00  0.00    +0.000 A 
ATOM     35  O   UNL     1      53.744   5.356   9.821  0.00  0.00    +0.000 OA
ATOM     36  C   UNL     1      53.651   6.689   7.864  0.00  0.00    +0.000 A 
ATOM     37  H   UNL     1      53.901   3.433   8.287  0.00  0.00    +0.000 HD
ENDBRANCH  24  27
ENDBRANCH  22  23
ENDBRANCH   4  22
TORSDOF 10
ENDMDL
