MODEL 1
REMARK VINA RESULT:    -7.818      0.000      0.000
REMARK INTER + INTRA:         -12.629
REMARK INTER:                 -11.474
REMARK INTRA:                  -1.156
REMARK UNBOUND:                -1.156
REMARK  Name = 
REMARK  9 active torsions:
REMARK  status: ('A' for Active; 'I' for Inactive)
REMARK    1  A    between atoms: C_1  and  C_2
REMARK    2  A    between atoms: C_2  and  N_3
REMARK    3  A    between atoms: C_2  and  C_19
REMARK    4  A    between atoms: N_3  and  C_4
REMARK    5  A    between atoms: C_4  and  C_5
REMARK    6  A    between atoms: C_8  and  C_9
REMARK    7  A    between atoms: C_9  and  O_10
REMARK    8  A    between atoms: O_10  and  C_11
REMARK    9  A    between atoms: C_11  and  C_12
REMARK                            x       y       z     vdW  Elec       q    Type
REMARK                         _______ _______ _______ _____ _____    ______ ____
ROOT
ATOM      1  C   UNL     1      46.341   8.039  12.828  0.00  0.00    +0.000 C 
ENDROOT
BRANCH   1   2
ATOM      2  C   UNL     1      45.684   6.877  12.130  0.00  0.00    +0.000 A 
ATOM      3  C   UNL     1      46.178   6.369  10.927  0.00  0.00    +0.000 A 
ATOM      4  C   UNL     1      45.610   5.226  10.370  0.00  0.00    +0.000 A 
ATOM      5  C   UNL     1      44.550   4.608  11.032  0.00  0.00    +0.000 A 
ATOM      6  N   UNL     1      44.032   5.100  12.184  0.00  0.00    +0.000 NA
ATOM      7  C   UNL     1      44.608   6.209  12.704  0.00  0.00    +0.000 A 
BRANCH   5   8
ATOM      8  C   UNL     1      43.946   3.336  10.483  0.00  0.00    +0.000 C 
BRANCH   8   9
ATOM      9  O   UNL     1      44.439   3.106   9.160  0.00  0.00    +0.000 OA
BRANCH   9  10
ATOM     10  C   UNL     1      44.877   1.759   8.996  0.00  0.00    +0.000 C 
BRANCH  10  11
ATOM     11  C   UNL     1      46.073   1.803   8.125  0.00  0.00    +0.000 A 
ATOM     12  C   UNL     1      46.905   0.819   7.637  0.00  0.00    +0.000 A 
ATOM     13  N   UNL     1      47.889   1.355   6.846  0.00  0.00    +0.000 NA
ATOM     14  C   UNL     1      47.671   2.651   6.852  0.00  0.00    +0.000 A 
ATOM     15  N   UNL     1      46.591   2.970   7.619  0.00  0.00    +0.000 N 
ATOM     16  H   UNL     1      46.216   3.893   7.797  0.00  0.00    +0.000 HD
ENDBRANCH  10  11
ENDBRANCH   9  10
ENDBRANCH   8   9
ENDBRANCH   5   8
ENDBRANCH   1   2
BRANCH   1  17
ATOM     17  N   UNL     1      46.987   7.633  14.073  0.00  0.00    +0.000 NA
ATOM     18  H   UNL     1      46.300   7.132  14.641  0.00  0.00    +0.000 HD
BRANCH  17  20
ATOM     19  C   UNL     1      49.263   7.374  13.035  0.00  0.00    +0.000 C 
ATOM     20  C   UNL     1      48.138   6.741  13.866  0.00  0.00    +0.000 C 
BRANCH  20  21
ATOM     21  C   UNL     1      48.643   6.372  15.249  0.00  0.00    +0.000 A 
ATOM     22  C   UNL     1      49.617   7.086  15.933  0.00  0.00    +0.000 A 
ATOM     23  S   UNL     1      49.996   6.426  17.459  0.00  0.00    +0.000 S 
ATOM     24  C   UNL     1      48.860   5.173  17.263  0.00  0.00    +0.000 A 
ATOM     25  N   UNL     1      48.674   4.238  18.233  0.00  0.00    +0.000 NA
ATOM     26  C   UNL     1      47.773   3.355  17.953  0.00  0.00    +0.000 A 
ATOM     27  N   UNL     1      47.043   3.320  16.792  0.00  0.00    +0.000 N 
ATOM     28  C   UNL     1      47.201   4.241  15.779  0.00  0.00    +0.000 A 
ATOM     29  O   UNL     1      46.530   4.177  14.752  0.00  0.00    +0.000 OA
ATOM     30  C   UNL     1      48.202   5.255  16.050  0.00  0.00    +0.000 A 
ATOM     31  H   UNL     1      46.351   2.603  16.637  0.00  0.00    +0.000 HD
ENDBRANCH  20  21
ENDBRANCH  17  20
ENDBRANCH   1  17
TORSDOF 8
ENDMDL
MODEL 2
REMARK VINA RESULT:    -7.667      2.160      2.942
REMARK INTER + INTRA:         -12.408
REMARK INTER:                 -11.822
REMARK INTRA:                  -0.585
REMARK UNBOUND:                -1.156
REMARK  Name = 
REMARK  9 active torsions:
REMARK  status: ('A' for Active; 'I' for Inactive)
REMARK    1  A    between atoms: C_1  and  C_2
REMARK    2  A    between atoms: C_2  and  N_3
REMARK    3  A    between atoms: C_2  and  C_19
REMARK    4  A    between atoms: N_3  and  C_4
REMARK    5  A    between atoms: C_4  and  C_5
REMARK    6  A    between atoms: C_8  and  C_9
REMARK    7  A    between atoms: C_9  and  O_10
REMARK    8  A    between atoms: O_10  and  C_11
REMARK    9  A    between atoms: C_11  and  C_12
REMARK                            x       y       z     vdW  Elec       q    Type
REMARK                         _______ _______ _______ _____ _____    ______ ____
ROOT
ATOM      1  C   UNL     1      47.567   5.404  14.553  0.00  0.00    +0.000 C 
ENDROOT
BRANCH   1   2
ATOM      2  C   UNL     1      46.737   5.022  13.356  0.00  0.00    +0.000 A 
ATOM      3  C   UNL     1      46.118   3.774  13.260  0.00  0.00    +0.000 A 
ATOM      4  C   UNL     1      45.270   3.499  12.190  0.00  0.00    +0.000 A 
ATOM      5  C   UNL     1      45.057   4.485  11.228  0.00  0.00    +0.000 A 
ATOM      6  N   UNL     1      45.671   5.693  11.281  0.00  0.00    +0.000 NA
ATOM      7  C   UNL     1      46.484   5.933  12.336  0.00  0.00    +0.000 A 
BRANCH   5   8
ATOM      8  C   UNL     1      44.102   4.240  10.082  0.00  0.00    +0.000 C 
BRANCH   8   9
ATOM      9  O   UNL     1      44.844   3.907   8.905  0.00  0.00    +0.000 OA
BRANCH   9  10
ATOM     10  C   UNL     1      44.862   2.499   8.684  0.00  0.00    +0.000 C 
BRANCH  10  11
ATOM     11  C   UNL     1      46.111   2.200   7.948  0.00  0.00    +0.000 A 
ATOM     12  C   UNL     1      46.794   1.026   7.714  0.00  0.00    +0.000 A 
ATOM     13  N   UNL     1      47.915   1.252   6.955  0.00  0.00    +0.000 NA
ATOM     14  C   UNL     1      47.925   2.547   6.730  0.00  0.00    +0.000 A 
ATOM     15  N   UNL     1      46.861   3.163   7.318  0.00  0.00    +0.000 N 
ATOM     16  H   UNL     1      46.639   4.150   7.305  0.00  0.00    +0.000 HD
ENDBRANCH  10  11
ENDBRANCH   9  10
ENDBRANCH   8   9
ENDBRANCH   5   8
ENDBRANCH   1   2
BRANCH   1  17
ATOM     17  N   UNL     1      47.959   4.238  15.340  0.00  0.00    +0.000 NA
ATOM     18  H   UNL     1      48.961   4.083  15.203  0.00  0.00    +0.000 HD
BRANCH  17  20
ATOM     19  C   UNL     1      46.867   3.284  17.394  0.00  0.00    +0.000 C 
ATOM     20  C   UNL     1      47.721   4.403  16.782  0.00  0.00    +0.000 C 
BRANCH  20  21
ATOM     21  C   UNL     1      49.090   4.445  17.436  0.00  0.00    +0.000 A 
ATOM     22  C   UNL     1      49.561   5.521  18.175  0.00  0.00    +0.000 A 
ATOM     23  S   UNL     1      51.141   5.294  18.774  0.00  0.00    +0.000 S 
ATOM     24  C   UNL     1      51.243   3.744  18.079  0.00  0.00    +0.000 A 
ATOM     25  N   UNL     1      52.361   2.983  18.223  0.00  0.00    +0.000 NA
ATOM     26  C   UNL     1      52.293   1.826  17.653  0.00  0.00    +0.000 A 
ATOM     27  N   UNL     1      51.211   1.361  16.950  0.00  0.00    +0.000 N 
ATOM     28  C   UNL     1      50.060   2.096  16.771  0.00  0.00    +0.000 A 
ATOM     29  O   UNL     1      49.111   1.647  16.134  0.00  0.00    +0.000 OA
ATOM     30  C   UNL     1      50.089   3.405  17.397  0.00  0.00    +0.000 A 
ATOM     31  H   UNL     1      51.222   0.443  16.530  0.00  0.00    +0.000 HD
ENDBRANCH  20  21
ENDBRANCH  17  20
ENDBRANCH   1  17
TORSDOF 8
ENDMDL
MODEL 3
REMARK VINA RESULT:    -7.287      1.678      2.004
REMARK INTER + INTRA:         -11.851
REMARK INTER:                 -10.899
REMARK INTRA:                  -0.952
REMARK UNBOUND:                -1.156
REMARK  Name = 
REMARK  9 active torsions:
REMARK  status: ('A' for Active; 'I' for Inactive)
REMARK    1  A    between atoms: C_1  and  C_2
REMARK    2  A    between atoms: C_2  and  N_3
REMARK    3  A    between atoms: C_2  and  C_19
REMARK    4  A    between atoms: N_3  and  C_4
REMARK    5  A    between atoms: C_4  and  C_5
REMARK    6  A    between atoms: C_8  and  C_9
REMARK    7  A    between atoms: C_9  and  O_10
REMARK    8  A    between atoms: O_10  and  C_11
REMARK    9  A    between atoms: C_11  and  C_12
REMARK                            x       y       z     vdW  Elec       q    Type
REMARK                         _______ _______ _______ _____ _____    ______ ____
ROOT
ATOM      1  C   UNL     1      47.575   6.540  13.844  0.00  0.00    +0.000 C 
ENDROOT
BRANCH   1   2
ATOM      2  C   UNL     1      46.602   5.680  13.082  0.00  0.00    +0.000 A 
ATOM      3  C   UNL     1      45.928   6.156  11.954  0.00  0.00    +0.000 A 
ATOM      4  C   UNL     1      45.122   5.296  11.212  0.00  0.00    +0.000 A 
ATOM      5  C   UNL     1      45.002   3.967  11.616  0.00  0.00    +0.000 A 
ATOM      6  N   UNL     1      45.620   3.490  12.725  0.00  0.00    +0.000 NA
ATOM      7  C   UNL     1      46.401   4.347  13.422  0.00  0.00    +0.000 A 
BRANCH   5   8
ATOM      8  C   UNL     1      44.178   2.995  10.804  0.00  0.00    +0.000 C 
BRANCH   8   9
ATOM      9  O   UNL     1      44.623   3.012   9.444  0.00  0.00    +0.000 OA
BRANCH   9  10
ATOM     10  C   UNL     1      44.853   1.692   8.957  0.00  0.00    +0.000 C 
BRANCH  10  11
ATOM     11  C   UNL     1      46.061   1.757   8.104  0.00  0.00    +0.000 A 
ATOM     12  C   UNL     1      46.913   0.787   7.624  0.00  0.00    +0.000 A 
ATOM     13  N   UNL     1      47.903   1.341   6.850  0.00  0.00    +0.000 NA
ATOM     14  C   UNL     1      47.666   2.633   6.860  0.00  0.00    +0.000 A 
ATOM     15  N   UNL     1      46.571   2.934   7.612  0.00  0.00    +0.000 N 
ATOM     16  H   UNL     1      46.180   3.850   7.789  0.00  0.00    +0.000 HD
ENDBRANCH  10  11
ENDBRANCH   9  10
ENDBRANCH   8   9
ENDBRANCH   5   8
ENDBRANCH   1   2
BRANCH   1  17
ATOM     17  N   UNL     1      48.180   5.820  14.962  0.00  0.00    +0.000 NA
ATOM     18  H   UNL     1      48.535   4.927  14.612  0.00  0.00    +0.000 HD
BRANCH  17  20
ATOM     19  C   UNL     1      49.622   7.878  14.896  0.00  0.00    +0.000 C 
ATOM     20  C   UNL     1      49.302   6.542  15.579  0.00  0.00    +0.000 C 
BRANCH  20  21
ATOM     21  C   UNL     1      48.916   6.766  17.030  0.00  0.00    +0.000 A 
ATOM     22  C   UNL     1      48.535   7.996  17.547  0.00  0.00    +0.000 A 
ATOM     23  S   UNL     1      48.175   7.950  19.213  0.00  0.00    +0.000 S 
ATOM     24  C   UNL     1      48.501   6.281  19.296  0.00  0.00    +0.000 A 
ATOM     25  N   UNL     1      48.376   5.599  20.466  0.00  0.00    +0.000 NA
ATOM     26  C   UNL     1      48.644   4.339  20.377  0.00  0.00    +0.000 A 
ATOM     27  N   UNL     1      49.029   3.698  19.226  0.00  0.00    +0.000 N 
ATOM     28  C   UNL     1      49.175   4.346  18.019  0.00  0.00    +0.000 A 
ATOM     29  O   UNL     1      49.522   3.740  17.009  0.00  0.00    +0.000 OA
ATOM     30  C   UNL     1      48.882   5.767  18.070  0.00  0.00    +0.000 A 
ATOM     31  H   UNL     1      49.221   2.708  19.225  0.00  0.00    +0.000 HD
ENDBRANCH  20  21
ENDBRANCH  17  20
ENDBRANCH   1  17
TORSDOF 8
ENDMDL
MODEL 4
REMARK VINA RESULT:    -6.753      3.224      7.368
REMARK INTER + INTRA:         -11.067
REMARK INTER:                 -10.130
REMARK INTRA:                  -0.937
REMARK UNBOUND:                -1.156
REMARK  Name = 
REMARK  9 active torsions:
REMARK  status: ('A' for Active; 'I' for Inactive)
REMARK    1  A    between atoms: C_1  and  C_2
REMARK    2  A    between atoms: C_2  and  N_3
REMARK    3  A    between atoms: C_2  and  C_19
REMARK    4  A    between atoms: N_3  and  C_4
REMARK    5  A    between atoms: C_4  and  C_5
REMARK    6  A    between atoms: C_8  and  C_9
REMARK    7  A    between atoms: C_9  and  O_10
REMARK    8  A    between atoms: O_10  and  C_11
REMARK    9  A    between atoms: C_11  and  C_12
REMARK                            x       y       z     vdW  Elec       q    Type
REMARK                         _______ _______ _______ _____ _____    ______ ____
ROOT
ATOM      1  C   UNL     1      48.192   8.177  12.133  0.00  0.00    +0.000 C 
ENDROOT
BRANCH   1   2
ATOM      2  C   UNL     1      48.488   7.776  13.555  0.00  0.00    +0.000 A 
ATOM      3  C   UNL     1      48.694   8.725  14.558  0.00  0.00    +0.000 A 
ATOM      4  C   UNL     1      48.854   8.316  15.880  0.00  0.00    +0.000 A 
ATOM      5  C   UNL     1      48.807   6.955  16.175  0.00  0.00    +0.000 A 
ATOM      6  N   UNL     1      48.641   6.012  15.214  0.00  0.00    +0.000 NA
ATOM      7  C   UNL     1      48.481   6.440  13.941  0.00  0.00    +0.000 A 
BRANCH   5   8
ATOM      8  C   UNL     1      48.925   6.480  17.605  0.00  0.00    +0.000 C 
BRANCH   8   9
ATOM      9  O   UNL     1      48.023   5.390  17.821  0.00  0.00    +0.000 OA
BRANCH   9  10
ATOM     10  C   UNL     1      48.591   4.411  18.688  0.00  0.00    +0.000 C 
BRANCH  10  11
ATOM     11  C   UNL     1      49.156   3.352  17.822  0.00  0.00    +0.000 A 
ATOM     12  C   UNL     1      48.658   2.684  16.724  0.00  0.00    +0.000 A 
ATOM     13  N   UNL     1      49.572   1.781  16.242  0.00  0.00    +0.000 NA
ATOM     14  C   UNL     1      50.614   1.886  17.035  0.00  0.00    +0.000 A 
ATOM     15  N   UNL     1      50.407   2.815  18.010  0.00  0.00    +0.000 N 
ATOM     16  H   UNL     1      51.043   3.082  18.749  0.00  0.00    +0.000 HD
ENDBRANCH  10  11
ENDBRANCH   9  10
ENDBRANCH   8   9
ENDBRANCH   5   8
ENDBRANCH   1   2
BRANCH   1  17
ATOM     17  N   UNL     1      47.521   7.111  11.394  0.00  0.00    +0.000 NA
ATOM     18  H   UNL     1      48.026   6.238  11.565  0.00  0.00    +0.000 HD
BRANCH  17  20
ATOM     19  C   UNL     1      45.246   8.157  11.613  0.00  0.00    +0.000 C 
ATOM     20  C   UNL     1      46.123   6.912  11.802  0.00  0.00    +0.000 C 
BRANCH  20  21
ATOM     21  C   UNL     1      45.597   5.760  10.965  0.00  0.00    +0.000 A 
ATOM     22  C   UNL     1      45.815   5.632   9.601  0.00  0.00    +0.000 A 
ATOM     23  S   UNL     1      45.089   4.246   8.924  0.00  0.00    +0.000 S 
ATOM     24  C   UNL     1      44.471   3.762  10.435  0.00  0.00    +0.000 A 
ATOM     25  N   UNL     1      43.739   2.622  10.560  0.00  0.00    +0.000 NA
ATOM     26  C   UNL     1      43.346   2.375  11.765  0.00  0.00    +0.000 A 
ATOM     27  N   UNL     1      43.616   3.162  12.856  0.00  0.00    +0.000 N 
ATOM     28  C   UNL     1      44.347   4.327  12.778  0.00  0.00    +0.000 A 
ATOM     29  O   UNL     1      44.567   5.008  13.776  0.00  0.00    +0.000 OA
ATOM     30  C   UNL     1      44.812   4.647  11.441  0.00  0.00    +0.000 A 
ATOM     31  H   UNL     1      43.280   2.908  13.773  0.00  0.00    +0.000 HD
ENDBRANCH  20  21
ENDBRANCH  17  20
ENDBRANCH   1  17
TORSDOF 8
ENDMDL
MODEL 5
REMARK VINA RESULT:    -6.559      3.863      7.498
REMARK INTER + INTRA:         -10.783
REMARK INTER:                  -9.569
REMARK INTRA:                  -1.214
REMARK UNBOUND:                -1.156
REMARK  Name = 
REMARK  9 active torsions:
REMARK  status: ('A' for Active; 'I' for Inactive)
REMARK    1  A    between atoms: C_1  and  C_2
REMARK    2  A    between atoms: C_2  and  N_3
REMARK    3  A    between atoms: C_2  and  C_19
REMARK    4  A    between atoms: N_3  and  C_4
REMARK    5  A    between atoms: C_4  and  C_5
REMARK    6  A    between atoms: C_8  and  C_9
REMARK    7  A    between atoms: C_9  and  O_10
REMARK    8  A    between atoms: O_10  and  C_11
REMARK    9  A    between atoms: C_11  and  C_12
REMARK                            x       y       z     vdW  Elec       q    Type
REMARK                         _______ _______ _______ _____ _____    ______ ____
ROOT
ATOM      1  C   UNL     1      48.447   9.343  13.986  0.00  0.00    +0.000 C 
ENDROOT
BRANCH   1   2
ATOM      2  C   UNL     1      48.683   8.613  15.282  0.00  0.00    +0.000 A 
ATOM      3  C   UNL     1      48.178   9.087  16.494  0.00  0.00    +0.000 A 
ATOM      4  C   UNL     1      48.323   8.327  17.653  0.00  0.00    +0.000 A 
ATOM      5  C   UNL     1      48.978   7.099  17.576  0.00  0.00    +0.000 A 
ATOM      6  N   UNL     1      49.506   6.632  16.417  0.00  0.00    +0.000 NA
ATOM      7  C   UNL     1      49.343   7.389  15.307  0.00  0.00    +0.000 A 
BRANCH   5   8
ATOM      8  C   UNL     1      49.106   6.225  18.802  0.00  0.00    +0.000 C 
BRANCH   8   9
ATOM      9  O   UNL     1      48.127   5.183  18.750  0.00  0.00    +0.000 OA
BRANCH   9  10
ATOM     10  C   UNL     1      48.640   3.962  19.279  0.00  0.00    +0.000 C 
BRANCH  10  11
ATOM     11  C   UNL     1      49.094   3.156  18.124  0.00  0.00    +0.000 A 
ATOM     12  C   UNL     1      48.475   2.779  16.952  0.00  0.00    +0.000 A 
ATOM     13  N   UNL     1      49.318   2.030  16.169  0.00  0.00    +0.000 NA
ATOM     14  C   UNL     1      50.436   1.940  16.853  0.00  0.00    +0.000 A 
ATOM     15  N   UNL     1      50.346   2.596  18.044  0.00  0.00    +0.000 N 
ATOM     16  H   UNL     1      51.059   2.674  18.757  0.00  0.00    +0.000 HD
ENDBRANCH  10  11
ENDBRANCH   9  10
ENDBRANCH   8   9
ENDBRANCH   5   8
ENDBRANCH   1   2
BRANCH   1  17
ATOM     17  N   UNL     1      47.115   9.081  13.447  0.00  0.00    +0.000 NA
ATOM     18  H   UNL     1      46.678   9.978  13.224  0.00  0.00    +0.000 HD
BRANCH  17  20
ATOM     19  C   UNL     1      48.547   7.928  11.733  0.00  0.00    +0.000 C 
ATOM     20  C   UNL     1      47.133   8.269  12.222  0.00  0.00    +0.000 C 
BRANCH  20  21
ATOM     21  C   UNL     1      46.360   7.002  12.540  0.00  0.00    +0.000 A 
ATOM     22  C   UNL     1      46.884   5.938  13.261  0.00  0.00    +0.000 A 
ATOM     23  S   UNL     1      45.792   4.642  13.448  0.00  0.00    +0.000 S 
ATOM     24  C   UNL     1      44.577   5.466  12.585  0.00  0.00    +0.000 A 
ATOM     25  N   UNL     1      43.357   4.902  12.382  0.00  0.00    +0.000 NA
ATOM     26  C   UNL     1      42.532   5.645  11.722  0.00  0.00    +0.000 A 
ATOM     27  N   UNL     1      42.817   6.899  11.243  0.00  0.00    +0.000 N 
ATOM     28  C   UNL     1      44.040   7.509  11.418  0.00  0.00    +0.000 A 
ATOM     29  O   UNL     1      44.260   8.633  10.974  0.00  0.00    +0.000 OA
ATOM     30  C   UNL     1      45.000   6.711  12.157  0.00  0.00    +0.000 A 
ATOM     31  H   UNL     1      42.124   7.429  10.736  0.00  0.00    +0.000 HD
ENDBRANCH  20  21
ENDBRANCH  17  20
ENDBRANCH   1  17
TORSDOF 8
ENDMDL
MODEL 6
REMARK VINA RESULT:    -6.400      2.819      4.085
REMARK INTER + INTRA:         -10.548
REMARK INTER:                  -9.632
REMARK INTRA:                  -0.916
REMARK UNBOUND:                -1.156
REMARK  Name = 
REMARK  9 active torsions:
REMARK  status: ('A' for Active; 'I' for Inactive)
REMARK    1  A    between atoms: C_1  and  C_2
REMARK    2  A    between atoms: C_2  and  N_3
REMARK    3  A    between atoms: C_2  and  C_19
REMARK    4  A    between atoms: N_3  and  C_4
REMARK    5  A    between atoms: C_4  and  C_5
REMARK    6  A    between atoms: C_8  and  C_9
REMARK    7  A    between atoms: C_9  and  O_10
REMARK    8  A    between atoms: O_10  and  C_11
REMARK    9  A    between atoms: C_11  and  C_12
REMARK                            x       y       z     vdW  Elec       q    Type
REMARK                         _______ _______ _______ _____ _____    ______ ____
ROOT
ATOM      1  C   UNL     1      47.472   6.622  13.509  0.00  0.00    +0.000 C 
ENDROOT
BRANCH   1   2
ATOM      2  C   UNL     1      46.490   5.893  12.630  0.00  0.00    +0.000 A 
ATOM      3  C   UNL     1      46.318   6.230  11.285  0.00  0.00    +0.000 A 
ATOM      4  C   UNL     1      45.484   5.461  10.478  0.00  0.00    +0.000 A 
ATOM      5  C   UNL     1      44.830   4.364  11.035  0.00  0.00    +0.000 A 
ATOM      6  N   UNL     1      44.955   4.036  12.345  0.00  0.00    +0.000 NA
ATOM      7  C   UNL     1      45.778   4.797  13.103  0.00  0.00    +0.000 A 
BRANCH   5   8
ATOM      8  C   UNL     1      43.959   3.477  10.175  0.00  0.00    +0.000 C 
BRANCH   8   9
ATOM      9  O   UNL     1      44.639   3.183   8.951  0.00  0.00    +0.000 OA
BRANCH   9  10
ATOM     10  C   UNL     1      45.212   1.877   8.977  0.00  0.00    +0.000 C 
BRANCH  10  11
ATOM     11  C   UNL     1      46.323   1.881   7.999  0.00  0.00    +0.000 A 
ATOM     12  C   UNL     1      47.058   0.867   7.424  0.00  0.00    +0.000 A 
ATOM     13  N   UNL     1      47.990   1.371   6.551  0.00  0.00    +0.000 NA
ATOM     14  C   UNL     1      47.837   2.675   6.595  0.00  0.00    +0.000 A 
ATOM     15  N   UNL     1      46.848   3.031   7.462  0.00  0.00    +0.000 N 
ATOM     16  H   UNL     1      46.536   3.967   7.686  0.00  0.00    +0.000 HD
ENDBRANCH  10  11
ENDBRANCH   9  10
ENDBRANCH   8   9
ENDBRANCH   5   8
ENDBRANCH   1   2
BRANCH   1  17
ATOM     17  N   UNL     1      47.091   8.018  13.712  0.00  0.00    +0.000 NA
ATOM     18  H   UNL     1      47.460   8.321  14.616  0.00  0.00    +0.000 HD
BRANCH  17  20
ATOM     19  C   UNL     1      46.650  10.039  12.282  0.00  0.00    +0.000 C 
ATOM     20  C   UNL     1      47.624   8.921  12.681  0.00  0.00    +0.000 C 
BRANCH  20  21
ATOM     21  C   UNL     1      48.903   9.507  13.250  0.00  0.00    +0.000 A 
ATOM     22  C   UNL     1      48.933  10.491  14.228  0.00  0.00    +0.000 A 
ATOM     23  S   UNL     1      50.512  10.970  14.660  0.00  0.00    +0.000 S 
ATOM     24  C   UNL     1      51.208   9.867  13.565  0.00  0.00    +0.000 A 
ATOM     25  N   UNL     1      52.557   9.762  13.439  0.00  0.00    +0.000 NA
ATOM     26  C   UNL     1      52.942   8.877  12.581  0.00  0.00    +0.000 A 
ATOM     27  N   UNL     1      52.102   8.090  11.835  0.00  0.00    +0.000 N 
ATOM     28  C   UNL     1      50.729   8.165  11.922  0.00  0.00    +0.000 A 
ATOM     29  O   UNL     1      50.007   7.445  11.237  0.00  0.00    +0.000 OA
ATOM     30  C   UNL     1      50.249   9.146  12.878  0.00  0.00    +0.000 A 
ATOM     31  H   UNL     1      52.469   7.414  11.182  0.00  0.00    +0.000 HD
ENDBRANCH  20  21
ENDBRANCH  17  20
ENDBRANCH   1  17
TORSDOF 8
ENDMDL
MODEL 7
REMARK VINA RESULT:    -6.177      3.034      8.502
REMARK INTER + INTRA:         -10.222
REMARK INTER:                  -9.453
REMARK INTRA:                  -0.770
REMARK UNBOUND:                -1.156
REMARK  Name = 
REMARK  9 active torsions:
REMARK  status: ('A' for Active; 'I' for Inactive)
REMARK    1  A    between atoms: C_1  and  C_2
REMARK    2  A    between atoms: C_2  and  N_3
REMARK    3  A    between atoms: C_2  and  C_19
REMARK    4  A    between atoms: N_3  and  C_4
REMARK    5  A    between atoms: C_4  and  C_5
REMARK    6  A    between atoms: C_8  and  C_9
REMARK    7  A    between atoms: C_9  and  O_10
REMARK    8  A    between atoms: O_10  and  C_11
REMARK    9  A    between atoms: C_11  and  C_12
REMARK                            x       y       z     vdW  Elec       q    Type
REMARK                         _______ _______ _______ _____ _____    ______ ____
ROOT
ATOM      1  C   UNL     1      46.617   4.255  14.309  0.00  0.00    +0.000 C 
ENDROOT
BRANCH   1   2
ATOM      2  C   UNL     1      47.314   4.668  15.579  0.00  0.00    +0.000 A 
ATOM      3  C   UNL     1      47.115   3.986  16.781  0.00  0.00    +0.000 A 
ATOM      4  C   UNL     1      47.861   4.329  17.906  0.00  0.00    +0.000 A 
ATOM      5  C   UNL     1      48.798   5.357  17.807  0.00  0.00    +0.000 A 
ATOM      6  N   UNL     1      48.986   6.055  16.660  0.00  0.00    +0.000 NA
ATOM      7  C   UNL     1      48.252   5.695  15.582  0.00  0.00    +0.000 A 
BRANCH   5   8
ATOM      8  C   UNL     1      49.661   5.719  18.994  0.00  0.00    +0.000 C 
BRANCH   8   9
ATOM      9  O   UNL     1      50.398   4.567  19.416  0.00  0.00    +0.000 OA
BRANCH   9  10
ATOM     10  C   UNL     1      51.625   4.445  18.701  0.00  0.00    +0.000 C 
BRANCH  10  11
ATOM     11  C   UNL     1      51.673   3.064  18.171  0.00  0.00    +0.000 A 
ATOM     12  C   UNL     1      50.847   2.366  17.318  0.00  0.00    +0.000 A 
ATOM     13  N   UNL     1      51.319   1.094  17.108  0.00  0.00    +0.000 NA
ATOM     14  C   UNL     1      52.415   1.008  17.827  0.00  0.00    +0.000 A 
ATOM     15  N   UNL     1      52.665   2.169  18.495  0.00  0.00    +0.000 N 
ATOM     16  H   UNL     1      53.436   2.364  19.120  0.00  0.00    +0.000 HD
ENDBRANCH  10  11
ENDBRANCH   9  10
ENDBRANCH   8   9
ENDBRANCH   5   8
ENDBRANCH   1   2
BRANCH   1  17
ATOM     17  N   UNL     1      45.521   5.158  13.969  0.00  0.00    +0.000 NA
ATOM     18  H   UNL     1      45.922   6.014  13.578  0.00  0.00    +0.000 HD
BRANCH  17  20
ATOM     19  C   UNL     1      43.154   5.110  13.122  0.00  0.00    +0.000 C 
ATOM     20  C   UNL     1      44.594   4.598  12.975  0.00  0.00    +0.000 C 
BRANCH  20  21
ATOM     21  C   UNL     1      45.154   4.971  11.615  0.00  0.00    +0.000 A 
ATOM     22  C   UNL     1      45.963   6.075  11.388  0.00  0.00    +0.000 A 
ATOM     23  S   UNL     1      46.428   6.254   9.757  0.00  0.00    +0.000 S 
ATOM     24  C   UNL     1      45.575   4.852   9.302  0.00  0.00    +0.000 A 
ATOM     25  N   UNL     1      45.566   4.426   8.010  0.00  0.00    +0.000 NA
ATOM     26  C   UNL     1      44.889   3.344   7.814  0.00  0.00    +0.000 A 
ATOM     27  N   UNL     1      44.218   2.650   8.789  0.00  0.00    +0.000 N 
ATOM     28  C   UNL     1      44.193   3.045  10.108  0.00  0.00    +0.000 A 
ATOM     29  O   UNL     1      43.580   2.400  10.954  0.00  0.00    +0.000 OA
ATOM     30  C   UNL     1      44.943   4.258  10.378  0.00  0.00    +0.000 A 
ATOM     31  H   UNL     1      43.709   1.808   8.567  0.00  0.00    +0.000 HD
ENDBRANCH  20  21
ENDBRANCH  17  20
ENDBRANCH   1  17
TORSDOF 8
ENDMDL
MODEL 8
REMARK VINA RESULT:    -5.920      2.736      7.855
REMARK INTER + INTRA:          -9.845
REMARK INTER:                  -9.027
REMARK INTRA:                  -0.818
REMARK UNBOUND:                -1.156
REMARK  Name = 
REMARK  9 active torsions:
REMARK  status: ('A' for Active; 'I' for Inactive)
REMARK    1  A    between atoms: C_1  and  C_2
REMARK    2  A    between atoms: C_2  and  N_3
REMARK    3  A    between atoms: C_2  and  C_19
REMARK    4  A    between atoms: N_3  and  C_4
REMARK    5  A    between atoms: C_4  and  C_5
REMARK    6  A    between atoms: C_8  and  C_9
REMARK    7  A    between atoms: C_9  and  O_10
REMARK    8  A    between atoms: O_10  and  C_11
REMARK    9  A    between atoms: C_11  and  C_12
REMARK                            x       y       z     vdW  Elec       q    Type
REMARK                         _______ _______ _______ _____ _____    ______ ____
ROOT
ATOM      1  C   UNL     1      47.976   7.641  11.951  0.00  0.00    +0.000 C 
ENDROOT
BRANCH   1   2
ATOM      2  C   UNL     1      48.306   7.590  13.420  0.00  0.00    +0.000 A 
ATOM      3  C   UNL     1      48.268   8.732  14.222  0.00  0.00    +0.000 A 
ATOM      4  C   UNL     1      48.470   8.625  15.596  0.00  0.00    +0.000 A 
ATOM      5  C   UNL     1      48.709   7.366  16.145  0.00  0.00    +0.000 A 
ATOM      6  N   UNL     1      48.783   6.247  15.384  0.00  0.00    +0.000 NA
ATOM      7  C   UNL     1      48.576   6.382  14.054  0.00  0.00    +0.000 A 
BRANCH   5   8
ATOM      8  C   UNL     1      48.881   7.206  17.638  0.00  0.00    +0.000 C 
BRANCH   8   9
ATOM      9  O   UNL     1      48.228   6.007  18.068  0.00  0.00    +0.000 OA
BRANCH   9  10
ATOM     10  C   UNL     1      49.017   5.300  19.021  0.00  0.00    +0.000 C 
BRANCH  10  11
ATOM     11  C   UNL     1      49.726   4.233  18.280  0.00  0.00    +0.000 A 
ATOM     12  C   UNL     1      50.976   4.174  17.704  0.00  0.00    +0.000 A 
ATOM     13  N   UNL     1      51.196   2.946  17.131  0.00  0.00    +0.000 NA
ATOM     14  C   UNL     1      50.095   2.263  17.344  0.00  0.00    +0.000 A 
ATOM     15  N   UNL     1      49.174   3.000  18.026  0.00  0.00    +0.000 N 
ATOM     16  H   UNL     1      48.246   2.715  18.309  0.00  0.00    +0.000 HD
ENDBRANCH  10  11
ENDBRANCH   9  10
ENDBRANCH   8   9
ENDBRANCH   5   8
ENDBRANCH   1   2
BRANCH   1  17
ATOM     17  N   UNL     1      47.061   6.573  11.559  0.00  0.00    +0.000 NA
ATOM     18  H   UNL     1      47.423   5.691  11.929  0.00  0.00    +0.000 HD
BRANCH  17  20
ATOM     19  C   UNL     1      44.903   7.846  11.347  0.00  0.00    +0.000 C 
ATOM     20  C   UNL     1      45.698   6.756  12.079  0.00  0.00    +0.000 C 
BRANCH  20  21
ATOM     21  C   UNL     1      45.007   5.411  11.941  0.00  0.00    +0.000 A 
ATOM     22  C   UNL     1      44.324   4.784  12.973  0.00  0.00    +0.000 A 
ATOM     23  S   UNL     1      43.664   3.274  12.531  0.00  0.00    +0.000 S 
ATOM     24  C   UNL     1      44.257   3.416  10.941  0.00  0.00    +0.000 A 
ATOM     25  N   UNL     1      44.031   2.442  10.020  0.00  0.00    +0.000 NA
ATOM     26  C   UNL     1      44.528   2.690   8.854  0.00  0.00    +0.000 A 
ATOM     27  N   UNL     1      45.233   3.820   8.525  0.00  0.00    +0.000 N 
ATOM     28  C   UNL     1      45.492   4.830   9.425  0.00  0.00    +0.000 A 
ATOM     29  O   UNL     1      46.128   5.828   9.096  0.00  0.00    +0.000 OA
ATOM     30  C   UNL     1      44.950   4.597  10.751  0.00  0.00    +0.000 A 
ATOM     31  H   UNL     1      45.593   3.953   7.592  0.00  0.00    +0.000 HD
ENDBRANCH  20  21
ENDBRANCH  17  20
ENDBRANCH   1  17
TORSDOF 8
ENDMDL
MODEL 9
REMARK VINA RESULT:    -5.777      3.571      7.584
REMARK INTER + INTRA:          -9.634
REMARK INTER:                  -8.283
REMARK INTRA:                  -1.351
REMARK UNBOUND:                -1.156
REMARK  Name = 
REMARK  9 active torsions:
REMARK  status: ('A' for Active; 'I' for Inactive)
REMARK    1  A    between atoms: C_1  and  C_2
REMARK    2  A    between atoms: C_2  and  N_3
REMARK    3  A    between atoms: C_2  and  C_19
REMARK    4  A    between atoms: N_3  and  C_4
REMARK    5  A    between atoms: C_4  and  C_5
REMARK    6  A    between atoms: C_8  and  C_9
REMARK    7  A    between atoms: C_9  and  O_10
REMARK    8  A    between atoms: O_10  and  C_11
REMARK    9  A    between atoms: C_11  and  C_12
REMARK                            x       y       z     vdW  Elec       q    Type
REMARK                         _______ _______ _______ _____ _____    ______ ____
ROOT
ATOM      1  C   UNL     1      48.129   9.103  14.553  0.00  0.00    +0.000 C 
ENDROOT
BRANCH   1   2
ATOM      2  C   UNL     1      48.533   8.619  15.921  0.00  0.00    +0.000 A 
ATOM      3  C   UNL     1      47.920   9.098  17.080  0.00  0.00    +0.000 A 
ATOM      4  C   UNL     1      48.244   8.545  18.317  0.00  0.00    +0.000 A 
ATOM      5  C   UNL     1      49.183   7.517  18.371  0.00  0.00    +0.000 A 
ATOM      6  N   UNL     1      49.816   7.056  17.263  0.00  0.00    +0.000 NA
ATOM      7  C   UNL     1      49.476   7.608  16.076  0.00  0.00    +0.000 A 
BRANCH   5   8
ATOM      8  C   UNL     1      49.518   6.858  19.689  0.00  0.00    +0.000 C 
BRANCH   8   9
ATOM      9  O   UNL     1      48.573   5.819  19.958  0.00  0.00    +0.000 OA
BRANCH   9  10
ATOM     10  C   UNL     1      49.127   4.532  19.694  0.00  0.00    +0.000 C 
BRANCH  10  11
ATOM     11  C   UNL     1      48.470   4.029  18.466  0.00  0.00    +0.000 A 
ATOM     12  C   UNL     1      47.316   4.399  17.811  0.00  0.00    +0.000 A 
ATOM     13  N   UNL     1      47.122   3.636  16.687  0.00  0.00    +0.000 NA
ATOM     14  C   UNL     1      48.138   2.803  16.655  0.00  0.00    +0.000 A 
ATOM     15  N   UNL     1      48.974   2.996  17.714  0.00  0.00    +0.000 N 
ATOM     16  H   UNL     1      49.820   2.486  17.928  0.00  0.00    +0.000 HD
ENDBRANCH  10  11
ENDBRANCH   9  10
ENDBRANCH   8   9
ENDBRANCH   5   8
ENDBRANCH   1   2
BRANCH   1  17
ATOM     17  N   UNL     1      46.994   8.353  14.022  0.00  0.00    +0.000 NA
ATOM     18  H   UNL     1      46.134   8.800  14.350  0.00  0.00    +0.000 HD
BRANCH  17  20
ATOM     19  C   UNL     1      48.313   8.018  11.908  0.00  0.00    +0.000 C 
ATOM     20  C   UNL     1      46.954   8.323  12.553  0.00  0.00    +0.000 C 
BRANCH  20  21
ATOM     21  C   UNL     1      45.938   7.259  12.178  0.00  0.00    +0.000 A 
ATOM     22  C   UNL     1      44.804   7.507  11.417  0.00  0.00    +0.000 A 
ATOM     23  S   UNL     1      43.837   6.125  11.170  0.00  0.00    +0.000 S 
ATOM     24  C   UNL     1      44.908   5.145  12.059  0.00  0.00    +0.000 A 
ATOM     25  N   UNL     1      44.666   3.818  12.231  0.00  0.00    +0.000 NA
ATOM     26  C   UNL     1      45.569   3.199  12.916  0.00  0.00    +0.000 A 
ATOM     27  N   UNL     1      46.691   3.785  13.447  0.00  0.00    +0.000 N 
ATOM     28  C   UNL     1      46.975   5.125  13.305  0.00  0.00    +0.000 A 
ATOM     29  O   UNL     1      47.988   5.616  13.796  0.00  0.00    +0.000 OA
ATOM     30  C   UNL     1      45.988   5.863  12.539  0.00  0.00    +0.000 A 
ATOM     31  H   UNL     1      47.359   3.241  13.971  0.00  0.00    +0.000 HD
ENDBRANCH  20  21
ENDBRANCH  17  20
ENDBRANCH   1  17
TORSDOF 8
ENDMDL
