MODEL 1
REMARK VINA RESULT:    -7.513      0.000      0.000
REMARK INTER + INTRA:         -10.412
REMARK INTER:                  -9.709
REMARK INTRA:                  -0.703
REMARK UNBOUND:                -0.703
REMARK  Name = 
REMARK  6 active torsions:
REMARK  status: ('A' for Active; 'I' for Inactive)
REMARK    1  A    between atoms: N_1  and  C_2
REMARK    2  A    between atoms: C_2  and  C_3
REMARK    3  A    between atoms: C_6  and  O_7
REMARK    4  A    between atoms: O_7  and  C_8
REMARK    5  A    between atoms: C_8  and  C_9
REMARK    6  A    between atoms: C_9  and  N_10
REMARK                            x       y       z     vdW  Elec       q    Type
REMARK                         _______ _______ _______ _____ _____    ______ ____
ROOT
ATOM      1  O   UNL     1      43.553   3.622  10.122  0.00  0.00    +0.000 OA
ENDROOT
BRANCH   1   5
ATOM      2  C   UNL     1      46.474   2.373   7.490  0.00  0.00    +0.000 A 
ATOM      3  C   UNL     1      46.059   3.707   7.499  0.00  0.00    +0.000 A 
ATOM      4  C   UNL     1      45.079   4.122   8.397  0.00  0.00    +0.000 A 
ATOM      5  C   UNL     1      44.536   3.182   9.258  0.00  0.00    +0.000 A 
ATOM      6  N   UNL     1      44.917   1.887   9.283  0.00  0.00    +0.000 NA
ATOM      7  C   UNL     1      45.871   1.516   8.402  0.00  0.00    +0.000 A 
BRANCH   2   8
ATOM      8  C   UNL     1      47.494   1.860   6.516  0.00  0.00    +0.000 C 
BRANCH   8   9
ATOM      9  N   UNL     1      48.665   2.726   6.443  0.00  0.00    +0.000 NA
ATOM     10  H   UNL     1      49.091   2.634   5.523  0.00  0.00    +0.000 HD
ATOM     11  H   UNL     1      49.361   2.401   7.113  0.00  0.00    +0.000 HD
ENDBRANCH   8   9
ENDBRANCH   2   8
ENDBRANCH   1   5
BRANCH   1  12
ATOM     12  C   UNL     1      43.825   4.936  10.646  0.00  0.00    +0.000 C 
BRANCH  12  13
ATOM     13  C   UNL     1      43.691   4.928  12.196  0.00  0.00    +0.000 C 
ATOM     14  C   UNL     1      44.791   5.782  12.866  0.00  0.00    +0.000 C 
ATOM     15  C   UNL     1      46.170   5.141  12.699  0.00  0.00    +0.000 C 
ATOM     16  C   UNL     1      46.174   3.692  13.186  0.00  0.00    +0.000 C 
ATOM     17  N   UNL     1      45.134   2.888  12.543  0.00  0.00    +0.000 NA
ATOM     18  C   UNL     1      43.800   3.473  12.730  0.00  0.00    +0.000 C 
ATOM     19  H   UNL     1      45.142   1.946  12.939  0.00  0.00    +0.000 HD
BRANCH  13  20
ATOM     20  N   UNL     1      42.368   5.491  12.565  0.00  0.00    +0.000 NA
ATOM     21  H   UNL     1      42.026   4.983  13.383  0.00  0.00    +0.000 HD
ATOM     22  H   UNL     1      41.697   5.326  11.818  0.00  0.00    +0.000 HD
ENDBRANCH  13  20
ENDBRANCH  12  13
ENDBRANCH   1  12
TORSDOF 6
ENDMDL
MODEL 2
REMARK VINA RESULT:    -6.350      1.466      1.967
REMARK INTER + INTRA:          -8.909
REMARK INTER:                  -8.598
REMARK INTRA:                  -0.311
REMARK UNBOUND:                -0.703
REMARK  Name = 
REMARK  6 active torsions:
REMARK  status: ('A' for Active; 'I' for Inactive)
REMARK    1  A    between atoms: N_1  and  C_2
REMARK    2  A    between atoms: C_2  and  C_3
REMARK    3  A    between atoms: C_6  and  O_7
REMARK    4  A    between atoms: O_7  and  C_8
REMARK    5  A    between atoms: C_8  and  C_9
REMARK    6  A    between atoms: C_9  and  N_10
REMARK                            x       y       z     vdW  Elec       q    Type
REMARK                         _______ _______ _______ _____ _____    ______ ____
ROOT
ATOM      1  O   UNL     1      44.255   3.781  10.380  0.00  0.00    +0.000 OA
ENDROOT
BRANCH   1   5
ATOM      2  C   UNL     1      46.498   2.726   7.082  0.00  0.00    +0.000 A 
ATOM      3  C   UNL     1      46.094   1.751   8.000  0.00  0.00    +0.000 A 
ATOM      4  C   UNL     1      45.329   2.116   9.105  0.00  0.00    +0.000 A 
ATOM      5  C   UNL     1      44.997   3.452   9.264  0.00  0.00    +0.000 A 
ATOM      6  N   UNL     1      45.364   4.418   8.395  0.00  0.00    +0.000 NA
ATOM      7  C   UNL     1      46.102   4.034   7.332  0.00  0.00    +0.000 A 
BRANCH   2   8
ATOM      8  C   UNL     1      47.359   2.398   5.897  0.00  0.00    +0.000 C 
BRANCH   8   9
ATOM      9  N   UNL     1      48.680   1.923   6.295  0.00  0.00    +0.000 NA
ATOM     10  H   UNL     1      48.863   2.216   7.253  0.00  0.00    +0.000 HD
ATOM     11  H   UNL     1      49.384   2.379   5.718  0.00  0.00    +0.000 HD
ENDBRANCH   8   9
ENDBRANCH   2   8
ENDBRANCH   1   5
BRANCH   1  12
ATOM     12  C   UNL     1      44.946   3.492  11.609  0.00  0.00    +0.000 C 
BRANCH  12  13
ATOM     13  C   UNL     1      44.587   4.558  12.684  0.00  0.00    +0.000 C 
ATOM     14  C   UNL     1      44.267   5.928  12.042  0.00  0.00    +0.000 C 
ATOM     15  C   UNL     1      45.517   6.558  11.426  0.00  0.00    +0.000 C 
ATOM     16  C   UNL     1      46.658   6.638  12.440  0.00  0.00    +0.000 C 
ATOM     17  N   UNL     1      46.960   5.338  13.039  0.00  0.00    +0.000 NA
ATOM     18  C   UNL     1      45.775   4.739  13.668  0.00  0.00    +0.000 C 
ATOM     19  H   UNL     1      47.690   5.452  13.745  0.00  0.00    +0.000 HD
BRANCH  13  20
ATOM     20  N   UNL     1      43.392   4.099  13.434  0.00  0.00    +0.000 NA
ATOM     21  H   UNL     1      42.703   4.855  13.423  0.00  0.00    +0.000 HD
ATOM     22  H   UNL     1      43.631   3.937  14.409  0.00  0.00    +0.000 HD
ENDBRANCH  13  20
ENDBRANCH  12  13
ENDBRANCH   1  12
TORSDOF 6
ENDMDL
MODEL 3
REMARK VINA RESULT:    -6.262      3.874      6.211
REMARK INTER + INTRA:          -8.796
REMARK INTER:                  -8.227
REMARK INTRA:                  -0.568
REMARK UNBOUND:                -0.703
REMARK  Name = 
REMARK  6 active torsions:
REMARK  status: ('A' for Active; 'I' for Inactive)
REMARK    1  A    between atoms: N_1  and  C_2
REMARK    2  A    between atoms: C_2  and  C_3
REMARK    3  A    between atoms: C_6  and  O_7
REMARK    4  A    between atoms: O_7  and  C_8
REMARK    5  A    between atoms: C_8  and  C_9
REMARK    6  A    between atoms: C_9  and  N_10
REMARK                            x       y       z     vdW  Elec       q    Type
REMARK                         _______ _______ _______ _____ _____    ______ ____
ROOT
ATOM      1  O   UNL     1      47.554   3.336  14.523  0.00  0.00    +0.000 OA
ENDROOT
BRANCH   1   5
ATOM      2  C   UNL     1      44.604   4.899  12.098  0.00  0.00    +0.000 A 
ATOM      3  C   UNL     1      45.348   5.739  12.932  0.00  0.00    +0.000 A 
ATOM      4  C   UNL     1      46.348   5.204  13.740  0.00  0.00    +0.000 A 
ATOM      5  C   UNL     1      46.569   3.836  13.695  0.00  0.00    +0.000 A 
ATOM      6  N   UNL     1      45.875   2.997  12.897  0.00  0.00    +0.000 NA
ATOM      7  C   UNL     1      44.914   3.545  12.123  0.00  0.00    +0.000 A 
BRANCH   2   8
ATOM      8  C   UNL     1      43.487   5.413  11.238  0.00  0.00    +0.000 C 
BRANCH   8   9
ATOM      9  N   UNL     1      42.376   5.926  12.033  0.00  0.00    +0.000 NA
ATOM     10  H   UNL     1      42.607   5.839  13.021  0.00  0.00    +0.000 HD
ATOM     11  H   UNL     1      41.558   5.338  11.878  0.00  0.00    +0.000 HD
ENDBRANCH   8   9
ENDBRANCH   2   8
ENDBRANCH   1   5
BRANCH   1  12
ATOM     12  C   UNL     1      47.761   4.152  15.691  0.00  0.00    +0.000 C 
BRANCH  12  13
ATOM     13  C   UNL     1      47.864   3.252  16.956  0.00  0.00    +0.000 C 
ATOM     14  C   UNL     1      48.755   3.896  18.042  0.00  0.00    +0.000 C 
ATOM     15  C   UNL     1      50.221   3.937  17.605  0.00  0.00    +0.000 C 
ATOM     16  C   UNL     1      50.716   2.553  17.185  0.00  0.00    +0.000 C 
ATOM     17  N   UNL     1      49.872   1.952  16.153  0.00  0.00    +0.000 NA
ATOM     18  C   UNL     1      48.467   1.872  16.576  0.00  0.00    +0.000 C 
ATOM     19  H   UNL     1      50.211   1.011  15.945  0.00  0.00    +0.000 HD
BRANCH  13  20
ATOM     20  N   UNL     1      46.504   3.058  17.517  0.00  0.00    +0.000 NA
ATOM     21  H   UNL     1      46.514   2.206  18.082  0.00  0.00    +0.000 HD
ATOM     22  H   UNL     1      45.835   2.903  16.767  0.00  0.00    +0.000 HD
ENDBRANCH  13  20
ENDBRANCH  12  13
ENDBRANCH   1  12
TORSDOF 6
ENDMDL
MODEL 4
REMARK VINA RESULT:    -5.875      2.715      5.919
REMARK INTER + INTRA:          -8.296
REMARK INTER:                  -7.912
REMARK INTRA:                  -0.384
REMARK UNBOUND:                -0.703
REMARK  Name = 
REMARK  6 active torsions:
REMARK  status: ('A' for Active; 'I' for Inactive)
REMARK    1  A    between atoms: N_1  and  C_2
REMARK    2  A    between atoms: C_2  and  C_3
REMARK    3  A    between atoms: C_6  and  O_7
REMARK    4  A    between atoms: O_7  and  C_8
REMARK    5  A    between atoms: C_8  and  C_9
REMARK    6  A    between atoms: C_9  and  N_10
REMARK                            x       y       z     vdW  Elec       q    Type
REMARK                         _______ _______ _______ _____ _____    ______ ____
ROOT
ATOM      1  O   UNL     1      44.947   3.875  12.905  0.00  0.00    +0.000 OA
ENDROOT
BRANCH   1   5
ATOM      2  C   UNL     1      47.972   6.092  14.622  0.00  0.00    +0.000 A 
ATOM      3  C   UNL     1      47.378   6.517  13.431  0.00  0.00    +0.000 A 
ATOM      4  C   UNL     1      46.351   5.767  12.863  0.00  0.00    +0.000 A 
ATOM      5  C   UNL     1      45.954   4.604  13.504  0.00  0.00    +0.000 A 
ATOM      6  N   UNL     1      46.500   4.168  14.659  0.00  0.00    +0.000 NA
ATOM      7  C   UNL     1      47.491   4.917  15.187  0.00  0.00    +0.000 A 
BRANCH   2   8
ATOM      8  C   UNL     1      49.112   6.836  15.256  0.00  0.00    +0.000 C 
BRANCH   8   9
ATOM      9  N   UNL     1      49.876   5.994  16.169  0.00  0.00    +0.000 NA
ATOM     10  H   UNL     1      49.875   5.038  15.818  0.00  0.00    +0.000 HD
ATOM     11  H   UNL     1      49.403   5.967  17.071  0.00  0.00    +0.000 HD
ENDBRANCH   8   9
ENDBRANCH   2   8
ENDBRANCH   1   5
BRANCH   1  12
ATOM     12  C   UNL     1      45.366   3.263  11.671  0.00  0.00    +0.000 C 
BRANCH  12  13
ATOM     13  C   UNL     1      44.172   3.202  10.675  0.00  0.00    +0.000 C 
ATOM     14  C   UNL     1      44.392   2.123   9.589  0.00  0.00    +0.000 C 
ATOM     15  C   UNL     1      45.529   2.512   8.643  0.00  0.00    +0.000 C 
ATOM     16  C   UNL     1      45.310   3.904   8.051  0.00  0.00    +0.000 C 
ATOM     17  N   UNL     1      45.109   4.921   9.084  0.00  0.00    +0.000 NA
ATOM     18  C   UNL     1      43.994   4.578   9.977  0.00  0.00    +0.000 C 
ATOM     19  H   UNL     1      44.915   5.820   8.640  0.00  0.00    +0.000 HD
BRANCH  13  20
ATOM     20  N   UNL     1      42.938   2.867  11.427  0.00  0.00    +0.000 NA
ATOM     21  H   UNL     1      42.291   3.654  11.339  0.00  0.00    +0.000 HD
ATOM     22  H   UNL     1      43.147   2.773  12.419  0.00  0.00    +0.000 HD
ENDBRANCH  13  20
ENDBRANCH  12  13
ENDBRANCH   1  12
TORSDOF 6
ENDMDL
MODEL 5
REMARK VINA RESULT:    -5.548      3.777      7.180
REMARK INTER + INTRA:          -7.873
REMARK INTER:                  -7.570
REMARK INTRA:                  -0.302
REMARK UNBOUND:                -0.703
REMARK  Name = 
REMARK  6 active torsions:
REMARK  status: ('A' for Active; 'I' for Inactive)
REMARK    1  A    between atoms: N_1  and  C_2
REMARK    2  A    between atoms: C_2  and  C_3
REMARK    3  A    between atoms: C_6  and  O_7
REMARK    4  A    between atoms: O_7  and  C_8
REMARK    5  A    between atoms: C_8  and  C_9
REMARK    6  A    between atoms: C_9  and  N_10
REMARK                            x       y       z     vdW  Elec       q    Type
REMARK                         _______ _______ _______ _____ _____    ______ ____
ROOT
ATOM      1  O   UNL     1      46.913   3.549  13.811  0.00  0.00    +0.000 OA
ENDROOT
BRANCH   1   5
ATOM      2  C   UNL     1      48.589   3.971  17.556  0.00  0.00    +0.000 A 
ATOM      3  C   UNL     1      47.992   5.066  16.925  0.00  0.00    +0.000 A 
ATOM      4  C   UNL     1      47.421   4.912  15.665  0.00  0.00    +0.000 A 
ATOM      5  C   UNL     1      47.472   3.662  15.068  0.00  0.00    +0.000 A 
ATOM      6  N   UNL     1      48.034   2.582  15.651  0.00  0.00    +0.000 NA
ATOM      7  C   UNL     1      48.577   2.762  16.873  0.00  0.00    +0.000 A 
BRANCH   2   8
ATOM      8  C   UNL     1      49.259   4.089  18.895  0.00  0.00    +0.000 C 
BRANCH   8   9
ATOM      9  N   UNL     1      48.560   3.330  19.925  0.00  0.00    +0.000 NA
ATOM     10  H   UNL     1      49.145   2.550  20.217  0.00  0.00    +0.000 HD
ATOM     11  H   UNL     1      47.718   2.920  19.523  0.00  0.00    +0.000 HD
ENDBRANCH   8   9
ENDBRANCH   2   8
ENDBRANCH   1   5
BRANCH   1  12
ATOM     12  C   UNL     1      45.940   4.575  13.543  0.00  0.00    +0.000 C 
BRANCH  12  13
ATOM     13  C   UNL     1      44.888   4.056  12.520  0.00  0.00    +0.000 C 
ATOM     14  C   UNL     1      45.127   4.645  11.110  0.00  0.00    +0.000 C 
ATOM     15  C   UNL     1      44.835   6.146  11.079  0.00  0.00    +0.000 C 
ATOM     16  C   UNL     1      43.436   6.453  11.613  0.00  0.00    +0.000 C 
ATOM     17  N   UNL     1      43.219   5.899  12.949  0.00  0.00    +0.000 NA
ATOM     18  C   UNL     1      43.459   4.450  12.984  0.00  0.00    +0.000 C 
ATOM     19  H   UNL     1      42.257   6.083  13.239  0.00  0.00    +0.000 HD
BRANCH  13  20
ATOM     20  N   UNL     1      44.990   2.578  12.436  0.00  0.00    +0.000 NA
ATOM     21  H   UNL     1      44.735   2.192  13.347  0.00  0.00    +0.000 HD
ATOM     22  H   UNL     1      45.954   2.303  12.263  0.00  0.00    +0.000 HD
ENDBRANCH  13  20
ENDBRANCH  12  13
ENDBRANCH   1  12
TORSDOF 6
ENDMDL
MODEL 6
REMARK VINA RESULT:    -5.485      3.477      5.550
REMARK INTER + INTRA:          -7.791
REMARK INTER:                  -7.053
REMARK INTRA:                  -0.738
REMARK UNBOUND:                -0.703
REMARK  Name = 
REMARK  6 active torsions:
REMARK  status: ('A' for Active; 'I' for Inactive)
REMARK    1  A    between atoms: N_1  and  C_2
REMARK    2  A    between atoms: C_2  and  C_3
REMARK    3  A    between atoms: C_6  and  O_7
REMARK    4  A    between atoms: O_7  and  C_8
REMARK    5  A    between atoms: C_8  and  C_9
REMARK    6  A    between atoms: C_9  and  N_10
REMARK                            x       y       z     vdW  Elec       q    Type
REMARK                         _______ _______ _______ _____ _____    ______ ____
ROOT
ATOM      1  O   UNL     1      45.658   4.180  13.725  0.00  0.00    +0.000 OA
ENDROOT
BRANCH   1   5
ATOM      2  C   UNL     1      48.625   7.034  13.460  0.00  0.00    +0.000 A 
ATOM      3  C   UNL     1      47.744   6.833  12.393  0.00  0.00    +0.000 A 
ATOM      4  C   UNL     1      46.740   5.874  12.495  0.00  0.00    +0.000 A 
ATOM      5  C   UNL     1      46.652   5.135  13.665  0.00  0.00    +0.000 A 
ATOM      6  N   UNL     1      47.481   5.307  14.717  0.00  0.00    +0.000 NA
ATOM      7  C   UNL     1      48.442   6.245  14.589  0.00  0.00    +0.000 A 
BRANCH   2   8
ATOM      8  C   UNL     1      49.752   8.022  13.389  0.00  0.00    +0.000 C 
BRANCH   8   9
ATOM      9  N   UNL     1      49.594   8.954  12.278  0.00  0.00    +0.000 NA
ATOM     10  H   UNL     1      48.635   8.909  11.941  0.00  0.00    +0.000 HD
ATOM     11  H   UNL     1      50.183   8.651  11.504  0.00  0.00    +0.000 HD
ENDBRANCH   8   9
ENDBRANCH   2   8
ENDBRANCH   1   5
BRANCH   1  12
ATOM     12  C   UNL     1      45.436   3.531  12.459  0.00  0.00    +0.000 C 
BRANCH  12  13
ATOM     13  C   UNL     1      43.910   3.367  12.206  0.00  0.00    +0.000 C 
ATOM     14  C   UNL     1      43.543   3.660  10.733  0.00  0.00    +0.000 C 
ATOM     15  C   UNL     1      43.727   5.141  10.398  0.00  0.00    +0.000 C 
ATOM     16  C   UNL     1      42.967   6.033  11.380  0.00  0.00    +0.000 C 
ATOM     17  N   UNL     1      43.324   5.756  12.772  0.00  0.00    +0.000 NA
ATOM     18  C   UNL     1      43.115   4.343  13.117  0.00  0.00    +0.000 C 
ATOM     19  H   UNL     1      42.754   6.337  13.389  0.00  0.00    +0.000 HD
BRANCH  13  20
ATOM     20  N   UNL     1      43.519   1.971  12.520  0.00  0.00    +0.000 NA
ATOM     21  H   UNL     1      42.500   1.909  12.466  0.00  0.00    +0.000 HD
ATOM     22  H   UNL     1      43.775   1.743  13.478  0.00  0.00    +0.000 HD
ENDBRANCH  13  20
ENDBRANCH  12  13
ENDBRANCH   1  12
TORSDOF 6
ENDMDL
MODEL 7
REMARK VINA RESULT:    -5.382      4.210      6.155
REMARK INTER + INTRA:          -7.658
REMARK INTER:                  -7.164
REMARK INTRA:                  -0.494
REMARK UNBOUND:                -0.703
REMARK  Name = 
REMARK  6 active torsions:
REMARK  status: ('A' for Active; 'I' for Inactive)
REMARK    1  A    between atoms: N_1  and  C_2
REMARK    2  A    between atoms: C_2  and  C_3
REMARK    3  A    between atoms: C_6  and  O_7
REMARK    4  A    between atoms: O_7  and  C_8
REMARK    5  A    between atoms: C_8  and  C_9
REMARK    6  A    between atoms: C_9  and  N_10
REMARK                            x       y       z     vdW  Elec       q    Type
REMARK                         _______ _______ _______ _____ _____    ______ ____
ROOT
ATOM      1  O   UNL     1      47.762   4.844  14.692  0.00  0.00    +0.000 OA
ENDROOT
BRANCH   1   5
ATOM      2  C   UNL     1      45.058   4.399  11.609  0.00  0.00    +0.000 A 
ATOM      3  C   UNL     1      45.659   5.639  11.844  0.00  0.00    +0.000 A 
ATOM      4  C   UNL     1      46.578   5.778  12.881  0.00  0.00    +0.000 A 
ATOM      5  C   UNL     1      46.862   4.667  13.661  0.00  0.00    +0.000 A 
ATOM      6  N   UNL     1      46.306   3.454  13.459  0.00  0.00    +0.000 NA
ATOM      7  C   UNL     1      45.421   3.350  12.444  0.00  0.00    +0.000 A 
BRANCH   2   8
ATOM      8  C   UNL     1      44.029   4.202  10.534  0.00  0.00    +0.000 C 
BRANCH   8   9
ATOM      9  N   UNL     1      43.280   5.424  10.263  0.00  0.00    +0.000 NA
ATOM     10  H   UNL     1      42.966   5.824  11.145  0.00  0.00    +0.000 HD
ATOM     11  H   UNL     1      42.437   5.188   9.741  0.00  0.00    +0.000 HD
ENDBRANCH   8   9
ENDBRANCH   2   8
ENDBRANCH   1   5
BRANCH   1  12
ATOM     12  C   UNL     1      47.329   4.224  15.917  0.00  0.00    +0.000 C 
BRANCH  12  13
ATOM     13  C   UNL     1      48.470   4.281  16.974  0.00  0.00    +0.000 C 
ATOM     14  C   UNL     1      47.914   4.220  18.415  0.00  0.00    +0.000 C 
ATOM     15  C   UNL     1      47.141   5.493  18.766  0.00  0.00    +0.000 C 
ATOM     16  C   UNL     1      47.983   6.744  18.514  0.00  0.00    +0.000 C 
ATOM     17  N   UNL     1      48.501   6.798  17.147  0.00  0.00    +0.000 NA
ATOM     18  C   UNL     1      49.278   5.597  16.811  0.00  0.00    +0.000 C 
ATOM     19  H   UNL     1      49.098   7.620  17.044  0.00  0.00    +0.000 HD
BRANCH  13  20
ATOM     20  N   UNL     1      49.371   3.120  16.768  0.00  0.00    +0.000 NA
ATOM     21  H   UNL     1      49.756   3.183  15.823  0.00  0.00    +0.000 HD
ATOM     22  H   UNL     1      48.840   2.253  16.810  0.00  0.00    +0.000 HD
ENDBRANCH  13  20
ENDBRANCH  12  13
ENDBRANCH   1  12
TORSDOF 6
ENDMDL
MODEL 8
REMARK VINA RESULT:    -5.084      3.446      6.437
REMARK INTER + INTRA:          -7.273
REMARK INTER:                  -6.841
REMARK INTRA:                  -0.432
REMARK UNBOUND:                -0.703
REMARK  Name = 
REMARK  6 active torsions:
REMARK  status: ('A' for Active; 'I' for Inactive)
REMARK    1  A    between atoms: N_1  and  C_2
REMARK    2  A    between atoms: C_2  and  C_3
REMARK    3  A    between atoms: C_6  and  O_7
REMARK    4  A    between atoms: O_7  and  C_8
REMARK    5  A    between atoms: C_8  and  C_9
REMARK    6  A    between atoms: C_9  and  N_10
REMARK                            x       y       z     vdW  Elec       q    Type
REMARK                         _______ _______ _______ _____ _____    ______ ____
ROOT
ATOM      1  O   UNL     1      46.050   5.566  12.225  0.00  0.00    +0.000 OA
ENDROOT
BRANCH   1   5
ATOM      2  C   UNL     1      48.102   8.336  14.491  0.00  0.00    +0.000 A 
ATOM      3  C   UNL     1      47.001   8.730  13.725  0.00  0.00    +0.000 A 
ATOM      4  C   UNL     1      46.308   7.787  12.971  0.00  0.00    +0.000 A 
ATOM      5  C   UNL     1      46.746   6.472  12.999  0.00  0.00    +0.000 A 
ATOM      6  N   UNL     1      47.801   6.054  13.732  0.00  0.00    +0.000 NA
ATOM      7  C   UNL     1      48.450   6.991  14.454  0.00  0.00    +0.000 A 
BRANCH   2   8
ATOM      8  C   UNL     1      48.912   9.316  15.288  0.00  0.00    +0.000 C 
BRANCH   8   9
ATOM      9  N   UNL     1      48.107  10.000  16.295  0.00  0.00    +0.000 NA
ATOM     10  H   UNL     1      47.308  10.436  15.841  0.00  0.00    +0.000 HD
ATOM     11  H   UNL     1      48.655  10.758  16.699  0.00  0.00    +0.000 HD
ENDBRANCH   8   9
ENDBRANCH   2   8
ENDBRANCH   1   5
BRANCH   1  12
ATOM     12  C   UNL     1      45.137   4.764  12.998  0.00  0.00    +0.000 C 
BRANCH  12  13
ATOM     13  C   UNL     1      43.717   4.816  12.365  0.00  0.00    +0.000 C 
ATOM     14  C   UNL     1      43.278   3.430  11.838  0.00  0.00    +0.000 C 
ATOM     15  C   UNL     1      44.111   3.007  10.627  0.00  0.00    +0.000 C 
ATOM     16  C   UNL     1      44.097   4.080   9.538  0.00  0.00    +0.000 C 
ATOM     17  N   UNL     1      44.519   5.387  10.042  0.00  0.00    +0.000 NA
ATOM     18  C   UNL     1      43.701   5.823  11.181  0.00  0.00    +0.000 C 
ATOM     19  H   UNL     1      44.442   6.079   9.294  0.00  0.00    +0.000 HD
BRANCH  13  20
ATOM     20  N   UNL     1      42.747   5.255  13.398  0.00  0.00    +0.000 NA
ATOM     21  H   UNL     1      43.172   5.100  14.315  0.00  0.00    +0.000 HD
ATOM     22  H   UNL     1      41.911   4.676  13.362  0.00  0.00    +0.000 HD
ENDBRANCH  13  20
ENDBRANCH  12  13
ENDBRANCH   1  12
TORSDOF 6
ENDMDL
MODEL 9
REMARK VINA RESULT:    -5.053      3.282      6.344
REMARK INTER + INTRA:          -7.233
REMARK INTER:                  -6.406
REMARK INTRA:                  -0.827
REMARK UNBOUND:                -0.703
REMARK  Name = 
REMARK  6 active torsions:
REMARK  status: ('A' for Active; 'I' for Inactive)
REMARK    1  A    between atoms: N_1  and  C_2
REMARK    2  A    between atoms: C_2  and  C_3
REMARK    3  A    between atoms: C_6  and  O_7
REMARK    4  A    between atoms: O_7  and  C_8
REMARK    5  A    between atoms: C_8  and  C_9
REMARK    6  A    between atoms: C_9  and  N_10
REMARK                            x       y       z     vdW  Elec       q    Type
REMARK                         _______ _______ _______ _____ _____    ______ ____
ROOT
ATOM      1  O   UNL     1      45.504   4.015  13.987  0.00  0.00    +0.000 OA
ENDROOT
BRANCH   1   5
ATOM      2  C   UNL     1      48.708   6.224  15.354  0.00  0.00    +0.000 A 
ATOM      3  C   UNL     1      48.223   5.149  16.105  0.00  0.00    +0.000 A 
ATOM      4  C   UNL     1      47.147   4.404  15.632  0.00  0.00    +0.000 A 
ATOM      5  C   UNL     1      46.581   4.763  14.418  0.00  0.00    +0.000 A 
ATOM      6  N   UNL     1      47.028   5.789  13.663  0.00  0.00    +0.000 NA
ATOM      7  C   UNL     1      48.074   6.491  14.147  0.00  0.00    +0.000 A 
BRANCH   2   8
ATOM      8  C   UNL     1      49.837   7.088  15.836  0.00  0.00    +0.000 C 
BRANCH   8   9
ATOM      9  N   UNL     1      50.647   6.419  16.847  0.00  0.00    +0.000 NA
ATOM     10  H   UNL     1      50.452   6.833  17.756  0.00  0.00    +0.000 HD
ATOM     11  H   UNL     1      51.631   6.598  16.657  0.00  0.00    +0.000 HD
ENDBRANCH   8   9
ENDBRANCH   2   8
ENDBRANCH   1   5
BRANCH   1  12
ATOM     12  C   UNL     1      45.659   3.549  12.634  0.00  0.00    +0.000 C 
BRANCH  12  13
ATOM     13  C   UNL     1      44.353   3.807  11.829  0.00  0.00    +0.000 C 
ATOM     14  C   UNL     1      44.650   4.438  10.449  0.00  0.00    +0.000 C 
ATOM     15  C   UNL     1      45.180   5.866  10.594  0.00  0.00    +0.000 C 
ATOM     16  C   UNL     1      44.241   6.725  11.442  0.00  0.00    +0.000 C 
ATOM     17  N   UNL     1      43.969   6.125  12.748  0.00  0.00    +0.000 NA
ATOM     18  C   UNL     1      43.424   4.767  12.622  0.00  0.00    +0.000 C 
ATOM     19  H   UNL     1      43.299   6.707  13.254  0.00  0.00    +0.000 HD
BRANCH  13  20
ATOM     20  N   UNL     1      43.658   2.513  11.616  0.00  0.00    +0.000 NA
ATOM     21  H   UNL     1      42.748   2.710  11.195  0.00  0.00    +0.000 HD
ATOM     22  H   UNL     1      43.475   2.063  12.509  0.00  0.00    +0.000 HD
ENDBRANCH  13  20
ENDBRANCH  12  13
ENDBRANCH   1  12
TORSDOF 6
ENDMDL
