MODEL 1
REMARK VINA RESULT:    -6.947      0.000      0.000
REMARK INTER + INTRA:         -11.318
REMARK INTER:                 -10.196
REMARK INTRA:                  -1.122
REMARK UNBOUND:                -1.122
REMARK  Name = 
REMARK  12 active torsions:
REMARK  status: ('A' for Active; 'I' for Inactive)
REMARK    1  A    between atoms: C_1  and  C_2
REMARK    2  A    between atoms: C_2  and  N_3
REMARK    3  A    between atoms: N_3  and  C_4
REMARK    4  A    between atoms: N_3  and  C_5
REMARK    5  A    between atoms: C_5  and  C_6
REMARK    6  A    between atoms: C_9  and  C_10
REMARK    7  A    between atoms: C_10  and  C_11
REMARK    8  A    between atoms: C_10  and  C_12
REMARK    9  A    between atoms: C_10  and  C_13
REMARK   10  A    between atoms: C_13  and  N_14
REMARK   11  A    between atoms: N_14  and  C_15
REMARK   12  A    between atoms: C_18  and  C_19
REMARK                            x       y       z     vdW  Elec       q    Type
REMARK                         _______ _______ _______ _____ _____    ______ ____
ROOT
ATOM      1  C   UNL     1      43.760   4.490  12.264  0.00  0.00    +0.000 C 
ATOM      2  C   UNL     1      43.764   2.971  12.546  0.00  0.00    +0.000 C 
ATOM      3  C   UNL     1      42.656   5.158  13.115  0.00  0.00    +0.000 C 
ENDROOT
BRANCH   1   7
ATOM      4  C   UNL     1      47.525   6.191  13.198  0.00  0.00    +0.000 A 
ATOM      5  C   UNL     1      46.459   6.974  12.778  0.00  0.00    +0.000 A 
ATOM      6  N   UNL     1      45.243   6.457  12.513  0.00  0.00    +0.000 NA
ATOM      7  C   UNL     1      45.100   5.116  12.646  0.00  0.00    +0.000 A 
ATOM      8  C   UNL     1      46.163   4.347  13.116  0.00  0.00    +0.000 A 
ATOM      9  N   UNL     1      47.383   4.856  13.397  0.00  0.00    +0.000 NA
BRANCH   4  10
ATOM     10  C   UNL     1      48.884   6.808  13.431  0.00  0.00    +0.000 C 
BRANCH  10  11
ATOM     11  N   UNL     1      48.982   8.242  13.073  0.00  0.00    +0.000 NA
ATOM     12  C   UNL     1      49.785   8.375  11.853  0.00  0.00    +0.000 C 
BRANCH  11  14
ATOM     13  C   UNL     1      48.544   9.407  15.246  0.00  0.00    +0.000 C 
ATOM     14  C   UNL     1      49.568   9.013  14.189  0.00  0.00    +0.000 C 
ENDBRANCH  11  14
ENDBRANCH  10  11
ENDBRANCH   4  10
ENDBRANCH   1   7
BRANCH   1  15
ATOM     15  C   UNL     1      43.416   4.735  10.761  0.00  0.00    +0.000 C 
BRANCH  15  16
ATOM     16  N   UNL     1      44.551   5.219   9.972  0.00  0.00    +0.000 N 
ATOM     17  H   UNL     1      45.068   6.007  10.343  0.00  0.00    +0.000 HD
BRANCH  16  18
ATOM     18  C   UNL     1      45.251   4.388   9.120  0.00  0.00    +0.000 A 
ATOM     19  C   UNL     1      46.148   4.811   8.155  0.00  0.00    +0.000 A 
ATOM     20  N   UNL     1      46.842   3.994   7.327  0.00  0.00    +0.000 NA
ATOM     21  C   UNL     1      46.617   2.674   7.512  0.00  0.00    +0.000 A 
ATOM     22  N   UNL     1      45.797   2.126   8.423  0.00  0.00    +0.000 NA
ATOM     23  C   UNL     1      45.149   3.006   9.211  0.00  0.00    +0.000 A 
BRANCH  21  24
ATOM     24  C   UNL     1      47.378   1.747   6.595  0.00  0.00    +0.000 C 
ATOM     25  N   UNL     1      48.372   2.338   5.850  0.00  0.00    +0.000 N 
ATOM     26  O   UNL     1      47.154   0.550   6.494  0.00  0.00    +0.000 OA
ATOM     27  H   UNL     1      48.557   3.330   5.955  0.00  0.00    +0.000 HD
ATOM     28  H   UNL     1      48.927   1.767   5.235  0.00  0.00    +0.000 HD
ENDBRANCH  21  24
ENDBRANCH  16  18
ENDBRANCH  15  16
ENDBRANCH   1  15
TORSDOF 8
ENDMDL
MODEL 2
REMARK VINA RESULT:    -6.796      2.948      7.138
REMARK INTER + INTRA:         -11.096
REMARK INTER:                 -10.044
REMARK INTRA:                  -1.053
REMARK UNBOUND:                -1.122
REMARK  Name = 
REMARK  12 active torsions:
REMARK  status: ('A' for Active; 'I' for Inactive)
REMARK    1  A    between atoms: C_1  and  C_2
REMARK    2  A    between atoms: C_2  and  N_3
REMARK    3  A    between atoms: N_3  and  C_4
REMARK    4  A    between atoms: N_3  and  C_5
REMARK    5  A    between atoms: C_5  and  C_6
REMARK    6  A    between atoms: C_9  and  C_10
REMARK    7  A    between atoms: C_10  and  C_11
REMARK    8  A    between atoms: C_10  and  C_12
REMARK    9  A    between atoms: C_10  and  C_13
REMARK   10  A    between atoms: C_13  and  N_14
REMARK   11  A    between atoms: N_14  and  C_15
REMARK   12  A    between atoms: C_18  and  C_19
REMARK                            x       y       z     vdW  Elec       q    Type
REMARK                         _______ _______ _______ _____ _____    ______ ____
ROOT
ATOM      1  C   UNL     1      44.098   6.115  11.769  0.00  0.00    +0.000 C 
ATOM      2  C   UNL     1      43.105   7.159  11.211  0.00  0.00    +0.000 C 
ATOM      3  C   UNL     1      43.403   5.307  12.889  0.00  0.00    +0.000 C 
ENDROOT
BRANCH   1   7
ATOM      4  C   UNL     1      45.186   3.448   8.665  0.00  0.00    +0.000 A 
ATOM      5  C   UNL     1      45.759   4.706   8.774  0.00  0.00    +0.000 A 
ATOM      6  N   UNL     1      45.455   5.554   9.776  0.00  0.00    +0.000 NA
ATOM      7  C   UNL     1      44.531   5.140  10.676  0.00  0.00    +0.000 A 
ATOM      8  C   UNL     1      43.999   3.855  10.585  0.00  0.00    +0.000 A 
ATOM      9  N   UNL     1      44.306   2.991   9.592  0.00  0.00    +0.000 NA
BRANCH   4  10
ATOM     10  C   UNL     1      45.518   2.553   7.494  0.00  0.00    +0.000 C 
BRANCH  10  11
ATOM     11  N   UNL     1      46.888   2.721   6.956  0.00  0.00    +0.000 NA
ATOM     12  C   UNL     1      46.803   3.047   5.528  0.00  0.00    +0.000 C 
BRANCH  11  14
ATOM     13  C   UNL     1      46.832   0.293   7.565  0.00  0.00    +0.000 C 
ATOM     14  C   UNL     1      47.684   1.496   7.181  0.00  0.00    +0.000 C 
ENDBRANCH  11  14
ENDBRANCH  10  11
ENDBRANCH   4  10
ENDBRANCH   1   7
BRANCH   1  15
ATOM     15  C   UNL     1      45.320   6.852  12.403  0.00  0.00    +0.000 C 
BRANCH  15  16
ATOM     16  N   UNL     1      46.557   6.069  12.369  0.00  0.00    +0.000 N 
ATOM     17  H   UNL     1      47.289   6.390  11.747  0.00  0.00    +0.000 HD
BRANCH  16  18
ATOM     18  C   UNL     1      46.973   5.319  13.452  0.00  0.00    +0.000 A 
ATOM     19  C   UNL     1      46.819   3.949  13.576  0.00  0.00    +0.000 A 
ATOM     20  N   UNL     1      47.237   3.214  14.634  0.00  0.00    +0.000 NA
ATOM     21  C   UNL     1      47.860   3.918  15.606  0.00  0.00    +0.000 A 
ATOM     22  N   UNL     1      48.096   5.240  15.603  0.00  0.00    +0.000 NA
ATOM     23  C   UNL     1      47.656   5.897  14.514  0.00  0.00    +0.000 A 
BRANCH  21  24
ATOM     24  C   UNL     1      48.328   3.116  16.796  0.00  0.00    +0.000 C 
ATOM     25  N   UNL     1      47.351   2.785  17.706  0.00  0.00    +0.000 N 
ATOM     26  O   UNL     1      49.485   2.767  16.972  0.00  0.00    +0.000 OA
ATOM     27  H   UNL     1      46.392   3.069  17.540  0.00  0.00    +0.000 HD
ATOM     28  H   UNL     1      47.599   2.234  18.511  0.00  0.00    +0.000 HD
ENDBRANCH  21  24
ENDBRANCH  16  18
ENDBRANCH  15  16
ENDBRANCH   1  15
TORSDOF 8
ENDMDL
MODEL 3
REMARK VINA RESULT:    -6.794      1.343      1.708
REMARK INTER + INTRA:         -11.094
REMARK INTER:                 -10.457
REMARK INTRA:                  -0.637
REMARK UNBOUND:                -1.122
REMARK  Name = 
REMARK  12 active torsions:
REMARK  status: ('A' for Active; 'I' for Inactive)
REMARK    1  A    between atoms: C_1  and  C_2
REMARK    2  A    between atoms: C_2  and  N_3
REMARK    3  A    between atoms: N_3  and  C_4
REMARK    4  A    between atoms: N_3  and  C_5
REMARK    5  A    between atoms: C_5  and  C_6
REMARK    6  A    between atoms: C_9  and  C_10
REMARK    7  A    between atoms: C_10  and  C_11
REMARK    8  A    between atoms: C_10  and  C_12
REMARK    9  A    between atoms: C_10  and  C_13
REMARK   10  A    between atoms: C_13  and  N_14
REMARK   11  A    between atoms: N_14  and  C_15
REMARK   12  A    between atoms: C_18  and  C_19
REMARK                            x       y       z     vdW  Elec       q    Type
REMARK                         _______ _______ _______ _____ _____    ______ ____
ROOT
ATOM      1  C   UNL     1      44.046   4.828  12.256  0.00  0.00    +0.000 C 
ATOM      2  C   UNL     1      43.000   4.757  13.390  0.00  0.00    +0.000 C 
ATOM      3  C   UNL     1      43.503   5.733  11.126  0.00  0.00    +0.000 C 
ENDROOT
BRANCH   1   7
ATOM      4  C   UNL     1      47.729   6.483  13.533  0.00  0.00    +0.000 A 
ATOM      5  C   UNL     1      46.667   7.288  13.150  0.00  0.00    +0.000 A 
ATOM      6  N   UNL     1      45.475   6.782  12.777  0.00  0.00    +0.000 NA
ATOM      7  C   UNL     1      45.354   5.432  12.762  0.00  0.00    +0.000 A 
ATOM      8  C   UNL     1      46.411   4.635  13.198  0.00  0.00    +0.000 A 
ATOM      9  N   UNL     1      47.607   5.132  13.585  0.00  0.00    +0.000 NA
BRANCH   4  10
ATOM     10  C   UNL     1      49.064   7.094  13.892  0.00  0.00    +0.000 C 
BRANCH  10  11
ATOM     11  N   UNL     1      49.159   7.601  15.280  0.00  0.00    +0.000 NA
ATOM     12  C   UNL     1      49.267   9.064  15.247  0.00  0.00    +0.000 C 
BRANCH  11  14
ATOM     13  C   UNL     1      49.921   5.837  16.885  0.00  0.00    +0.000 C 
ATOM     14  C   UNL     1      50.313   6.993  15.973  0.00  0.00    +0.000 C 
ENDBRANCH  11  14
ENDBRANCH  10  11
ENDBRANCH   4  10
ENDBRANCH   1   7
BRANCH   1  15
ATOM     15  C   UNL     1      44.260   3.401  11.660  0.00  0.00    +0.000 C 
BRANCH  15  16
ATOM     16  N   UNL     1      43.827   3.279  10.266  0.00  0.00    +0.000 N 
ATOM     17  H   UNL     1      42.964   3.742  10.009  0.00  0.00    +0.000 HD
BRANCH  16  18
ATOM     18  C   UNL     1      44.728   3.072   9.240  0.00  0.00    +0.000 A 
ATOM     19  C   UNL     1      45.182   4.049   8.371  0.00  0.00    +0.000 A 
ATOM     20  N   UNL     1      46.074   3.848   7.373  0.00  0.00    +0.000 NA
ATOM     21  C   UNL     1      46.537   2.582   7.272  0.00  0.00    +0.000 A 
ATOM     22  N   UNL     1      46.203   1.547   8.059  0.00  0.00    +0.000 NA
ATOM     23  C   UNL     1      45.316   1.832   9.032  0.00  0.00    +0.000 A 
BRANCH  21  24
ATOM     24  C   UNL     1      47.529   2.336   6.160  0.00  0.00    +0.000 C 
ATOM     25  N   UNL     1      47.481   3.231   5.117  0.00  0.00    +0.000 N 
ATOM     26  O   UNL     1      48.333   1.416   6.153  0.00  0.00    +0.000 OA
ATOM     27  H   UNL     1      46.818   3.999   5.143  0.00  0.00    +0.000 HD
ATOM     28  H   UNL     1      48.131   3.130   4.356  0.00  0.00    +0.000 HD
ENDBRANCH  21  24
ENDBRANCH  16  18
ENDBRANCH  15  16
ENDBRANCH   1  15
TORSDOF 8
ENDMDL
MODEL 4
REMARK VINA RESULT:    -6.536      2.651      3.422
REMARK INTER + INTRA:         -10.714
REMARK INTER:                 -10.542
REMARK INTRA:                  -0.172
REMARK UNBOUND:                -1.122
REMARK  Name = 
REMARK  12 active torsions:
REMARK  status: ('A' for Active; 'I' for Inactive)
REMARK    1  A    between atoms: C_1  and  C_2
REMARK    2  A    between atoms: C_2  and  N_3
REMARK    3  A    between atoms: N_3  and  C_4
REMARK    4  A    between atoms: N_3  and  C_5
REMARK    5  A    between atoms: C_5  and  C_6
REMARK    6  A    between atoms: C_9  and  C_10
REMARK    7  A    between atoms: C_10  and  C_11
REMARK    8  A    between atoms: C_10  and  C_12
REMARK    9  A    between atoms: C_10  and  C_13
REMARK   10  A    between atoms: C_13  and  N_14
REMARK   11  A    between atoms: N_14  and  C_15
REMARK   12  A    between atoms: C_18  and  C_19
REMARK                            x       y       z     vdW  Elec       q    Type
REMARK                         _______ _______ _______ _____ _____    ______ ____
ROOT
ATOM      1  C   UNL     1      45.405   5.223  12.449  0.00  0.00    +0.000 C 
ATOM      2  C   UNL     1      44.107   5.947  12.868  0.00  0.00    +0.000 C 
ATOM      3  C   UNL     1      46.082   6.019  11.310  0.00  0.00    +0.000 C 
ENDROOT
BRANCH   1   7
ATOM      4  C   UNL     1      48.035   5.091  15.767  0.00  0.00    +0.000 A 
ATOM      5  C   UNL     1      47.079   4.108  15.560  0.00  0.00    +0.000 A 
ATOM      6  N   UNL     1      46.259   4.111  14.491  0.00  0.00    +0.000 NA
ATOM      7  C   UNL     1      46.383   5.143  13.620  0.00  0.00    +0.000 A 
ATOM      8  C   UNL     1      47.380   6.097  13.811  0.00  0.00    +0.000 A 
ATOM      9  N   UNL     1      48.216   6.097  14.874  0.00  0.00    +0.000 NA
BRANCH   4  10
ATOM     10  C   UNL     1      48.896   5.074  17.008  0.00  0.00    +0.000 C 
BRANCH  10  11
ATOM     11  N   UNL     1      50.079   4.187  16.929  0.00  0.00    +0.000 NA
ATOM     12  C   UNL     1      49.826   2.980  17.725  0.00  0.00    +0.000 C 
BRANCH  11  14
ATOM     13  C   UNL     1      51.331   5.065  18.911  0.00  0.00    +0.000 C 
ATOM     14  C   UNL     1      51.287   4.896  17.398  0.00  0.00    +0.000 C 
ENDBRANCH  11  14
ENDBRANCH  10  11
ENDBRANCH   4  10
ENDBRANCH   1   7
BRANCH   1  15
ATOM     15  C   UNL     1      45.052   3.807  11.894  0.00  0.00    +0.000 C 
BRANCH  15  16
ATOM     16  N   UNL     1      44.503   3.833  10.536  0.00  0.00    +0.000 N 
ATOM     17  H   UNL     1      43.765   4.500  10.349  0.00  0.00    +0.000 HD
BRANCH  16  18
ATOM     18  C   UNL     1      45.250   3.440   9.443  0.00  0.00    +0.000 A 
ATOM     19  C   UNL     1      45.630   2.139   9.165  0.00  0.00    +0.000 A 
ATOM     20  N   UNL     1      46.353   1.754   8.087  0.00  0.00    +0.000 NA
ATOM     21  C   UNL     1      46.689   2.754   7.241  0.00  0.00    +0.000 A 
ATOM     22  N   UNL     1      46.368   4.051   7.375  0.00  0.00    +0.000 NA
ATOM     23  C   UNL     1      45.642   4.350   8.470  0.00  0.00    +0.000 A 
BRANCH  21  24
ATOM     24  C   UNL     1      47.501   2.345   6.036  0.00  0.00    +0.000 C 
ATOM     25  N   UNL     1      47.319   3.117   4.912  0.00  0.00    +0.000 N 
ATOM     26  O   UNL     1      48.275   1.401   6.022  0.00  0.00    +0.000 OA
ATOM     27  H   UNL     1      46.684   3.907   4.941  0.00  0.00    +0.000 HD
ATOM     28  H   UNL     1      47.848   2.905   4.082  0.00  0.00    +0.000 HD
ENDBRANCH  21  24
ENDBRANCH  16  18
ENDBRANCH  15  16
ENDBRANCH   1  15
TORSDOF 8
ENDMDL
MODEL 5
REMARK VINA RESULT:    -5.778      3.238      5.698
REMARK INTER + INTRA:          -9.603
REMARK INTER:                  -8.412
REMARK INTRA:                  -1.191
REMARK UNBOUND:                -1.122
REMARK  Name = 
REMARK  12 active torsions:
REMARK  status: ('A' for Active; 'I' for Inactive)
REMARK    1  A    between atoms: C_1  and  C_2
REMARK    2  A    between atoms: C_2  and  N_3
REMARK    3  A    between atoms: N_3  and  C_4
REMARK    4  A    between atoms: N_3  and  C_5
REMARK    5  A    between atoms: C_5  and  C_6
REMARK    6  A    between atoms: C_9  and  C_10
REMARK    7  A    between atoms: C_10  and  C_11
REMARK    8  A    between atoms: C_10  and  C_12
REMARK    9  A    between atoms: C_10  and  C_13
REMARK   10  A    between atoms: C_13  and  N_14
REMARK   11  A    between atoms: N_14  and  C_15
REMARK   12  A    between atoms: C_18  and  C_19
REMARK                            x       y       z     vdW  Elec       q    Type
REMARK                         _______ _______ _______ _____ _____    ______ ____
ROOT
ATOM      1  C   UNL     1      48.528   8.378  12.918  0.00  0.00    +0.000 C 
ATOM      2  C   UNL     1      49.092   9.803  12.727  0.00  0.00    +0.000 C 
ATOM      3  C   UNL     1      49.258   7.413  11.956  0.00  0.00    +0.000 C 
ENDROOT
BRANCH   1   7
ATOM      4  C   UNL     1      49.032   7.036  16.904  0.00  0.00    +0.000 A 
ATOM      5  C   UNL     1      48.992   6.148  15.839  0.00  0.00    +0.000 A 
ATOM      6  N   UNL     1      48.871   6.557  14.561  0.00  0.00    +0.000 NA
ATOM      7  C   UNL     1      48.759   7.891  14.347  0.00  0.00    +0.000 A 
ATOM      8  C   UNL     1      48.852   8.776  15.420  0.00  0.00    +0.000 A 
ATOM      9  N   UNL     1      48.985   8.377  16.704  0.00  0.00    +0.000 NA
BRANCH   4  10
ATOM     10  C   UNL     1      49.115   6.527  18.323  0.00  0.00    +0.000 C 
BRANCH  10  11
ATOM     11  N   UNL     1      48.074   5.538  18.688  0.00  0.00    +0.000 NA
ATOM     12  C   UNL     1      47.290   6.064  19.812  0.00  0.00    +0.000 C 
BRANCH  11  14
ATOM     13  C   UNL     1      48.342   3.136  18.034  0.00  0.00    +0.000 C 
ATOM     14  C   UNL     1      48.692   4.239  19.025  0.00  0.00    +0.000 C 
ENDBRANCH  11  14
ENDBRANCH  10  11
ENDBRANCH   4  10
ENDBRANCH   1   7
BRANCH   1  15
ATOM     15  C   UNL     1      47.013   8.368  12.542  0.00  0.00    +0.000 C 
BRANCH  15  16
ATOM     16  N   UNL     1      46.219   7.428  13.338  0.00  0.00    +0.000 N 
ATOM     17  H   UNL     1      45.762   7.796  14.164  0.00  0.00    +0.000 HD
BRANCH  16  18
ATOM     18  C   UNL     1      45.639   6.308  12.777  0.00  0.00    +0.000 A 
ATOM     19  C   UNL     1      45.087   6.250  11.509  0.00  0.00    +0.000 A 
ATOM     20  N   UNL     1      44.528   5.148  10.955  0.00  0.00    +0.000 NA
ATOM     21  C   UNL     1      44.553   4.044  11.737  0.00  0.00    +0.000 A 
ATOM     22  N   UNL     1      45.076   3.954  12.970  0.00  0.00    +0.000 NA
ATOM     23  C   UNL     1      45.618   5.092  13.445  0.00  0.00    +0.000 A 
BRANCH  21  24
ATOM     24  C   UNL     1      43.929   2.806  11.138  0.00  0.00    +0.000 C 
ATOM     25  N   UNL     1      44.555   2.311  10.018  0.00  0.00    +0.000 N 
ATOM     26  O   UNL     1      42.937   2.255  11.590  0.00  0.00    +0.000 OA
ATOM     27  H   UNL     1      45.387   2.771   9.662  0.00  0.00    +0.000 HD
ATOM     28  H   UNL     1      44.196   1.476   9.586  0.00  0.00    +0.000 HD
ENDBRANCH  21  24
ENDBRANCH  16  18
ENDBRANCH  15  16
ENDBRANCH   1  15
TORSDOF 8
ENDMDL
MODEL 6
REMARK VINA RESULT:    -5.695      3.602      7.723
REMARK INTER + INTRA:          -9.480
REMARK INTER:                  -8.986
REMARK INTRA:                  -0.494
REMARK UNBOUND:                -1.122
REMARK  Name = 
REMARK  12 active torsions:
REMARK  status: ('A' for Active; 'I' for Inactive)
REMARK    1  A    between atoms: C_1  and  C_2
REMARK    2  A    between atoms: C_2  and  N_3
REMARK    3  A    between atoms: N_3  and  C_4
REMARK    4  A    between atoms: N_3  and  C_5
REMARK    5  A    between atoms: C_5  and  C_6
REMARK    6  A    between atoms: C_9  and  C_10
REMARK    7  A    between atoms: C_10  and  C_11
REMARK    8  A    between atoms: C_10  and  C_12
REMARK    9  A    between atoms: C_10  and  C_13
REMARK   10  A    between atoms: C_13  and  N_14
REMARK   11  A    between atoms: N_14  and  C_15
REMARK   12  A    between atoms: C_18  and  C_19
REMARK                            x       y       z     vdW  Elec       q    Type
REMARK                         _______ _______ _______ _____ _____    ______ ____
ROOT
ATOM      1  C   UNL     1      47.748   8.635  12.436  0.00  0.00    +0.000 C 
ATOM      2  C   UNL     1      49.055   8.192  11.742  0.00  0.00    +0.000 C 
ATOM      3  C   UNL     1      47.401  10.073  11.987  0.00  0.00    +0.000 C 
ENDROOT
BRANCH   1   7
ATOM      4  C   UNL     1      44.540   6.152  11.221  0.00  0.00    +0.000 A 
ATOM      5  C   UNL     1      45.840   5.673  11.297  0.00  0.00    +0.000 A 
ATOM      6  N   UNL     1      46.867   6.436  11.718  0.00  0.00    +0.000 NA
ATOM      7  C   UNL     1      46.589   7.721  12.045  0.00  0.00    +0.000 A 
ATOM      8  C   UNL     1      45.272   8.177  12.013  0.00  0.00    +0.000 A 
ATOM      9  N   UNL     1      44.232   7.417  11.604  0.00  0.00    +0.000 NA
BRANCH   4  10
ATOM     10  C   UNL     1      43.429   5.275  10.692  0.00  0.00    +0.000 C 
BRANCH  10  11
ATOM     11  N   UNL     1      42.928   4.264  11.652  0.00  0.00    +0.000 NA
ATOM     12  C   UNL     1      42.983   4.825  13.007  0.00  0.00    +0.000 C 
BRANCH  11  14
ATOM     13  C   UNL     1      44.155   2.703  10.127  0.00  0.00    +0.000 C 
ATOM     14  C   UNL     1      43.720   3.021  11.552  0.00  0.00    +0.000 C 
ENDBRANCH  11  14
ENDBRANCH  10  11
ENDBRANCH   4  10
ENDBRANCH   1   7
BRANCH   1  15
ATOM     15  C   UNL     1      47.967   8.661  13.982  0.00  0.00    +0.000 C 
BRANCH  15  16
ATOM     16  N   UNL     1      48.982   7.710  14.444  0.00  0.00    +0.000 N 
ATOM     17  H   UNL     1      49.938   8.041  14.489  0.00  0.00    +0.000 HD
BRANCH  16  18
ATOM     18  C   UNL     1      48.667   6.664  15.288  0.00  0.00    +0.000 A 
ATOM     19  C   UNL     1      49.032   6.579  16.620  0.00  0.00    +0.000 A 
ATOM     20  N   UNL     1      48.714   5.557  17.449  0.00  0.00    +0.000 NA
ATOM     21  C   UNL     1      47.967   4.580  16.887  0.00  0.00    +0.000 A 
ATOM     22  N   UNL     1      47.524   4.547  15.620  0.00  0.00    +0.000 NA
ATOM     23  C   UNL     1      47.879   5.602  14.863  0.00  0.00    +0.000 A 
BRANCH  21  24
ATOM     24  C   UNL     1      47.606   3.429  17.795  0.00  0.00    +0.000 C 
ATOM     25  N   UNL     1      48.375   3.308  18.929  0.00  0.00    +0.000 N 
ATOM     26  O   UNL     1      46.701   2.640  17.571  0.00  0.00    +0.000 OA
ATOM     27  H   UNL     1      49.115   3.979  19.110  0.00  0.00    +0.000 HD
ATOM     28  H   UNL     1      48.170   2.571  19.583  0.00  0.00    +0.000 HD
ENDBRANCH  21  24
ENDBRANCH  16  18
ENDBRANCH  15  16
ENDBRANCH   1  15
TORSDOF 8
ENDMDL
MODEL 7
REMARK VINA RESULT:    -5.649      5.712      9.009
REMARK INTER + INTRA:          -9.413
REMARK INTER:                  -8.782
REMARK INTRA:                  -0.631
REMARK UNBOUND:                -1.122
REMARK  Name = 
REMARK  12 active torsions:
REMARK  status: ('A' for Active; 'I' for Inactive)
REMARK    1  A    between atoms: C_1  and  C_2
REMARK    2  A    between atoms: C_2  and  N_3
REMARK    3  A    between atoms: N_3  and  C_4
REMARK    4  A    between atoms: N_3  and  C_5
REMARK    5  A    between atoms: C_5  and  C_6
REMARK    6  A    between atoms: C_9  and  C_10
REMARK    7  A    between atoms: C_10  and  C_11
REMARK    8  A    between atoms: C_10  and  C_12
REMARK    9  A    between atoms: C_10  and  C_13
REMARK   10  A    between atoms: C_13  and  N_14
REMARK   11  A    between atoms: N_14  and  C_15
REMARK   12  A    between atoms: C_18  and  C_19
REMARK                            x       y       z     vdW  Elec       q    Type
REMARK                         _______ _______ _______ _____ _____    ______ ____
ROOT
ATOM      1  C   UNL     1      49.099   5.854  16.783  0.00  0.00    +0.000 C 
ATOM      2  C   UNL     1      50.387   6.506  16.233  0.00  0.00    +0.000 C 
ATOM      3  C   UNL     1      48.355   6.878  17.670  0.00  0.00    +0.000 C 
ENDROOT
BRANCH   1   7
ATOM      4  C   UNL     1      46.414   4.797  13.683  0.00  0.00    +0.000 A 
ATOM      5  C   UNL     1      47.305   5.850  13.542  0.00  0.00    +0.000 A 
ATOM      6  N   UNL     1      48.193   6.178  14.501  0.00  0.00    +0.000 NA
ATOM      7  C   UNL     1      48.168   5.448  15.642  0.00  0.00    +0.000 A 
ATOM      8  C   UNL     1      47.303   4.360  15.752  0.00  0.00    +0.000 A 
ATOM      9  N   UNL     1      46.416   4.015  14.792  0.00  0.00    +0.000 NA
BRANCH   4  10
ATOM     10  C   UNL     1      45.400   4.501  12.602  0.00  0.00    +0.000 C 
BRANCH  10  11
ATOM     11  N   UNL     1      44.101   3.990  13.096  0.00  0.00    +0.000 NA
ATOM     12  C   UNL     1      43.657   2.895  12.225  0.00  0.00    +0.000 C 
BRANCH  11  14
ATOM     13  C   UNL     1      42.484   5.380  11.783  0.00  0.00    +0.000 C 
ATOM     14  C   UNL     1      43.103   5.078  13.142  0.00  0.00    +0.000 C 
ENDBRANCH  11  14
ENDBRANCH  10  11
ENDBRANCH   4  10
ENDBRANCH   1   7
BRANCH   1  15
ATOM     15  C   UNL     1      49.480   4.635  17.681  0.00  0.00    +0.000 C 
BRANCH  15  16
ATOM     16  N   UNL     1      50.912   4.554  17.979  0.00  0.00    +0.000 N 
ATOM     17  H   UNL     1      51.300   5.276  18.574  0.00  0.00    +0.000 HD
BRANCH  16  18
ATOM     18  C   UNL     1      51.589   3.351  17.972  0.00  0.00    +0.000 A 
ATOM     19  C   UNL     1      52.790   3.110  18.616  0.00  0.00    +0.000 A 
ATOM     20  N   UNL     1      53.448   1.927  18.617  0.00  0.00    +0.000 NA
ATOM     21  C   UNL     1      52.832   0.934  17.937  0.00  0.00    +0.000 A 
ATOM     22  N   UNL     1      51.658   1.021  17.290  0.00  0.00    +0.000 NA
ATOM     23  C   UNL     1      51.066   2.229  17.342  0.00  0.00    +0.000 A 
BRANCH  21  24
ATOM     24  C   UNL     1      53.553  -0.393  17.922  0.00  0.00    +0.000 C 
ATOM     25  N   UNL     1      53.137  -1.302  18.866  0.00  0.00    +0.000 N 
ATOM     26  O   UNL     1      54.449  -0.675  17.140  0.00  0.00    +0.000 OA
ATOM     27  H   UNL     1      52.382  -1.060  19.499  0.00  0.00    +0.000 HD
ATOM     28  H   UNL     1      53.567  -2.211  18.892  0.00  0.00    +0.000 HD
ENDBRANCH  21  24
ENDBRANCH  16  18
ENDBRANCH  15  16
ENDBRANCH   1  15
TORSDOF 8
ENDMDL
MODEL 8
REMARK VINA RESULT:    -5.344      3.775      7.939
REMARK INTER + INTRA:          -8.966
REMARK INTER:                  -7.868
REMARK INTRA:                  -1.098
REMARK UNBOUND:                -1.122
REMARK  Name = 
REMARK  12 active torsions:
REMARK  status: ('A' for Active; 'I' for Inactive)
REMARK    1  A    between atoms: C_1  and  C_2
REMARK    2  A    between atoms: C_2  and  N_3
REMARK    3  A    between atoms: N_3  and  C_4
REMARK    4  A    between atoms: N_3  and  C_5
REMARK    5  A    between atoms: C_5  and  C_6
REMARK    6  A    between atoms: C_9  and  C_10
REMARK    7  A    between atoms: C_10  and  C_11
REMARK    8  A    between atoms: C_10  and  C_12
REMARK    9  A    between atoms: C_10  and  C_13
REMARK   10  A    between atoms: C_13  and  N_14
REMARK   11  A    between atoms: N_14  and  C_15
REMARK   12  A    between atoms: C_18  and  C_19
REMARK                            x       y       z     vdW  Elec       q    Type
REMARK                         _______ _______ _______ _____ _____    ______ ____
ROOT
ATOM      1  C   UNL     1      48.983   8.400  14.224  0.00  0.00    +0.000 C 
ATOM      2  C   UNL     1      50.345   7.911  13.683  0.00  0.00    +0.000 C 
ATOM      3  C   UNL     1      48.789   9.883  13.833  0.00  0.00    +0.000 C 
ENDROOT
BRANCH   1   7
ATOM      4  C   UNL     1      45.840   6.212  12.417  0.00  0.00    +0.000 A 
ATOM      5  C   UNL     1      47.053   5.615  12.730  0.00  0.00    +0.000 A 
ATOM      6  N   UNL     1      48.051   6.284  13.340  0.00  0.00    +0.000 NA
ATOM      7  C   UNL     1      47.837   7.593  13.618  0.00  0.00    +0.000 A 
ATOM      8  C   UNL     1      46.598   8.168  13.344  0.00  0.00    +0.000 A 
ATOM      9  N   UNL     1      45.585   7.504  12.744  0.00  0.00    +0.000 NA
BRANCH   4  10
ATOM     10  C   UNL     1      44.771   5.436  11.685  0.00  0.00    +0.000 C 
BRANCH  10  11
ATOM     11  N   UNL     1      45.279   4.347  10.818  0.00  0.00    +0.000 NA
ATOM     12  C   UNL     1      45.036   4.702   9.415  0.00  0.00    +0.000 C 
BRANCH  11  14
ATOM     13  C   UNL     1      43.401   3.238  12.046  0.00  0.00    +0.000 C 
ATOM     14  C   UNL     1      44.634   3.066  11.168  0.00  0.00    +0.000 C 
ENDBRANCH  11  14
ENDBRANCH  10  11
ENDBRANCH   4  10
ENDBRANCH   1   7
BRANCH   1  15
ATOM     15  C   UNL     1      48.987   8.317  15.783  0.00  0.00    +0.000 C 
BRANCH  15  16
ATOM     16  N   UNL     1      48.260   7.159  16.309  0.00  0.00    +0.000 N 
ATOM     17  H   UNL     1      47.277   7.087  16.074  0.00  0.00    +0.000 HD
BRANCH  16  18
ATOM     18  C   UNL     1      48.898   5.970  16.599  0.00  0.00    +0.000 A 
ATOM     19  C   UNL     1      48.297   4.723  16.598  0.00  0.00    +0.000 A 
ATOM     20  N   UNL     1      48.927   3.557  16.872  0.00  0.00    +0.000 NA
ATOM     21  C   UNL     1      50.246   3.673  17.145  0.00  0.00    +0.000 A 
ATOM     22  N   UNL     1      50.958   4.812  17.157  0.00  0.00    +0.000 NA
ATOM     23  C   UNL     1      50.260   5.926  16.867  0.00  0.00    +0.000 A 
BRANCH  21  24
ATOM     24  C   UNL     1      50.965   2.383  17.459  0.00  0.00    +0.000 C 
ATOM     25  N   UNL     1      52.015   2.492  18.342  0.00  0.00    +0.000 N 
ATOM     26  O   UNL     1      50.664   1.300  16.982  0.00  0.00    +0.000 OA
ATOM     27  H   UNL     1      52.244   3.395  18.742  0.00  0.00    +0.000 HD
ATOM     28  H   UNL     1      52.520   1.662  18.605  0.00  0.00    +0.000 HD
ENDBRANCH  21  24
ENDBRANCH  16  18
ENDBRANCH  15  16
ENDBRANCH   1  15
TORSDOF 8
ENDMDL
MODEL 9
REMARK VINA RESULT:    -5.319      3.619      6.550
REMARK INTER + INTRA:          -8.928
REMARK INTER:                  -7.895
REMARK INTRA:                  -1.033
REMARK UNBOUND:                -1.122
REMARK  Name = 
REMARK  12 active torsions:
REMARK  status: ('A' for Active; 'I' for Inactive)
REMARK    1  A    between atoms: C_1  and  C_2
REMARK    2  A    between atoms: C_2  and  N_3
REMARK    3  A    between atoms: N_3  and  C_4
REMARK    4  A    between atoms: N_3  and  C_5
REMARK    5  A    between atoms: C_5  and  C_6
REMARK    6  A    between atoms: C_9  and  C_10
REMARK    7  A    between atoms: C_10  and  C_11
REMARK    8  A    between atoms: C_10  and  C_12
REMARK    9  A    between atoms: C_10  and  C_13
REMARK   10  A    between atoms: C_13  and  N_14
REMARK   11  A    between atoms: N_14  and  C_15
REMARK   12  A    between atoms: C_18  and  C_19
REMARK                            x       y       z     vdW  Elec       q    Type
REMARK                         _______ _______ _______ _____ _____    ______ ____
ROOT
ATOM      1  C   UNL     1      49.416   8.331  14.039  0.00  0.00    +0.000 C 
ATOM      2  C   UNL     1      48.571   9.618  14.169  0.00  0.00    +0.000 C 
ATOM      3  C   UNL     1      50.822   8.704  13.515  0.00  0.00    +0.000 C 
ENDROOT
BRANCH   1   7
ATOM      4  C   UNL     1      49.766   6.353  17.768  0.00  0.00    +0.000 A 
ATOM      5  C   UNL     1      50.633   6.083  16.719  0.00  0.00    +0.000 A 
ATOM      6  N   UNL     1      50.562   6.729  15.539  0.00  0.00    +0.000 NA
ATOM      7  C   UNL     1      49.579   7.650  15.397  0.00  0.00    +0.000 A 
ATOM      8  C   UNL     1      48.747   7.950  16.473  0.00  0.00    +0.000 A 
ATOM      9  N   UNL     1      48.816   7.317  17.666  0.00  0.00    +0.000 NA
BRANCH   4  10
ATOM     10  C   UNL     1      49.850   5.566  19.054  0.00  0.00    +0.000 C 
BRANCH  10  11
ATOM     11  N   UNL     1      48.649   4.755  19.363  0.00  0.00    +0.000 NA
ATOM     12  C   UNL     1      48.614   4.485  20.805  0.00  0.00    +0.000 C 
BRANCH  11  14
ATOM     13  C   UNL     1      47.474   3.380  17.632  0.00  0.00    +0.000 C 
ATOM     14  C   UNL     1      48.659   3.502  18.582  0.00  0.00    +0.000 C 
ENDBRANCH  11  14
ENDBRANCH  10  11
ENDBRANCH   4  10
ENDBRANCH   1   7
BRANCH   1  15
ATOM     15  C   UNL     1      48.755   7.382  12.992  0.00  0.00    +0.000 C 
BRANCH  15  16
ATOM     16  N   UNL     1      48.147   6.189  13.586  0.00  0.00    +0.000 N 
ATOM     17  H   UNL     1      48.380   5.985  14.550  0.00  0.00    +0.000 HD
BRANCH  16  18
ATOM     18  C   UNL     1      46.940   5.688  13.139  0.00  0.00    +0.000 A 
ATOM     19  C   UNL     1      46.160   4.769  13.818  0.00  0.00    +0.000 A 
ATOM     20  N   UNL     1      44.972   4.287  13.384  0.00  0.00    +0.000 NA
ATOM     21  C   UNL     1      44.554   4.788  12.199  0.00  0.00    +0.000 A 
ATOM     22  N   UNL     1      45.196   5.698  11.450  0.00  0.00    +0.000 NA
ATOM     23  C   UNL     1      46.367   6.132  11.955  0.00  0.00    +0.000 A 
BRANCH  21  24
ATOM     24  C   UNL     1      43.233   4.258  11.695  0.00  0.00    +0.000 C 
ATOM     25  N   UNL     1      42.189   5.154  11.721  0.00  0.00    +0.000 N 
ATOM     26  O   UNL     1      43.065   3.120  11.285  0.00  0.00    +0.000 OA
ATOM     27  H   UNL     1      42.346   6.100  12.050  0.00  0.00    +0.000 HD
ATOM     28  H   UNL     1      41.288   4.864  11.379  0.00  0.00    +0.000 HD
ENDBRANCH  21  24
ENDBRANCH  16  18
ENDBRANCH  15  16
ENDBRANCH   1  15
TORSDOF 8
ENDMDL
