MODEL 1
REMARK VINA RESULT:    -8.249      0.000      0.000
REMARK INTER + INTRA:         -10.231
REMARK INTER:                 -10.177
REMARK INTRA:                  -0.053
REMARK UNBOUND:                -0.053
REMARK  Name = 
REMARK  5 active torsions:
REMARK  status: ('A' for Active; 'I' for Inactive)
REMARK    1  A    between atoms: C_1  and  C_2
REMARK    2  A    between atoms: C_4  and  C_5
REMARK    3  A    between atoms: C_10  and  N_11
REMARK    4  A    between atoms: N_11  and  C_12
REMARK    5  A    between atoms: C_12  and  C_13
REMARK                            x       y       z     vdW  Elec       q    Type
REMARK                         _______ _______ _______ _____ _____    ______ ____
ROOT
ATOM      1  N   UNL     1      43.769   4.774   9.622  0.00  0.00    +0.000 N 
ATOM      2  H   UNL     1      42.871   4.443   9.280  0.00  0.00    +0.000 HD
ENDROOT
BRANCH   1   9
ATOM      3  C   UNL     1      44.043   1.849   9.802  0.00  0.00    +0.000 C 
ATOM      4  C   UNL     1      44.956   2.725   8.988  0.00  0.00    +0.000 A 
ATOM      5  C   UNL     1      45.963   2.096   8.242  0.00  0.00    +0.000 A 
ATOM      6  C   UNL     1      46.816   2.867   7.470  0.00  0.00    +0.000 A 
ATOM      7  N   UNL     1      46.749   4.224   7.407  0.00  0.00    +0.000 NA
ATOM      8  C   UNL     1      45.769   4.810   8.154  0.00  0.00    +0.000 A 
ATOM      9  C   UNL     1      44.842   4.134   8.959  0.00  0.00    +0.000 A 
BRANCH   6  10
ATOM     10  C   UNL     1      47.850   2.168   6.640  0.00  0.00    +0.000 C 
ATOM     11  N   UNL     1      48.311   2.852   5.547  0.00  0.00    +0.000 N 
ATOM     12  O   UNL     1      48.245   1.033   6.890  0.00  0.00    +0.000 OA
ATOM     13  H   UNL     1      47.944   3.770   5.332  0.00  0.00    +0.000 HD
ATOM     14  H   UNL     1      48.972   2.400   4.931  0.00  0.00    +0.000 HD
ENDBRANCH   6  10
ENDBRANCH   1   9
BRANCH   1  15
ATOM     15  C   UNL     1      43.716   5.109  11.065  0.00  0.00    +0.000 C 
ATOM     16  C   UNL     1      42.838   4.151  11.876  0.00  0.00    +0.000 C 
ATOM     17  C   UNL     1      42.480   5.595  11.792  0.00  0.00    +0.000 C 
BRANCH  15  18
ATOM     18  C   UNL     1      45.072   5.476  11.672  0.00  0.00    +0.000 A 
ATOM     19  C   UNL     1      45.834   6.544  11.169  0.00  0.00    +0.000 A 
ATOM     20  C   UNL     1      47.037   6.932  11.767  0.00  0.00    +0.000 A 
ATOM     21  C   UNL     1      47.519   6.251  12.887  0.00  0.00    +0.000 A 
ATOM     22 CL   UNL     1      48.993   6.800  13.599  0.00  0.00    +0.000 Cl
ATOM     23  C   UNL     1      46.794   5.171  13.396  0.00  0.00    +0.000 A 
ATOM     24 CL   UNL     1      47.308   4.283  14.786  0.00  0.00    +0.000 Cl
ATOM     25  C   UNL     1      45.593   4.788  12.786  0.00  0.00    +0.000 A 
ENDBRANCH  15  18
ENDBRANCH   1  15
TORSDOF 4
ENDMDL
MODEL 2
REMARK VINA RESULT:    -7.978      1.162      1.541
REMARK INTER + INTRA:          -9.897
REMARK INTER:                  -9.726
REMARK INTRA:                  -0.170
REMARK UNBOUND:                -0.053
REMARK  Name = 
REMARK  5 active torsions:
REMARK  status: ('A' for Active; 'I' for Inactive)
REMARK    1  A    between atoms: C_1  and  C_2
REMARK    2  A    between atoms: C_4  and  C_5
REMARK    3  A    between atoms: C_10  and  N_11
REMARK    4  A    between atoms: N_11  and  C_12
REMARK    5  A    between atoms: C_12  and  C_13
REMARK                            x       y       z     vdW  Elec       q    Type
REMARK                         _______ _______ _______ _____ _____    ______ ____
ROOT
ATOM      1  N   UNL     1      43.877   4.821  10.044  0.00  0.00    +0.000 N 
ATOM      2  H   UNL     1      42.973   4.387   9.877  0.00  0.00    +0.000 HD
ENDROOT
BRANCH   1   9
ATOM      3  C   UNL     1      44.048   1.887   9.886  0.00  0.00    +0.000 C 
ATOM      4  C   UNL     1      44.951   2.819   9.123  0.00  0.00    +0.000 A 
ATOM      5  C   UNL     1      45.893   2.245   8.259  0.00  0.00    +0.000 A 
ATOM      6  C   UNL     1      46.735   3.070   7.530  0.00  0.00    +0.000 A 
ATOM      7  N   UNL     1      46.716   4.427   7.621  0.00  0.00    +0.000 NA
ATOM      8  C   UNL     1      45.799   4.957   8.481  0.00  0.00    +0.000 A 
ATOM      9  C   UNL     1      44.889   4.224   9.256  0.00  0.00    +0.000 A 
BRANCH   6  10
ATOM     10  C   UNL     1      47.697   2.435   6.572  0.00  0.00    +0.000 C 
ATOM     11  N   UNL     1      47.827   3.045   5.353  0.00  0.00    +0.000 N 
ATOM     12  O   UNL     1      48.313   1.407   6.835  0.00  0.00    +0.000 OA
ATOM     13  H   UNL     1      47.280   3.868   5.138  0.00  0.00    +0.000 HD
ATOM     14  H   UNL     1      48.427   2.625   4.658  0.00  0.00    +0.000 HD
ENDBRANCH   6  10
ENDBRANCH   1   9
BRANCH   1  15
ATOM     15  C   UNL     1      44.020   5.264  11.451  0.00  0.00    +0.000 C 
ATOM     16  C   UNL     1      44.074   4.103  12.449  0.00  0.00    +0.000 C 
ATOM     17  C   UNL     1      42.962   5.092  12.520  0.00  0.00    +0.000 C 
BRANCH  15  18
ATOM     18  C   UNL     1      45.039   6.388  11.652  0.00  0.00    +0.000 A 
ATOM     19  C   UNL     1      44.661   7.739  11.584  0.00  0.00    +0.000 A 
ATOM     20  C   UNL     1      45.572   8.769  11.841  0.00  0.00    +0.000 A 
ATOM     21  C   UNL     1      46.896   8.473  12.168  0.00  0.00    +0.000 A 
ATOM     22 CL   UNL     1      47.963   9.788  12.507  0.00  0.00    +0.000 Cl
ATOM     23  C   UNL     1      47.307   7.139  12.221  0.00  0.00    +0.000 A 
ATOM     24 CL   UNL     1      48.921   6.681  12.633  0.00  0.00    +0.000 Cl
ATOM     25  C   UNL     1      46.388   6.115  11.957  0.00  0.00    +0.000 A 
ENDBRANCH  15  18
ENDBRANCH   1  15
TORSDOF 4
ENDMDL
MODEL 3
REMARK VINA RESULT:    -7.972      4.269      6.640
REMARK INTER + INTRA:          -9.889
REMARK INTER:                  -9.588
REMARK INTRA:                  -0.301
REMARK UNBOUND:                -0.053
REMARK  Name = 
REMARK  5 active torsions:
REMARK  status: ('A' for Active; 'I' for Inactive)
REMARK    1  A    between atoms: C_1  and  C_2
REMARK    2  A    between atoms: C_4  and  C_5
REMARK    3  A    between atoms: C_10  and  N_11
REMARK    4  A    between atoms: N_11  and  C_12
REMARK    5  A    between atoms: C_12  and  C_13
REMARK                            x       y       z     vdW  Elec       q    Type
REMARK                         _______ _______ _______ _____ _____    ______ ____
ROOT
ATOM      1  N   UNL     1      45.492   5.160  11.366  0.00  0.00    +0.000 N 
ATOM      2  H   UNL     1      46.003   5.766  10.730  0.00  0.00    +0.000 HD
ENDROOT
BRANCH   1   9
ATOM      3  C   UNL     1      46.805   7.464  12.643  0.00  0.00    +0.000 C 
ATOM      4  C   UNL     1      46.783   6.081  13.236  0.00  0.00    +0.000 A 
ATOM      5  C   UNL     1      47.386   5.903  14.488  0.00  0.00    +0.000 A 
ATOM      6  C   UNL     1      47.376   4.648  15.073  0.00  0.00    +0.000 A 
ATOM      7  N   UNL     1      46.824   3.552  14.486  0.00  0.00    +0.000 NA
ATOM      8  C   UNL     1      46.257   3.752  13.261  0.00  0.00    +0.000 A 
ATOM      9  C   UNL     1      46.195   4.976  12.580  0.00  0.00    +0.000 A 
BRANCH   6  10
ATOM     10  C   UNL     1      47.980   4.493  16.436  0.00  0.00    +0.000 C 
ATOM     11  N   UNL     1      47.513   5.342  17.404  0.00  0.00    +0.000 N 
ATOM     12  O   UNL     1      48.868   3.682  16.680  0.00  0.00    +0.000 OA
ATOM     13  H   UNL     1      46.810   6.033  17.175  0.00  0.00    +0.000 HD
ATOM     14  H   UNL     1      47.926   5.308  18.325  0.00  0.00    +0.000 HD
ENDBRANCH   6  10
ENDBRANCH   1   9
BRANCH   1  15
ATOM     15  C   UNL     1      44.730   4.118  10.638  0.00  0.00    +0.000 C 
ATOM     16  C   UNL     1      43.230   4.413  10.553  0.00  0.00    +0.000 C 
ATOM     17  C   UNL     1      43.707   3.198  11.271  0.00  0.00    +0.000 C 
BRANCH  15  18
ATOM     18  C   UNL     1      45.407   3.631   9.355  0.00  0.00    +0.000 A 
ATOM     19  C   UNL     1      45.896   4.534   8.397  0.00  0.00    +0.000 A 
ATOM     20  C   UNL     1      46.583   4.097   7.260  0.00  0.00    +0.000 A 
ATOM     21  C   UNL     1      46.794   2.734   7.045  0.00  0.00    +0.000 A 
ATOM     22 CL   UNL     1      47.677   2.260   5.639  0.00  0.00    +0.000 Cl
ATOM     23  C   UNL     1      46.299   1.810   7.969  0.00  0.00    +0.000 A 
ATOM     24 CL   UNL     1      46.528   0.107   7.791  0.00  0.00    +0.000 Cl
ATOM     25  C   UNL     1      45.609   2.259   9.102  0.00  0.00    +0.000 A 
ENDBRANCH  15  18
ENDBRANCH   1  15
TORSDOF 4
ENDMDL
MODEL 4
REMARK VINA RESULT:    -7.330      1.954      2.643
REMARK INTER + INTRA:          -9.097
REMARK INTER:                  -8.963
REMARK INTRA:                  -0.134
REMARK UNBOUND:                -0.053
REMARK  Name = 
REMARK  5 active torsions:
REMARK  status: ('A' for Active; 'I' for Inactive)
REMARK    1  A    between atoms: C_1  and  C_2
REMARK    2  A    between atoms: C_4  and  C_5
REMARK    3  A    between atoms: C_10  and  N_11
REMARK    4  A    between atoms: N_11  and  C_12
REMARK    5  A    between atoms: C_12  and  C_13
REMARK                            x       y       z     vdW  Elec       q    Type
REMARK                         _______ _______ _______ _____ _____    ______ ____
ROOT
ATOM      1  N   UNL     1      43.789   4.513  10.346  0.00  0.00    +0.000 N 
ATOM      2  H   UNL     1      42.794   4.462  10.145  0.00  0.00    +0.000 HD
ENDROOT
BRANCH   1   9
ATOM      3  C   UNL     1      46.045   5.523   8.748  0.00  0.00    +0.000 C 
ATOM      4  C   UNL     1      45.646   4.073   8.807  0.00  0.00    +0.000 A 
ATOM      5  C   UNL     1      46.429   3.156   8.092  0.00  0.00    +0.000 A 
ATOM      6  C   UNL     1      46.101   1.811   8.130  0.00  0.00    +0.000 A 
ATOM      7  N   UNL     1      45.034   1.319   8.815  0.00  0.00    +0.000 NA
ATOM      8  C   UNL     1      44.282   2.237   9.491  0.00  0.00    +0.000 A 
ATOM      9  C   UNL     1      44.525   3.616   9.536  0.00  0.00    +0.000 A 
BRANCH   6  10
ATOM     10  C   UNL     1      46.984   0.843   7.401  0.00  0.00    +0.000 C 
ATOM     11  N   UNL     1      46.743  -0.485   7.630  0.00  0.00    +0.000 N 
ATOM     12  O   UNL     1      47.897   1.204   6.666  0.00  0.00    +0.000 OA
ATOM     13  H   UNL     1      46.013  -0.764   8.272  0.00  0.00    +0.000 HD
ATOM     14  H   UNL     1      47.345  -1.172   7.199  0.00  0.00    +0.000 HD
ENDBRANCH   6  10
ENDBRANCH   1   9
BRANCH   1  15
ATOM     15  C   UNL     1      44.046   4.801  11.776  0.00  0.00    +0.000 C 
ATOM     16  C   UNL     1      44.124   3.540  12.643  0.00  0.00    +0.000 C 
ATOM     17  C   UNL     1      43.059   4.551  12.897  0.00  0.00    +0.000 C 
BRANCH  15  18
ATOM     18  C   UNL     1      45.119   5.866  12.016  0.00  0.00    +0.000 A 
ATOM     19  C   UNL     1      46.435   5.515  12.359  0.00  0.00    +0.000 A 
ATOM     20  C   UNL     1      47.437   6.479  12.505  0.00  0.00    +0.000 A 
ATOM     21  C   UNL     1      47.145   7.832  12.318  0.00  0.00    +0.000 A 
ATOM     22 CL   UNL     1      48.433   8.970  12.480  0.00  0.00    +0.000 Cl
ATOM     23  C   UNL     1      45.840   8.213  11.999  0.00  0.00    +0.000 A 
ATOM     24 CL   UNL     1      45.394   9.861  11.735  0.00  0.00    +0.000 Cl
ATOM     25  C   UNL     1      44.843   7.239  11.860  0.00  0.00    +0.000 A 
ENDBRANCH  15  18
ENDBRANCH   1  15
TORSDOF 4
ENDMDL
MODEL 5
REMARK VINA RESULT:    -6.740      2.952      4.854
REMARK INTER + INTRA:          -8.370
REMARK INTER:                  -7.969
REMARK INTRA:                  -0.400
REMARK UNBOUND:                -0.053
REMARK  Name = 
REMARK  5 active torsions:
REMARK  status: ('A' for Active; 'I' for Inactive)
REMARK    1  A    between atoms: C_1  and  C_2
REMARK    2  A    between atoms: C_4  and  C_5
REMARK    3  A    between atoms: C_10  and  N_11
REMARK    4  A    between atoms: N_11  and  C_12
REMARK    5  A    between atoms: C_12  and  C_13
REMARK                            x       y       z     vdW  Elec       q    Type
REMARK                         _______ _______ _______ _____ _____    ______ ____
ROOT
ATOM      1  N   UNL     1      46.072   5.938  13.680  0.00  0.00    +0.000 N 
ATOM      2  H   UNL     1      45.571   5.715  14.536  0.00  0.00    +0.000 HD
ENDROOT
BRANCH   1   9
ATOM      3  C   UNL     1      45.067   7.301  11.273  0.00  0.00    +0.000 C 
ATOM      4  C   UNL     1      45.166   5.805  11.406  0.00  0.00    +0.000 A 
ATOM      5  C   UNL     1      44.797   5.031  10.297  0.00  0.00    +0.000 A 
ATOM      6  C   UNL     1      44.885   3.651  10.376  0.00  0.00    +0.000 A 
ATOM      7  N   UNL     1      45.295   2.988  11.491  0.00  0.00    +0.000 NA
ATOM      8  C   UNL     1      45.634   3.768  12.559  0.00  0.00    +0.000 A 
ATOM      9  C   UNL     1      45.598   5.168  12.590  0.00  0.00    +0.000 A 
BRANCH   6  10
ATOM     10  C   UNL     1      44.537   2.846   9.160  0.00  0.00    +0.000 C 
ATOM     11  N   UNL     1      44.208   3.557   8.037  0.00  0.00    +0.000 N 
ATOM     12  O   UNL     1      44.509   1.619   9.164  0.00  0.00    +0.000 OA
ATOM     13  H   UNL     1      44.197   4.569   8.064  0.00  0.00    +0.000 HD
ATOM     14  H   UNL     1      43.919   3.057   7.209  0.00  0.00    +0.000 HD
ENDBRANCH   6  10
ENDBRANCH   1   9
BRANCH   1  15
ATOM     15  C   UNL     1      47.488   6.284  13.946  0.00  0.00    +0.000 C 
ATOM     16  C   UNL     1      47.829   7.739  13.610  0.00  0.00    +0.000 C 
ATOM     17  C   UNL     1      48.506   6.630  12.880  0.00  0.00    +0.000 C 
BRANCH  15  18
ATOM     18  C   UNL     1      48.025   5.742  15.273  0.00  0.00    +0.000 A 
ATOM     19  C   UNL     1      49.028   6.418  15.988  0.00  0.00    +0.000 A 
ATOM     20  C   UNL     1      49.468   5.969  17.237  0.00  0.00    +0.000 A 
ATOM     21  C   UNL     1      48.917   4.818  17.806  0.00  0.00    +0.000 A 
ATOM     22 CL   UNL     1      49.479   4.334  19.365  0.00  0.00    +0.000 Cl
ATOM     23  C   UNL     1      47.934   4.113  17.108  0.00  0.00    +0.000 A 
ATOM     24 CL   UNL     1      47.188   2.690  17.743  0.00  0.00    +0.000 Cl
ATOM     25  C   UNL     1      47.504   4.569  15.855  0.00  0.00    +0.000 A 
ENDBRANCH  15  18
ENDBRANCH   1  15
TORSDOF 4
ENDMDL
MODEL 6
REMARK VINA RESULT:    -6.656      3.433      5.474
REMARK INTER + INTRA:          -8.266
REMARK INTER:                  -7.734
REMARK INTRA:                  -0.532
REMARK UNBOUND:                -0.053
REMARK  Name = 
REMARK  5 active torsions:
REMARK  status: ('A' for Active; 'I' for Inactive)
REMARK    1  A    between atoms: C_1  and  C_2
REMARK    2  A    between atoms: C_4  and  C_5
REMARK    3  A    between atoms: C_10  and  N_11
REMARK    4  A    between atoms: N_11  and  C_12
REMARK    5  A    between atoms: C_12  and  C_13
REMARK                            x       y       z     vdW  Elec       q    Type
REMARK                         _______ _______ _______ _____ _____    ______ ____
ROOT
ATOM      1  N   UNL     1      46.671   7.101  13.648  0.00  0.00    +0.000 N 
ATOM      2  H   UNL     1      46.469   7.214  14.637  0.00  0.00    +0.000 HD
ENDROOT
BRANCH   1   9
ATOM      3  C   UNL     1      44.809   7.652  11.436  0.00  0.00    +0.000 C 
ATOM      4  C   UNL     1      45.068   6.276  11.986  0.00  0.00    +0.000 A 
ATOM      5  C   UNL     1      44.414   5.199  11.373  0.00  0.00    +0.000 A 
ATOM      6  C   UNL     1      44.635   3.915  11.843  0.00  0.00    +0.000 A 
ATOM      7  N   UNL     1      45.448   3.632  12.896  0.00  0.00    +0.000 NA
ATOM      8  C   UNL     1      46.061   4.702  13.483  0.00  0.00    +0.000 A 
ATOM      9  C   UNL     1      45.924   6.039  13.086  0.00  0.00    +0.000 A 
BRANCH   6  10
ATOM     10  C   UNL     1      43.966   2.774  11.137  0.00  0.00    +0.000 C 
ATOM     11  N   UNL     1      44.570   2.336   9.989  0.00  0.00    +0.000 N 
ATOM     12  O   UNL     1      42.918   2.274  11.532  0.00  0.00    +0.000 OA
ATOM     13  H   UNL     1      45.411   2.788   9.655  0.00  0.00    +0.000 HD
ATOM     14  H   UNL     1      44.128   1.603   9.454  0.00  0.00    +0.000 HD
ENDBRANCH   6  10
ENDBRANCH   1   9
BRANCH   1  15
ATOM     15  C   UNL     1      48.083   7.428  13.336  0.00  0.00    +0.000 C 
ATOM     16  C   UNL     1      48.250   8.782  12.639  0.00  0.00    +0.000 C 
ATOM     17  C   UNL     1      48.654   7.532  11.938  0.00  0.00    +0.000 C 
BRANCH  15  18
ATOM     18  C   UNL     1      49.062   7.114  14.469  0.00  0.00    +0.000 A 
ATOM     19  C   UNL     1      50.385   7.587  14.446  0.00  0.00    +0.000 A 
ATOM     20  C   UNL     1      51.261   7.367  15.513  0.00  0.00    +0.000 A 
ATOM     21  C   UNL     1      50.837   6.657  16.638  0.00  0.00    +0.000 A 
ATOM     22 CL   UNL     1      51.956   6.448  17.936  0.00  0.00    +0.000 Cl
ATOM     23  C   UNL     1      49.534   6.155  16.680  0.00  0.00    +0.000 A 
ATOM     24 CL   UNL     1      48.921   5.280  18.038  0.00  0.00    +0.000 Cl
ATOM     25  C   UNL     1      48.666   6.377  15.603  0.00  0.00    +0.000 A 
ENDBRANCH  15  18
ENDBRANCH   1  15
TORSDOF 4
ENDMDL
MODEL 7
REMARK VINA RESULT:    -6.501      3.463      5.481
REMARK INTER + INTRA:          -8.075
REMARK INTER:                  -7.362
REMARK INTRA:                  -0.714
REMARK UNBOUND:                -0.053
REMARK  Name = 
REMARK  5 active torsions:
REMARK  status: ('A' for Active; 'I' for Inactive)
REMARK    1  A    between atoms: C_1  and  C_2
REMARK    2  A    between atoms: C_4  and  C_5
REMARK    3  A    between atoms: C_10  and  N_11
REMARK    4  A    between atoms: N_11  and  C_12
REMARK    5  A    between atoms: C_12  and  C_13
REMARK                            x       y       z     vdW  Elec       q    Type
REMARK                         _______ _______ _______ _____ _____    ______ ____
ROOT
ATOM      1  N   UNL     1      46.539   7.383  13.260  0.00  0.00    +0.000 N 
ATOM      2  H   UNL     1      46.210   7.494  14.215  0.00  0.00    +0.000 HD
ENDROOT
BRANCH   1   9
ATOM      3  C   UNL     1      46.941   4.753  14.518  0.00  0.00    +0.000 C 
ATOM      4  C   UNL     1      46.121   4.967  13.275  0.00  0.00    +0.000 A 
ATOM      5  C   UNL     1      45.481   3.850  12.721  0.00  0.00    +0.000 A 
ATOM      6  C   UNL     1      44.707   4.008  11.583  0.00  0.00    +0.000 A 
ATOM      7  N   UNL     1      44.544   5.200  10.948  0.00  0.00    +0.000 NA
ATOM      8  C   UNL     1      45.190   6.267  11.502  0.00  0.00    +0.000 A 
ATOM      9  C   UNL     1      45.986   6.229  12.655  0.00  0.00    +0.000 A 
BRANCH   6  10
ATOM     10  C   UNL     1      43.989   2.810  11.040  0.00  0.00    +0.000 C 
ATOM     11  N   UNL     1      44.547   2.218   9.938  0.00  0.00    +0.000 N 
ATOM     12  O   UNL     1      42.941   2.391  11.521  0.00  0.00    +0.000 OA
ATOM     13  H   UNL     1      45.389   2.602   9.530  0.00  0.00    +0.000 HD
ATOM     14  H   UNL     1      44.071   1.438   9.509  0.00  0.00    +0.000 HD
ENDBRANCH   6  10
ENDBRANCH   1   9
BRANCH   1  15
ATOM     15  C   UNL     1      47.932   7.863  13.100  0.00  0.00    +0.000 C 
ATOM     16  C   UNL     1      48.072   8.973  12.053  0.00  0.00    +0.000 C 
ATOM     17  C   UNL     1      48.771   7.672  11.854  0.00  0.00    +0.000 C 
BRANCH  15  18
ATOM     18  C   UNL     1      48.678   8.067  14.419  0.00  0.00    +0.000 A 
ATOM     19  C   UNL     1      48.173   8.909  15.424  0.00  0.00    +0.000 A 
ATOM     20  C   UNL     1      48.811   9.040  16.661  0.00  0.00    +0.000 A 
ATOM     21  C   UNL     1      49.986   8.332  16.926  0.00  0.00    +0.000 A 
ATOM     22 CL   UNL     1      50.708   8.511  18.484  0.00  0.00    +0.000 Cl
ATOM     23  C   UNL     1      50.525   7.505  15.938  0.00  0.00    +0.000 A 
ATOM     24 CL   UNL     1      51.964   6.582  16.185  0.00  0.00    +0.000 Cl
ATOM     25  C   UNL     1      49.879   7.385  14.700  0.00  0.00    +0.000 A 
ENDBRANCH  15  18
ENDBRANCH   1  15
TORSDOF 4
ENDMDL
MODEL 8
REMARK VINA RESULT:    -6.432      4.853      7.421
REMARK INTER + INTRA:          -7.990
REMARK INTER:                  -7.494
REMARK INTRA:                  -0.496
REMARK UNBOUND:                -0.053
REMARK  Name = 
REMARK  5 active torsions:
REMARK  status: ('A' for Active; 'I' for Inactive)
REMARK    1  A    between atoms: C_1  and  C_2
REMARK    2  A    between atoms: C_4  and  C_5
REMARK    3  A    between atoms: C_10  and  N_11
REMARK    4  A    between atoms: N_11  and  C_12
REMARK    5  A    between atoms: C_12  and  C_13
REMARK                            x       y       z     vdW  Elec       q    Type
REMARK                         _______ _______ _______ _____ _____    ______ ____
ROOT
ATOM      1  N   UNL     1      47.660   6.361  12.966  0.00  0.00    +0.000 N 
ATOM      2  H   UNL     1      48.263   5.886  12.300  0.00  0.00    +0.000 HD
ENDROOT
BRANCH   1   9
ATOM      3  C   UNL     1      49.439   7.664  14.916  0.00  0.00    +0.000 C 
ATOM      4  C   UNL     1      48.597   6.457  15.230  0.00  0.00    +0.000 A 
ATOM      5  C   UNL     1      48.638   5.962  16.540  0.00  0.00    +0.000 A 
ATOM      6  C   UNL     1      47.869   4.859  16.872  0.00  0.00    +0.000 A 
ATOM      7  N   UNL     1      47.077   4.202  15.982  0.00  0.00    +0.000 NA
ATOM      8  C   UNL     1      47.068   4.698  14.710  0.00  0.00    +0.000 A 
ATOM      9  C   UNL     1      47.792   5.812  14.264  0.00  0.00    +0.000 A 
BRANCH   6  10
ATOM     10  C   UNL     1      47.887   4.381  18.293  0.00  0.00    +0.000 C 
ATOM     11  N   UNL     1      47.892   3.024  18.474  0.00  0.00    +0.000 N 
ATOM     12  O   UNL     1      47.864   5.148  19.250  0.00  0.00    +0.000 OA
ATOM     13  H   UNL     1      47.869   2.406  17.673  0.00  0.00    +0.000 HD
ATOM     14  H   UNL     1      47.854   2.656  19.414  0.00  0.00    +0.000 HD
ENDBRANCH   6  10
ENDBRANCH   1   9
BRANCH   1  15
ATOM     15  C   UNL     1      46.394   6.809  12.339  0.00  0.00    +0.000 C 
ATOM     16  C   UNL     1      46.427   8.274  11.892  0.00  0.00    +0.000 C 
ATOM     17  C   UNL     1      45.455   7.837  12.934  0.00  0.00    +0.000 C 
BRANCH  15  18
ATOM     18  C   UNL     1      45.795   5.804  11.354  0.00  0.00    +0.000 A 
ATOM     19  C   UNL     1      46.133   5.824   9.990  0.00  0.00    +0.000 A 
ATOM     20  C   UNL     1      45.647   4.862   9.099  0.00  0.00    +0.000 A 
ATOM     21  C   UNL     1      44.799   3.849   9.551  0.00  0.00    +0.000 A 
ATOM     22 CL   UNL     1      44.260   2.672   8.408  0.00  0.00    +0.000 Cl
ATOM     23  C   UNL     1      44.427   3.816  10.897  0.00  0.00    +0.000 A 
ATOM     24 CL   UNL     1      43.395   2.590  11.544  0.00  0.00    +0.000 Cl
ATOM     25  C   UNL     1      44.915   4.788  11.779  0.00  0.00    +0.000 A 
ENDBRANCH  15  18
ENDBRANCH   1  15
TORSDOF 4
ENDMDL
MODEL 9
REMARK VINA RESULT:    -6.131      4.028      6.143
REMARK INTER + INTRA:          -7.619
REMARK INTER:                  -6.912
REMARK INTRA:                  -0.707
REMARK UNBOUND:                -0.053
REMARK  Name = 
REMARK  5 active torsions:
REMARK  status: ('A' for Active; 'I' for Inactive)
REMARK    1  A    between atoms: C_1  and  C_2
REMARK    2  A    between atoms: C_4  and  C_5
REMARK    3  A    between atoms: C_10  and  N_11
REMARK    4  A    between atoms: N_11  and  C_12
REMARK    5  A    between atoms: C_12  and  C_13
REMARK                            x       y       z     vdW  Elec       q    Type
REMARK                         _______ _______ _______ _____ _____    ______ ____
ROOT
ATOM      1  N   UNL     1      48.304   6.477  12.988  0.00  0.00    +0.000 N 
ATOM      2  H   UNL     1      49.086   6.090  12.466  0.00  0.00    +0.000 HD
ENDROOT
BRANCH   1   9
ATOM      3  C   UNL     1      46.974   4.534  14.754  0.00  0.00    +0.000 C 
ATOM      4  C   UNL     1      46.397   5.007  13.447  0.00  0.00    +0.000 A 
ATOM      5  C   UNL     1      45.134   4.520  13.083  0.00  0.00    +0.000 A 
ATOM      6  C   UNL     1      44.563   4.941  11.893  0.00  0.00    +0.000 A 
ATOM      7  N   UNL     1      45.175   5.796  11.030  0.00  0.00    +0.000 NA
ATOM      8  C   UNL     1      46.410   6.242  11.404  0.00  0.00    +0.000 A 
ATOM      9  C   UNL     1      47.077   5.897  12.587  0.00  0.00    +0.000 A 
BRANCH   6  10
ATOM     10  C   UNL     1      43.189   4.450  11.551  0.00  0.00    +0.000 C 
ATOM     11  N   UNL     1      42.163   5.334  11.752  0.00  0.00    +0.000 N 
ATOM     12  O   UNL     1      42.974   3.311  11.147  0.00  0.00    +0.000 OA
ATOM     13  H   UNL     1      42.355   6.255  12.125  0.00  0.00    +0.000 HD
ATOM     14  H   UNL     1      41.216   5.030  11.581  0.00  0.00    +0.000 HD
ENDBRANCH   6  10
ENDBRANCH   1   9
BRANCH   1  15
ATOM     15  C   UNL     1      48.522   7.904  13.322  0.00  0.00    +0.000 C 
ATOM     16  C   UNL     1      48.800   8.142  14.810  0.00  0.00    +0.000 C 
ATOM     17  C   UNL     1      47.591   8.740  14.176  0.00  0.00    +0.000 C 
BRANCH  15  18
ATOM     18  C   UNL     1      49.416   8.649  12.329  0.00  0.00    +0.000 A 
ATOM     19  C   UNL     1      49.085   9.934  11.867  0.00  0.00    +0.000 A 
ATOM     20  C   UNL     1      49.935  10.650  11.019  0.00  0.00    +0.000 A 
ATOM     21  C   UNL     1      51.145  10.093  10.601  0.00  0.00    +0.000 A 
ATOM     22 CL   UNL     1      52.166  11.041   9.581  0.00  0.00    +0.000 Cl
ATOM     23  C   UNL     1      51.491   8.808  11.026  0.00  0.00    +0.000 A 
ATOM     24 CL   UNL     1      52.975   8.049  10.570  0.00  0.00    +0.000 Cl
ATOM     25  C   UNL     1      50.629   8.098  11.871  0.00  0.00    +0.000 A 
ENDBRANCH  15  18
ENDBRANCH   1  15
TORSDOF 4
ENDMDL
