MODEL 1
REMARK VINA RESULT:    -6.204      0.000      0.000
REMARK INTER + INTRA:          -8.633
REMARK INTER:                  -8.018
REMARK INTRA:                  -0.615
REMARK UNBOUND:                -0.615
REMARK  Name = 
REMARK  7 active torsions:
REMARK  status: ('A' for Active; 'I' for Inactive)
REMARK    1  A    between atoms: C_1  and  N_2
REMARK    2  A    between atoms: N_2  and  C_3
REMARK    3  A    between atoms: N_2  and  C_4
REMARK    4  A    between atoms: C_4  and  C_5
REMARK    5  A    between atoms: C_5  and  C_6
REMARK    6  A    between atoms: C_9  and  C_10
REMARK    7  A    between atoms: C_10  and  N_11
REMARK                            x       y       z     vdW  Elec       q    Type
REMARK                         _______ _______ _______ _____ _____    ______ ____
ROOT
ATOM      1  C   UNL     1      44.921   3.489   9.465  0.00  0.00    +0.000 A 
ATOM      2  C   UNL     1      44.608   2.895  10.692  0.00  0.00    +0.000 A 
ATOM      3  C   UNL     1      44.659   3.636  11.875  0.00  0.00    +0.000 A 
ATOM      4  C   UNL     1      45.036   4.985  11.856  0.00  0.00    +0.000 A 
ATOM      5  C   UNL     1      45.352   5.579  10.627  0.00  0.00    +0.000 A 
ATOM      6  C   UNL     1      45.292   4.839   9.444  0.00  0.00    +0.000 A 
ENDROOT
BRANCH   1   7
ATOM      7  C   UNL     1      44.892   2.686   8.183  0.00  0.00    +0.000 C 
BRANCH   7   8
ATOM      8  C   UNL     1      45.992   3.110   7.193  0.00  0.00    +0.000 C 
BRANCH   8  10
ATOM      9  C   UNL     1      46.843   0.900   7.610  0.00  0.00    +0.000 C 
ATOM     10  N   UNL     1      47.208   2.270   7.235  0.00  0.00    +0.000 NA
ATOM     11  C   UNL     1      47.918   2.257   5.956  0.00  0.00    +0.000 C 
ENDBRANCH   8  10
ENDBRANCH   7   8
ENDBRANCH   1   7
BRANCH   4  12
ATOM     12  C   UNL     1      45.121   5.780  13.135  0.00  0.00    +0.000 C 
BRANCH  12  13
ATOM     13  N   UNL     1      46.371   6.525  13.240  0.00  0.00    +0.000 N 
ATOM     14  C   UNL     1      47.572   5.967  13.621  0.00  0.00    +0.000 A 
ATOM     15  C   UNL     1      48.547   6.935  13.508  0.00  0.00    +0.000 A 
ATOM     16  C   UNL     1      47.922   8.109  13.032  0.00  0.00    +0.000 A 
ATOM     17  N   UNL     1      48.489   9.308  12.746  0.00  0.00    +0.000 NA
ATOM     18  C   UNL     1      47.630  10.243  12.291  0.00  0.00    +0.000 A 
ATOM     19  C   UNL     1      46.266  10.068  12.110  0.00  0.00    +0.000 A 
ATOM     20  C   UNL     1      45.694   8.834  12.405  0.00  0.00    +0.000 A 
ATOM     21  C   UNL     1      46.561   7.841  12.872  0.00  0.00    +0.000 A 
ENDBRANCH  12  13
ENDBRANCH   4  12
TORSDOF 5
ENDMDL
MODEL 2
REMARK VINA RESULT:    -6.198      2.192      7.169
REMARK INTER + INTRA:          -8.624
REMARK INTER:                  -8.143
REMARK INTRA:                  -0.481
REMARK UNBOUND:                -0.615
REMARK  Name = 
REMARK  7 active torsions:
REMARK  status: ('A' for Active; 'I' for Inactive)
REMARK    1  A    between atoms: C_1  and  N_2
REMARK    2  A    between atoms: N_2  and  C_3
REMARK    3  A    between atoms: N_2  and  C_4
REMARK    4  A    between atoms: C_4  and  C_5
REMARK    5  A    between atoms: C_5  and  C_6
REMARK    6  A    between atoms: C_9  and  C_10
REMARK    7  A    between atoms: C_10  and  N_11
REMARK                            x       y       z     vdW  Elec       q    Type
REMARK                         _______ _______ _______ _____ _____    ______ ____
ROOT
ATOM      1  C   UNL     1      48.093   7.216  13.699  0.00  0.00    +0.000 A 
ATOM      2  C   UNL     1      47.181   8.251  13.463  0.00  0.00    +0.000 A 
ATOM      3  C   UNL     1      45.953   7.992  12.850  0.00  0.00    +0.000 A 
ATOM      4  C   UNL     1      45.616   6.694  12.449  0.00  0.00    +0.000 A 
ATOM      5  C   UNL     1      46.530   5.657  12.682  0.00  0.00    +0.000 A 
ATOM      6  C   UNL     1      47.754   5.916  13.303  0.00  0.00    +0.000 A 
ENDROOT
BRANCH   1   7
ATOM      7  C   UNL     1      49.436   7.493  14.339  0.00  0.00    +0.000 C 
BRANCH   7   8
ATOM      8  C   UNL     1      49.432   7.239  15.857  0.00  0.00    +0.000 C 
BRANCH   8  10
ATOM      9  C   UNL     1      51.017   5.853  17.016  0.00  0.00    +0.000 C 
ATOM     10  N   UNL     1      49.770   5.854  16.245  0.00  0.00    +0.000 NA
ATOM     11  C   UNL     1      48.708   5.221  17.028  0.00  0.00    +0.000 C 
ENDBRANCH   8  10
ENDBRANCH   7   8
ENDBRANCH   1   7
BRANCH   4  12
ATOM     12  C   UNL     1      44.303   6.415  11.761  0.00  0.00    +0.000 C 
BRANCH  12  13
ATOM     13  N   UNL     1      44.142   5.003  11.431  0.00  0.00    +0.000 N 
ATOM     14  C   UNL     1      43.395   4.117  12.176  0.00  0.00    +0.000 A 
ATOM     15  C   UNL     1      43.384   2.907  11.516  0.00  0.00    +0.000 A 
ATOM     16  C   UNL     1      44.133   3.067  10.329  0.00  0.00    +0.000 A 
ATOM     17  N   UNL     1      44.375   2.155   9.355  0.00  0.00    +0.000 NA
ATOM     18  C   UNL     1      45.120   2.610   8.327  0.00  0.00    +0.000 A 
ATOM     19  C   UNL     1      45.636   3.892   8.210  0.00  0.00    +0.000 A 
ATOM     20  C   UNL     1      45.383   4.822   9.214  0.00  0.00    +0.000 A 
ATOM     21  C   UNL     1      44.606   4.381  10.290  0.00  0.00    +0.000 A 
ENDBRANCH  12  13
ENDBRANCH   4  12
TORSDOF 5
ENDMDL
MODEL 3
REMARK VINA RESULT:    -6.159      1.156      2.034
REMARK INTER + INTRA:          -8.574
REMARK INTER:                  -8.068
REMARK INTRA:                  -0.506
REMARK UNBOUND:                -0.615
REMARK  Name = 
REMARK  7 active torsions:
REMARK  status: ('A' for Active; 'I' for Inactive)
REMARK    1  A    between atoms: C_1  and  N_2
REMARK    2  A    between atoms: N_2  and  C_3
REMARK    3  A    between atoms: N_2  and  C_4
REMARK    4  A    between atoms: C_4  and  C_5
REMARK    5  A    between atoms: C_5  and  C_6
REMARK    6  A    between atoms: C_9  and  C_10
REMARK    7  A    between atoms: C_10  and  N_11
REMARK                            x       y       z     vdW  Elec       q    Type
REMARK                         _______ _______ _______ _____ _____    ______ ____
ROOT
ATOM      1  C   UNL     1      44.920   3.745   9.957  0.00  0.00    +0.000 A 
ATOM      2  C   UNL     1      44.920   3.286  11.279  0.00  0.00    +0.000 A 
ATOM      3  C   UNL     1      45.288   4.134  12.327  0.00  0.00    +0.000 A 
ATOM      4  C   UNL     1      45.674   5.455  12.073  0.00  0.00    +0.000 A 
ATOM      5  C   UNL     1      45.676   5.914  10.749  0.00  0.00    +0.000 A 
ATOM      6  C   UNL     1      45.300   5.069   9.703  0.00  0.00    +0.000 A 
ENDROOT
BRANCH   1   7
ATOM      7  C   UNL     1      44.547   2.825   8.815  0.00  0.00    +0.000 C 
BRANCH   7   8
ATOM      8  C   UNL     1      45.623   1.761   8.536  0.00  0.00    +0.000 C 
BRANCH   8  10
ATOM      9  C   UNL     1      47.415   1.081   7.084  0.00  0.00    +0.000 C 
ATOM     10  N   UNL     1      46.746   2.232   7.699  0.00  0.00    +0.000 NA
ATOM     11  C   UNL     1      46.310   3.162   6.657  0.00  0.00    +0.000 C 
ENDBRANCH   8  10
ENDBRANCH   7   8
ENDBRANCH   1   7
BRANCH   4  12
ATOM     12  C   UNL     1      46.100   6.365  13.198  0.00  0.00    +0.000 C 
BRANCH  12  13
ATOM     13  N   UNL     1      46.505   7.682  12.720  0.00  0.00    +0.000 N 
ATOM     14  C   UNL     1      45.689   8.792  12.733  0.00  0.00    +0.000 A 
ATOM     15  C   UNL     1      46.432   9.873  12.307  0.00  0.00    +0.000 A 
ATOM     16  C   UNL     1      47.739   9.408  12.043  0.00  0.00    +0.000 A 
ATOM     17  N   UNL     1      48.817  10.117  11.628  0.00  0.00    +0.000 NA
ATOM     18  C   UNL     1      49.945   9.393  11.474  0.00  0.00    +0.000 A 
ATOM     19  C   UNL     1      50.065   8.029  11.698  0.00  0.00    +0.000 A 
ATOM     20  C   UNL     1      48.953   7.309  12.126  0.00  0.00    +0.000 A 
ATOM     21  C   UNL     1      47.771   8.036  12.301  0.00  0.00    +0.000 A 
ENDBRANCH  12  13
ENDBRANCH   4  12
TORSDOF 5
ENDMDL
MODEL 4
REMARK VINA RESULT:    -5.840      1.871      3.417
REMARK INTER + INTRA:          -8.162
REMARK INTER:                  -8.163
REMARK INTRA:                   0.001
REMARK UNBOUND:                -0.615
REMARK  Name = 
REMARK  7 active torsions:
REMARK  status: ('A' for Active; 'I' for Inactive)
REMARK    1  A    between atoms: C_1  and  N_2
REMARK    2  A    between atoms: N_2  and  C_3
REMARK    3  A    between atoms: N_2  and  C_4
REMARK    4  A    between atoms: C_4  and  C_5
REMARK    5  A    between atoms: C_5  and  C_6
REMARK    6  A    between atoms: C_9  and  C_10
REMARK    7  A    between atoms: C_10  and  N_11
REMARK                            x       y       z     vdW  Elec       q    Type
REMARK                         _______ _______ _______ _____ _____    ______ ____
ROOT
ATOM      1  C   UNL     1      45.252   4.099   9.279  0.00  0.00    +0.000 A 
ATOM      2  C   UNL     1      45.593   5.392   9.690  0.00  0.00    +0.000 A 
ATOM      3  C   UNL     1      45.633   5.721  11.047  0.00  0.00    +0.000 A 
ATOM      4  C   UNL     1      45.320   4.765  12.022  0.00  0.00    +0.000 A 
ATOM      5  C   UNL     1      44.975   3.471  11.611  0.00  0.00    +0.000 A 
ATOM      6  C   UNL     1      44.945   3.141  10.254  0.00  0.00    +0.000 A 
ENDROOT
BRANCH   1   7
ATOM      7  C   UNL     1      45.182   3.743   7.811  0.00  0.00    +0.000 C 
BRANCH   7   8
ATOM      8  C   UNL     1      46.574   3.579   7.174  0.00  0.00    +0.000 C 
BRANCH   8  10
ATOM      9  C   UNL     1      47.546   2.582   5.214  0.00  0.00    +0.000 C 
ATOM     10  N   UNL     1      46.758   2.320   6.423  0.00  0.00    +0.000 NA
ATOM     11  C   UNL     1      47.416   1.287   7.224  0.00  0.00    +0.000 C 
ENDBRANCH   8  10
ENDBRANCH   7   8
ENDBRANCH   1   7
BRANCH   4  12
ATOM     12  C   UNL     1      45.333   5.124  13.487  0.00  0.00    +0.000 C 
BRANCH  12  13
ATOM     13  N   UNL     1      46.646   5.579  13.933  0.00  0.00    +0.000 N 
ATOM     14  C   UNL     1      47.333   6.628  13.364  0.00  0.00    +0.000 A 
ATOM     15  C   UNL     1      48.479   6.837  14.101  0.00  0.00    +0.000 A 
ATOM     16  C   UNL     1      48.480   5.898  15.156  0.00  0.00    +0.000 A 
ATOM     17  N   UNL     1      49.393   5.743  16.146  0.00  0.00    +0.000 NA
ATOM     18  C   UNL     1      49.113   4.759  17.024  0.00  0.00    +0.000 A 
ATOM     19  C   UNL     1      48.003   3.929  16.978  0.00  0.00    +0.000 A 
ATOM     20  C   UNL     1      47.070   4.095  15.959  0.00  0.00    +0.000 A 
ATOM     21  C   UNL     1      47.330   5.114  15.037  0.00  0.00    +0.000 A 
ENDBRANCH  12  13
ENDBRANCH   4  12
TORSDOF 5
ENDMDL
MODEL 5
REMARK VINA RESULT:    -5.683      1.898      6.736
REMARK INTER + INTRA:          -7.959
REMARK INTER:                  -7.476
REMARK INTRA:                  -0.483
REMARK UNBOUND:                -0.615
REMARK  Name = 
REMARK  7 active torsions:
REMARK  status: ('A' for Active; 'I' for Inactive)
REMARK    1  A    between atoms: C_1  and  N_2
REMARK    2  A    between atoms: N_2  and  C_3
REMARK    3  A    between atoms: N_2  and  C_4
REMARK    4  A    between atoms: C_4  and  C_5
REMARK    5  A    between atoms: C_5  and  C_6
REMARK    6  A    between atoms: C_9  and  C_10
REMARK    7  A    between atoms: C_10  and  N_11
REMARK                            x       y       z     vdW  Elec       q    Type
REMARK                         _______ _______ _______ _____ _____    ______ ____
ROOT
ATOM      1  C   UNL     1      48.067   7.649  13.500  0.00  0.00    +0.000 A 
ATOM      2  C   UNL     1      47.897   6.419  12.856  0.00  0.00    +0.000 A 
ATOM      3  C   UNL     1      46.689   6.105  12.228  0.00  0.00    +0.000 A 
ATOM      4  C   UNL     1      45.621   7.010  12.243  0.00  0.00    +0.000 A 
ATOM      5  C   UNL     1      45.790   8.241  12.891  0.00  0.00    +0.000 A 
ATOM      6  C   UNL     1      47.002   8.558  13.510  0.00  0.00    +0.000 A 
ENDROOT
BRANCH   1   7
ATOM      7  C   UNL     1      49.364   7.986  14.204  0.00  0.00    +0.000 C 
BRANCH   7   8
ATOM      8  C   UNL     1      50.242   8.955  13.394  0.00  0.00    +0.000 C 
BRANCH   8  10
ATOM      9  C   UNL     1      49.977  10.160  11.330  0.00  0.00    +0.000 C 
ATOM     10  N   UNL     1      50.104   8.827  11.928  0.00  0.00    +0.000 NA
ATOM     11  C   UNL     1      51.234   8.121  11.323  0.00  0.00    +0.000 C 
ENDBRANCH   8  10
ENDBRANCH   7   8
ENDBRANCH   1   7
BRANCH   4  12
ATOM     12  C   UNL     1      44.306   6.663  11.592  0.00  0.00    +0.000 C 
BRANCH  12  13
ATOM     13  N   UNL     1      44.127   5.223  11.443  0.00  0.00    +0.000 N 
ATOM     14  C   UNL     1      43.438   4.434  12.339  0.00  0.00    +0.000 A 
ATOM     15  C   UNL     1      43.385   3.155  11.828  0.00  0.00    +0.000 A 
ATOM     16  C   UNL     1      44.046   3.171  10.580  0.00  0.00    +0.000 A 
ATOM     17  N   UNL     1      44.221   2.150   9.705  0.00  0.00    +0.000 NA
ATOM     18  C   UNL     1      44.888   2.478   8.580  0.00  0.00    +0.000 A 
ATOM     19  C   UNL     1      45.390   3.734   8.276  0.00  0.00    +0.000 A 
ATOM     20  C   UNL     1      45.206   4.777   9.179  0.00  0.00    +0.000 A 
ATOM     21  C   UNL     1      44.509   4.469  10.352  0.00  0.00    +0.000 A 
ENDBRANCH  12  13
ENDBRANCH   4  12
TORSDOF 5
ENDMDL
MODEL 6
REMARK VINA RESULT:    -5.276      2.726      6.414
REMARK INTER + INTRA:          -7.433
REMARK INTER:                  -6.956
REMARK INTRA:                  -0.477
REMARK UNBOUND:                -0.615
REMARK  Name = 
REMARK  7 active torsions:
REMARK  status: ('A' for Active; 'I' for Inactive)
REMARK    1  A    between atoms: C_1  and  N_2
REMARK    2  A    between atoms: N_2  and  C_3
REMARK    3  A    between atoms: N_2  and  C_4
REMARK    4  A    between atoms: C_4  and  C_5
REMARK    5  A    between atoms: C_5  and  C_6
REMARK    6  A    between atoms: C_9  and  C_10
REMARK    7  A    between atoms: C_10  and  N_11
REMARK                            x       y       z     vdW  Elec       q    Type
REMARK                         _______ _______ _______ _____ _____    ______ ____
ROOT
ATOM      1  C   UNL     1      49.160   8.228  12.028  0.00  0.00    +0.000 A 
ATOM      2  C   UNL     1      48.068   9.077  11.816  0.00  0.00    +0.000 A 
ATOM      3  C   UNL     1      46.763   8.620  12.011  0.00  0.00    +0.000 A 
ATOM      4  C   UNL     1      46.521   7.301  12.411  0.00  0.00    +0.000 A 
ATOM      5  C   UNL     1      47.614   6.449  12.621  0.00  0.00    +0.000 A 
ATOM      6  C   UNL     1      48.920   6.910  12.434  0.00  0.00    +0.000 A 
ENDROOT
BRANCH   1   7
ATOM      7  C   UNL     1      50.575   8.709  11.795  0.00  0.00    +0.000 C 
BRANCH   7   8
ATOM      8  C   UNL     1      51.393   7.741  10.921  0.00  0.00    +0.000 C 
BRANCH   8  10
ATOM      9  C   UNL     1      53.437   9.002  10.804  0.00  0.00    +0.000 C 
ATOM     10  N   UNL     1      52.356   8.402  10.015  0.00  0.00    +0.000 NA
ATOM     11  C   UNL     1      52.920   7.475   9.033  0.00  0.00    +0.000 C 
ENDBRANCH   8  10
ENDBRANCH   7   8
ENDBRANCH   1   7
BRANCH   4  12
ATOM     12  C   UNL     1      45.112   6.795  12.594  0.00  0.00    +0.000 C 
BRANCH  12  13
ATOM     13  N   UNL     1      44.982   5.385  12.244  0.00  0.00    +0.000 N 
ATOM     14  C   UNL     1      44.582   4.404  13.125  0.00  0.00    +0.000 A 
ATOM     15  C   UNL     1      44.474   3.221  12.427  0.00  0.00    +0.000 A 
ATOM     16  C   UNL     1      44.804   3.494  11.080  0.00  0.00    +0.000 A 
ATOM     17  N   UNL     1      44.812   2.642  10.026  0.00  0.00    +0.000 NA
ATOM     18  C   UNL     1      45.161   3.203   8.850  0.00  0.00    +0.000 A 
ATOM     19  C   UNL     1      45.501   4.534   8.660  0.00  0.00    +0.000 A 
ATOM     20  C   UNL     1      45.489   5.402   9.747  0.00  0.00    +0.000 A 
ATOM     21  C   UNL     1      45.123   4.849  10.980  0.00  0.00    +0.000 A 
ENDBRANCH  12  13
ENDBRANCH   4  12
TORSDOF 5
ENDMDL
MODEL 7
REMARK VINA RESULT:    -5.179      2.855      4.508
REMARK INTER + INTRA:          -7.308
REMARK INTER:                  -6.690
REMARK INTRA:                  -0.618
REMARK UNBOUND:                -0.615
REMARK  Name = 
REMARK  7 active torsions:
REMARK  status: ('A' for Active; 'I' for Inactive)
REMARK    1  A    between atoms: C_1  and  N_2
REMARK    2  A    between atoms: N_2  and  C_3
REMARK    3  A    between atoms: N_2  and  C_4
REMARK    4  A    between atoms: C_4  and  C_5
REMARK    5  A    between atoms: C_5  and  C_6
REMARK    6  A    between atoms: C_9  and  C_10
REMARK    7  A    between atoms: C_10  and  N_11
REMARK                            x       y       z     vdW  Elec       q    Type
REMARK                         _______ _______ _______ _____ _____    ______ ____
ROOT
ATOM      1  C   UNL     1      45.484   5.382  11.964  0.00  0.00    +0.000 A 
ATOM      2  C   UNL     1      46.089   4.759  13.061  0.00  0.00    +0.000 A 
ATOM      3  C   UNL     1      47.248   5.291  13.631  0.00  0.00    +0.000 A 
ATOM      4  C   UNL     1      47.832   6.452  13.110  0.00  0.00    +0.000 A 
ATOM      5  C   UNL     1      47.227   7.074  12.009  0.00  0.00    +0.000 A 
ATOM      6  C   UNL     1      46.064   6.546  11.445  0.00  0.00    +0.000 A 
ENDROOT
BRANCH   1   7
ATOM      7  C   UNL     1      44.243   4.797  11.325  0.00  0.00    +0.000 C 
BRANCH   7   8
ATOM      8  C   UNL     1      44.401   3.305  10.981  0.00  0.00    +0.000 C 
BRANCH   8  10
ATOM      9  C   UNL     1      44.557   4.212   8.760  0.00  0.00    +0.000 C 
ATOM     10  N   UNL     1      44.301   2.996   9.540  0.00  0.00    +0.000 NA
ATOM     11  C   UNL     1      45.233   1.945   9.131  0.00  0.00    +0.000 C 
ENDBRANCH   8  10
ENDBRANCH   7   8
ENDBRANCH   1   7
BRANCH   4  12
ATOM     12  C   UNL     1      49.099   7.013  13.705  0.00  0.00    +0.000 C 
BRANCH  12  13
ATOM     13  N   UNL     1      48.857   7.709  14.964  0.00  0.00    +0.000 N 
ATOM     14  C   UNL     1      48.363   8.991  15.054  0.00  0.00    +0.000 A 
ATOM     15  C   UNL     1      48.168   9.281  16.387  0.00  0.00    +0.000 A 
ATOM     16  C   UNL     1      48.540   8.136  17.127  0.00  0.00    +0.000 A 
ATOM     17  N   UNL     1      48.495   7.948  18.469  0.00  0.00    +0.000 NA
ATOM     18  C   UNL     1      48.908   6.733  18.883  0.00  0.00    +0.000 A 
ATOM     19  C   UNL     1      49.361   5.711  18.061  0.00  0.00    +0.000 A 
ATOM     20  C   UNL     1      49.404   5.912  16.685  0.00  0.00    +0.000 A 
ATOM     21  C   UNL     1      48.974   7.162  16.225  0.00  0.00    +0.000 A 
ENDBRANCH  12  13
ENDBRANCH   4  12
TORSDOF 5
ENDMDL
MODEL 8
REMARK VINA RESULT:    -5.172      3.254      5.575
REMARK INTER + INTRA:          -7.298
REMARK INTER:                  -6.535
REMARK INTRA:                  -0.764
REMARK UNBOUND:                -0.615
REMARK  Name = 
REMARK  7 active torsions:
REMARK  status: ('A' for Active; 'I' for Inactive)
REMARK    1  A    between atoms: C_1  and  N_2
REMARK    2  A    between atoms: N_2  and  C_3
REMARK    3  A    between atoms: N_2  and  C_4
REMARK    4  A    between atoms: C_4  and  C_5
REMARK    5  A    between atoms: C_5  and  C_6
REMARK    6  A    between atoms: C_9  and  C_10
REMARK    7  A    between atoms: C_10  and  N_11
REMARK                            x       y       z     vdW  Elec       q    Type
REMARK                         _______ _______ _______ _____ _____    ______ ____
ROOT
ATOM      1  C   UNL     1      45.429   6.669  12.354  0.00  0.00    +0.000 A 
ATOM      2  C   UNL     1      46.266   5.581  12.623  0.00  0.00    +0.000 A 
ATOM      3  C   UNL     1      47.455   5.756  13.335  0.00  0.00    +0.000 A 
ATOM      4  C   UNL     1      47.838   7.026  13.783  0.00  0.00    +0.000 A 
ATOM      5  C   UNL     1      47.002   8.117  13.512  0.00  0.00    +0.000 A 
ATOM      6  C   UNL     1      45.808   7.939  12.807  0.00  0.00    +0.000 A 
ENDROOT
BRANCH   1   7
ATOM      7  C   UNL     1      44.153   6.492  11.562  0.00  0.00    +0.000 C 
BRANCH   7   8
ATOM      8  C   UNL     1      43.223   5.425  12.168  0.00  0.00    +0.000 C 
BRANCH   8  10
ATOM      9  C   UNL     1      43.788   4.386  10.075  0.00  0.00    +0.000 C 
ATOM     10  N   UNL     1      43.047   4.221  11.330  0.00  0.00    +0.000 NA
ATOM     11  C   UNL     1      43.491   3.003  12.007  0.00  0.00    +0.000 C 
ENDBRANCH   8  10
ENDBRANCH   7   8
ENDBRANCH   1   7
BRANCH   4  12
ATOM     12  C   UNL     1      49.135   7.224  14.527  0.00  0.00    +0.000 C 
BRANCH  12  13
ATOM     13  N   UNL     1      48.932   7.366  15.964  0.00  0.00    +0.000 N 
ATOM     14  C   UNL     1      48.816   8.577  16.611  0.00  0.00    +0.000 A 
ATOM     15  C   UNL     1      48.531   8.327  17.937  0.00  0.00    +0.000 A 
ATOM     16  C   UNL     1      48.458   6.925  18.096  0.00  0.00    +0.000 A 
ATOM     17  N   UNL     1      48.177   6.218  19.218  0.00  0.00    +0.000 NA
ATOM     18  C   UNL     1      48.166   4.880  19.054  0.00  0.00    +0.000 A 
ATOM     19  C   UNL     1      48.417   4.210  17.866  0.00  0.00    +0.000 A 
ATOM     20  C   UNL     1      48.704   4.944  16.718  0.00  0.00    +0.000 A 
ATOM     21  C   UNL     1      48.714   6.335  16.856  0.00  0.00    +0.000 A 
ENDBRANCH  12  13
ENDBRANCH   4  12
TORSDOF 5
ENDMDL
MODEL 9
REMARK VINA RESULT:    -5.003      2.257      7.450
REMARK INTER + INTRA:          -7.081
REMARK INTER:                  -6.500
REMARK INTRA:                  -0.581
REMARK UNBOUND:                -0.615
REMARK  Name = 
REMARK  7 active torsions:
REMARK  status: ('A' for Active; 'I' for Inactive)
REMARK    1  A    between atoms: C_1  and  N_2
REMARK    2  A    between atoms: N_2  and  C_3
REMARK    3  A    between atoms: N_2  and  C_4
REMARK    4  A    between atoms: C_4  and  C_5
REMARK    5  A    between atoms: C_5  and  C_6
REMARK    6  A    between atoms: C_9  and  C_10
REMARK    7  A    between atoms: C_10  and  N_11
REMARK                            x       y       z     vdW  Elec       q    Type
REMARK                         _______ _______ _______ _____ _____    ______ ____
ROOT
ATOM      1  C   UNL     1      48.875   8.544  12.801  0.00  0.00    +0.000 A 
ATOM      2  C   UNL     1      47.716   9.203  13.226  0.00  0.00    +0.000 A 
ATOM      3  C   UNL     1      46.454   8.730  12.861  0.00  0.00    +0.000 A 
ATOM      4  C   UNL     1      46.324   7.594  12.053  0.00  0.00    +0.000 A 
ATOM      5  C   UNL     1      47.485   6.936  11.624  0.00  0.00    +0.000 A 
ATOM      6  C   UNL     1      48.747   7.405  11.997  0.00  0.00    +0.000 A 
ENDROOT
BRANCH   1   7
ATOM      7  C   UNL     1      50.246   9.066  13.172  0.00  0.00    +0.000 C 
BRANCH   7   8
ATOM      8  C   UNL     1      50.759   8.489  14.503  0.00  0.00    +0.000 C 
BRANCH   8  10
ATOM      9  C   UNL     1      49.587   9.042  16.528  0.00  0.00    +0.000 C 
ATOM     10  N   UNL     1      50.690   9.428  15.643  0.00  0.00    +0.000 NA
ATOM     11  C   UNL     1      51.939   9.471  16.404  0.00  0.00    +0.000 C 
ENDBRANCH   8  10
ENDBRANCH   7   8
ENDBRANCH   1   7
BRANCH   4  12
ATOM     12  C   UNL     1      44.964   7.097  11.632  0.00  0.00    +0.000 C 
BRANCH  12  13
ATOM     13  N   UNL     1      44.878   5.641  11.652  0.00  0.00    +0.000 N 
ATOM     14  C   UNL     1      44.524   4.904  12.761  0.00  0.00    +0.000 A 
ATOM     15  C   UNL     1      44.448   3.579  12.387  0.00  0.00    +0.000 A 
ATOM     16  C   UNL     1      44.750   3.512  11.009  0.00  0.00    +0.000 A 
ATOM     17  N   UNL     1      44.773   2.421  10.204  0.00  0.00    +0.000 NA
ATOM     18  C   UNL     1      45.086   2.676   8.917  0.00  0.00    +0.000 A 
ATOM     19  C   UNL     1      45.377   3.926   8.389  0.00  0.00    +0.000 A 
ATOM     20  C   UNL     1      45.350   5.040   9.222  0.00  0.00    +0.000 A 
ATOM     21  C   UNL     1      45.021   4.807  10.562  0.00  0.00    +0.000 A 
ENDBRANCH  12  13
ENDBRANCH   4  12
TORSDOF 5
ENDMDL
