MODEL 1
REMARK VINA RESULT:    -6.921      0.000      0.000
REMARK INTER + INTRA:          -9.402
REMARK INTER:                  -8.539
REMARK INTRA:                  -0.863
REMARK UNBOUND:                -0.863
REMARK  Name = 
REMARK  7 active torsions:
REMARK  status: ('A' for Active; 'I' for Inactive)
REMARK    1  A    between atoms: C_1  and  C_2
REMARK    2  A    between atoms: C_2  and  C_3
REMARK    3  A    between atoms: C_2  and  C_4
REMARK    4  A    between atoms: C_2  and  C_5
REMARK    5  A    between atoms: C_9  and  C_10
REMARK    6  A    between atoms: N_16  and  C_17
REMARK    7  A    between atoms: C_17  and  C_18
REMARK                            x       y       z     vdW  Elec       q    Type
REMARK                         _______ _______ _______ _____ _____    ______ ____
ROOT
ATOM      1  C   UNL     1      44.527   4.024  11.098  0.00  0.00    +0.000 A 
ATOM      2  N   UNL     1      44.817   2.833  10.584  0.00  0.00    +0.000 NA
ATOM      3  C   UNL     1      45.495   3.055   9.422  0.00  0.00    +0.000 A 
ATOM      4  C   UNL     1      46.024   2.161   8.483  0.00  0.00    +0.000 A 
ATOM      5  C   UNL     1      46.672   2.711   7.372  0.00  0.00    +0.000 A 
ATOM      6  C   UNL     1      46.763   4.103   7.274  0.00  0.00    +0.000 A 
ATOM      7  N   UNL     1      46.268   5.006   8.165  0.00  0.00    +0.000 NA
ATOM      8  C   UNL     1      45.648   4.410   9.204  0.00  0.00    +0.000 A 
ATOM      9  N   UNL     1      44.998   5.023  10.255  0.00  0.00    +0.000 N 
ENDROOT
BRANCH   5  10
ATOM     10  C   UNL     1      47.266   1.900   6.280  0.00  0.00    +0.000 C 
ATOM     11  N   UNL     1      47.965   2.535   5.295  0.00  0.00    +0.000 N 
ATOM     12  O   UNL     1      47.140   0.681   6.258  0.00  0.00    +0.000 OA
ATOM     13  H   UNL     1      48.125   3.528   5.233  0.00  0.00    +0.000 HD
ATOM     14  H   UNL     1      48.365   1.950   4.570  0.00  0.00    +0.000 HD
ENDBRANCH   5  10
BRANCH   1  16
ATOM     15  C   UNL     1      44.947   4.588  13.487  0.00  0.00    +0.000 C 
ATOM     16  C   UNL     1      43.870   4.170  12.470  0.00  0.00    +0.000 C 
ATOM     17  C   UNL     1      43.302   2.791  12.896  0.00  0.00    +0.000 C 
ATOM     18  C   UNL     1      42.693   5.151  12.539  0.00  0.00    +0.000 C 
ENDBRANCH   1  16
BRANCH   9  19
ATOM     19  C   UNL     1      44.897   6.472  10.368  0.00  0.00    +0.000 C 
BRANCH  19  20
ATOM     20  C   UNL     1      45.828   7.056  11.413  0.00  0.00    +0.000 A 
ATOM     21  C   UNL     1      45.339   8.013  12.319  0.00  0.00    +0.000 A 
ATOM     22  C   UNL     1      46.181   8.587  13.277  0.00  0.00    +0.000 A 
ATOM     23  C   UNL     1      47.515   8.196  13.360  0.00  0.00    +0.000 A 
ATOM     24  C   UNL     1      48.002   7.215  12.502  0.00  0.00    +0.000 A 
ATOM     25  C   UNL     1      47.163   6.641  11.547  0.00  0.00    +0.000 A 
ENDBRANCH  19  20
ENDBRANCH   9  19
TORSDOF 4
ENDMDL
MODEL 2
REMARK VINA RESULT:    -5.927      3.223      5.910
REMARK INTER + INTRA:          -8.176
REMARK INTER:                  -7.991
REMARK INTRA:                  -0.185
REMARK UNBOUND:                -0.863
REMARK  Name = 
REMARK  7 active torsions:
REMARK  status: ('A' for Active; 'I' for Inactive)
REMARK    1  A    between atoms: C_1  and  C_2
REMARK    2  A    between atoms: C_2  and  C_3
REMARK    3  A    between atoms: C_2  and  C_4
REMARK    4  A    between atoms: C_2  and  C_5
REMARK    5  A    between atoms: C_9  and  C_10
REMARK    6  A    between atoms: N_16  and  C_17
REMARK    7  A    between atoms: C_17  and  C_18
REMARK                            x       y       z     vdW  Elec       q    Type
REMARK                         _______ _______ _______ _____ _____    ______ ____
ROOT
ATOM      1  C   UNL     1      44.812   4.985  12.409  0.00  0.00    +0.000 A 
ATOM      2  N   UNL     1      45.537   5.119  13.515  0.00  0.00    +0.000 NA
ATOM      3  C   UNL     1      46.643   5.844  13.181  0.00  0.00    +0.000 A 
ATOM      4  C   UNL     1      47.733   6.263  13.953  0.00  0.00    +0.000 A 
ATOM      5  C   UNL     1      48.729   7.002  13.305  0.00  0.00    +0.000 A 
ATOM      6  C   UNL     1      48.571   7.284  11.944  0.00  0.00    +0.000 A 
ATOM      7  N   UNL     1      47.527   6.901  11.159  0.00  0.00    +0.000 NA
ATOM      8  C   UNL     1      46.610   6.185  11.843  0.00  0.00    +0.000 A 
ATOM      9  N   UNL     1      45.461   5.605  11.348  0.00  0.00    +0.000 N 
ENDROOT
BRANCH   5  10
ATOM     10  C   UNL     1      49.954   7.500  13.977  0.00  0.00    +0.000 C 
ATOM     11  N   UNL     1      51.027   7.857  13.212  0.00  0.00    +0.000 N 
ATOM     12  O   UNL     1      50.011   7.597  15.198  0.00  0.00    +0.000 OA
ATOM     13  H   UNL     1      51.070   7.817  12.206  0.00  0.00    +0.000 HD
ATOM     14  H   UNL     1      51.843   8.201  13.703  0.00  0.00    +0.000 HD
ENDBRANCH   5  10
BRANCH   1  16
ATOM     15  C   UNL     1      42.434   5.268  11.728  0.00  0.00    +0.000 C 
ATOM     16  C   UNL     1      43.432   4.329  12.427  0.00  0.00    +0.000 C 
ATOM     17  C   UNL     1      42.988   4.150  13.901  0.00  0.00    +0.000 C 
ATOM     18  C   UNL     1      43.355   2.935  11.791  0.00  0.00    +0.000 C 
ENDBRANCH   1  16
BRANCH   9  19
ATOM     19  C   UNL     1      45.084   5.701   9.945  0.00  0.00    +0.000 C 
BRANCH  19  20
ATOM     20  C   UNL     1      45.546   4.516   9.119  0.00  0.00    +0.000 A 
ATOM     21  C   UNL     1      46.389   4.727   8.014  0.00  0.00    +0.000 A 
ATOM     22  C   UNL     1      46.809   3.655   7.220  0.00  0.00    +0.000 A 
ATOM     23  C   UNL     1      46.415   2.356   7.532  0.00  0.00    +0.000 A 
ATOM     24  C   UNL     1      45.620   2.125   8.650  0.00  0.00    +0.000 A 
ATOM     25  C   UNL     1      45.201   3.194   9.444  0.00  0.00    +0.000 A 
ENDBRANCH  19  20
ENDBRANCH   9  19
TORSDOF 4
ENDMDL
MODEL 3
REMARK VINA RESULT:    -5.882      3.025      5.109
REMARK INTER + INTRA:          -8.120
REMARK INTER:                  -7.569
REMARK INTRA:                  -0.551
REMARK UNBOUND:                -0.863
REMARK  Name = 
REMARK  7 active torsions:
REMARK  status: ('A' for Active; 'I' for Inactive)
REMARK    1  A    between atoms: C_1  and  C_2
REMARK    2  A    between atoms: C_2  and  C_3
REMARK    3  A    between atoms: C_2  and  C_4
REMARK    4  A    between atoms: C_2  and  C_5
REMARK    5  A    between atoms: C_9  and  C_10
REMARK    6  A    between atoms: N_16  and  C_17
REMARK    7  A    between atoms: C_17  and  C_18
REMARK                            x       y       z     vdW  Elec       q    Type
REMARK                         _______ _______ _______ _____ _____    ______ ____
ROOT
ATOM      1  C   UNL     1      47.707   6.678  14.071  0.00  0.00    +0.000 A 
ATOM      2  N   UNL     1      47.188   5.462  14.210  0.00  0.00    +0.000 NA
ATOM      3  C   UNL     1      46.458   5.209  13.085  0.00  0.00    +0.000 A 
ATOM      4  C   UNL     1      45.700   4.092  12.716  0.00  0.00    +0.000 A 
ATOM      5  C   UNL     1      45.053   4.141  11.476  0.00  0.00    +0.000 A 
ATOM      6  C   UNL     1      45.211   5.284  10.687  0.00  0.00    +0.000 A 
ATOM      7  N   UNL     1      45.940   6.389  11.006  0.00  0.00    +0.000 NA
ATOM      8  C   UNL     1      46.528   6.279  12.215  0.00  0.00    +0.000 A 
ATOM      9  N   UNL     1      47.294   7.225  12.863  0.00  0.00    +0.000 N 
ENDROOT
BRANCH   5  10
ATOM     10  C   UNL     1      44.197   3.049  10.951  0.00  0.00    +0.000 C 
ATOM     11  N   UNL     1      44.693   2.237   9.972  0.00  0.00    +0.000 N 
ATOM     12  O   UNL     1      43.065   2.868  11.385  0.00  0.00    +0.000 OA
ATOM     13  H   UNL     1      45.610   2.306   9.559  0.00  0.00    +0.000 HD
ATOM     14  H   UNL     1      44.086   1.496   9.642  0.00  0.00    +0.000 HD
ENDBRANCH   5  10
BRANCH   1  16
ATOM     15  C   UNL     1      48.639   6.390  16.362  0.00  0.00    +0.000 C 
ATOM     16  C   UNL     1      48.690   7.254  15.090  0.00  0.00    +0.000 C 
ATOM     17  C   UNL     1      48.238   8.692  15.454  0.00  0.00    +0.000 C 
ATOM     18  C   UNL     1      50.142   7.376  14.612  0.00  0.00    +0.000 C 
ENDBRANCH   1  16
BRANCH   9  19
ATOM     19  C   UNL     1      47.570   8.532  12.281  0.00  0.00    +0.000 C 
BRANCH  19  20
ATOM     20  C   UNL     1      48.992   8.673  11.774  0.00  0.00    +0.000 A 
ATOM     21  C   UNL     1      49.629   9.924  11.833  0.00  0.00    +0.000 A 
ATOM     22  C   UNL     1      50.931  10.088  11.350  0.00  0.00    +0.000 A 
ATOM     23  C   UNL     1      51.624   9.001  10.823  0.00  0.00    +0.000 A 
ATOM     24  C   UNL     1      51.025   7.745  10.800  0.00  0.00    +0.000 A 
ATOM     25  C   UNL     1      49.726   7.580  11.284  0.00  0.00    +0.000 A 
ENDBRANCH  19  20
ENDBRANCH   9  19
TORSDOF 4
ENDMDL
MODEL 4
REMARK VINA RESULT:    -5.769      4.341      6.502
REMARK INTER + INTRA:          -7.981
REMARK INTER:                  -7.472
REMARK INTRA:                  -0.508
REMARK UNBOUND:                -0.863
REMARK  Name = 
REMARK  7 active torsions:
REMARK  status: ('A' for Active; 'I' for Inactive)
REMARK    1  A    between atoms: C_1  and  C_2
REMARK    2  A    between atoms: C_2  and  C_3
REMARK    3  A    between atoms: C_2  and  C_4
REMARK    4  A    between atoms: C_2  and  C_5
REMARK    5  A    between atoms: C_9  and  C_10
REMARK    6  A    between atoms: N_16  and  C_17
REMARK    7  A    between atoms: C_17  and  C_18
REMARK                            x       y       z     vdW  Elec       q    Type
REMARK                         _______ _______ _______ _____ _____    ______ ____
ROOT
ATOM      1  C   UNL     1      45.896   4.896  12.825  0.00  0.00    +0.000 A 
ATOM      2  N   UNL     1      45.800   4.243  13.979  0.00  0.00    +0.000 NA
ATOM      3  C   UNL     1      46.790   4.718  14.788  0.00  0.00    +0.000 A 
ATOM      4  C   UNL     1      47.148   4.375  16.098  0.00  0.00    +0.000 A 
ATOM      5  C   UNL     1      48.235   5.052  16.661  0.00  0.00    +0.000 A 
ATOM      6  C   UNL     1      48.882   6.028  15.895  0.00  0.00    +0.000 A 
ATOM      7  N   UNL     1      48.564   6.394  14.623  0.00  0.00    +0.000 NA
ATOM      8  C   UNL     1      47.516   5.696  14.138  0.00  0.00    +0.000 A 
ATOM      9  N   UNL     1      46.966   5.780  12.877  0.00  0.00    +0.000 N 
ENDROOT
BRANCH   5  10
ATOM     10  C   UNL     1      48.750   4.790  18.027  0.00  0.00    +0.000 C 
ATOM     11  N   UNL     1      48.023   3.995  18.864  0.00  0.00    +0.000 N 
ATOM     12  O   UNL     1      49.813   5.272  18.405  0.00  0.00    +0.000 OA
ATOM     13  H   UNL     1      47.146   3.553  18.640  0.00  0.00    +0.000 HD
ATOM     14  H   UNL     1      48.409   3.829  19.786  0.00  0.00    +0.000 HD
ENDBRANCH   5  10
BRANCH   1  16
ATOM     15  C   UNL     1      43.590   5.481  12.089  0.00  0.00    +0.000 C 
ATOM     16  C   UNL     1      44.867   4.711  11.709  0.00  0.00    +0.000 C 
ATOM     17  C   UNL     1      44.519   3.205  11.601  0.00  0.00    +0.000 C 
ATOM     18  C   UNL     1      45.326   5.140  10.310  0.00  0.00    +0.000 C 
ENDBRANCH   1  16
BRANCH   9  19
ATOM     19  C   UNL     1      47.488   6.683  11.860  0.00  0.00    +0.000 C 
BRANCH  19  20
ATOM     20  C   UNL     1      46.947   8.095  11.980  0.00  0.00    +0.000 A 
ATOM     21  C   UNL     1      47.838   9.182  11.964  0.00  0.00    +0.000 A 
ATOM     22  C   UNL     1      47.370  10.493  12.098  0.00  0.00    +0.000 A 
ATOM     23  C   UNL     1      46.004  10.739  12.224  0.00  0.00    +0.000 A 
ATOM     24  C   UNL     1      45.106   9.677  12.194  0.00  0.00    +0.000 A 
ATOM     25  C   UNL     1      45.572   8.368  12.059  0.00  0.00    +0.000 A 
ENDBRANCH  19  20
ENDBRANCH   9  19
TORSDOF 4
ENDMDL
MODEL 5
REMARK VINA RESULT:    -5.754      4.768      7.676
REMARK INTER + INTRA:          -7.962
REMARK INTER:                  -7.041
REMARK INTRA:                  -0.921
REMARK UNBOUND:                -0.863
REMARK  Name = 
REMARK  7 active torsions:
REMARK  status: ('A' for Active; 'I' for Inactive)
REMARK    1  A    between atoms: C_1  and  C_2
REMARK    2  A    between atoms: C_2  and  C_3
REMARK    3  A    between atoms: C_2  and  C_4
REMARK    4  A    between atoms: C_2  and  C_5
REMARK    5  A    between atoms: C_9  and  C_10
REMARK    6  A    between atoms: N_16  and  C_17
REMARK    7  A    between atoms: C_17  and  C_18
REMARK                            x       y       z     vdW  Elec       q    Type
REMARK                         _______ _______ _______ _____ _____    ______ ____
ROOT
ATOM      1  C   UNL     1      47.625   6.631  13.729  0.00  0.00    +0.000 A 
ATOM      2  N   UNL     1      48.074   6.982  14.930  0.00  0.00    +0.000 NA
ATOM      3  C   UNL     1      48.080   5.854  15.697  0.00  0.00    +0.000 A 
ATOM      4  C   UNL     1      48.446   5.656  17.034  0.00  0.00    +0.000 A 
ATOM      5  C   UNL     1      48.333   4.357  17.541  0.00  0.00    +0.000 A 
ATOM      6  C   UNL     1      47.878   3.346  16.689  0.00  0.00    +0.000 A 
ATOM      7  N   UNL     1      47.516   3.494  15.385  0.00  0.00    +0.000 NA
ATOM      8  C   UNL     1      47.640   4.770  14.964  0.00  0.00    +0.000 A 
ATOM      9  N   UNL     1      47.317   5.276  13.723  0.00  0.00    +0.000 N 
ENDROOT
BRANCH   5  10
ATOM     10  C   UNL     1      48.661   3.988  18.941  0.00  0.00    +0.000 C 
ATOM     11  N   UNL     1      48.171   2.819  19.446  0.00  0.00    +0.000 N 
ATOM     12  O   UNL     1      49.364   4.713  19.637  0.00  0.00    +0.000 OA
ATOM     13  H   UNL     1      47.592   2.160  18.948  0.00  0.00    +0.000 HD
ATOM     14  H   UNL     1      48.422   2.594  20.401  0.00  0.00    +0.000 HD
ENDBRANCH   5  10
BRANCH   1  16
ATOM     15  C   UNL     1      48.485   8.823  12.916  0.00  0.00    +0.000 C 
ATOM     16  C   UNL     1      47.595   7.618  12.562  0.00  0.00    +0.000 C 
ATOM     17  C   UNL     1      46.141   8.120  12.376  0.00  0.00    +0.000 C 
ATOM     18  C   UNL     1      48.023   7.049  11.203  0.00  0.00    +0.000 C 
ENDBRANCH   1  16
BRANCH   9  19
ATOM     19  C   UNL     1      46.770   4.443  12.661  0.00  0.00    +0.000 C 
BRANCH  19  20
ATOM     20  C   UNL     1      45.309   4.728  12.370  0.00  0.00    +0.000 A 
ATOM     21  C   UNL     1      44.887   4.897  11.040  0.00  0.00    +0.000 A 
ATOM     22  C   UNL     1      43.551   5.185  10.744  0.00  0.00    +0.000 A 
ATOM     23  C   UNL     1      42.613   5.283  11.770  0.00  0.00    +0.000 A 
ATOM     24  C   UNL     1      43.005   5.071  13.087  0.00  0.00    +0.000 A 
ATOM     25  C   UNL     1      44.338   4.782  13.384  0.00  0.00    +0.000 A 
ENDBRANCH  19  20
ENDBRANCH   9  19
TORSDOF 4
ENDMDL
MODEL 6
REMARK VINA RESULT:    -5.687      4.321      6.136
REMARK INTER + INTRA:          -7.879
REMARK INTER:                  -7.069
REMARK INTRA:                  -0.810
REMARK UNBOUND:                -0.863
REMARK  Name = 
REMARK  7 active torsions:
REMARK  status: ('A' for Active; 'I' for Inactive)
REMARK    1  A    between atoms: C_1  and  C_2
REMARK    2  A    between atoms: C_2  and  C_3
REMARK    3  A    between atoms: C_2  and  C_4
REMARK    4  A    between atoms: C_2  and  C_5
REMARK    5  A    between atoms: C_9  and  C_10
REMARK    6  A    between atoms: N_16  and  C_17
REMARK    7  A    between atoms: C_17  and  C_18
REMARK                            x       y       z     vdW  Elec       q    Type
REMARK                         _______ _______ _______ _____ _____    ______ ____
ROOT
ATOM      1  C   UNL     1      47.744   4.815  16.045  0.00  0.00    +0.000 A 
ATOM      2  N   UNL     1      46.707   4.291  15.398  0.00  0.00    +0.000 NA
ATOM      3  C   UNL     1      46.628   4.926  14.194  0.00  0.00    +0.000 A 
ATOM      4  C   UNL     1      45.724   4.774  13.135  0.00  0.00    +0.000 A 
ATOM      5  C   UNL     1      45.909   5.593  12.016  0.00  0.00    +0.000 A 
ATOM      6  C   UNL     1      46.979   6.493  12.017  0.00  0.00    +0.000 A 
ATOM      7  N   UNL     1      47.881   6.670  13.022  0.00  0.00    +0.000 NA
ATOM      8  C   UNL     1      47.639   5.858  14.072  0.00  0.00    +0.000 A 
ATOM      9  N   UNL     1      48.325   5.809  15.268  0.00  0.00    +0.000 N 
ENDROOT
BRANCH   5  10
ATOM     10  C   UNL     1      45.027   5.568  10.823  0.00  0.00    +0.000 C 
ATOM     11  N   UNL     1      45.597   5.499   9.584  0.00  0.00    +0.000 N 
ATOM     12  O   UNL     1      43.807   5.604  10.938  0.00  0.00    +0.000 OA
ATOM     13  H   UNL     1      46.585   5.459   9.393  0.00  0.00    +0.000 HD
ATOM     14  H   UNL     1      44.965   5.474   8.792  0.00  0.00    +0.000 HD
ENDBRANCH   5  10
BRANCH   1  16
ATOM     15  C   UNL     1      47.591   2.871  17.593  0.00  0.00    +0.000 C 
ATOM     16  C   UNL     1      48.216   4.262  17.390  0.00  0.00    +0.000 C 
ATOM     17  C   UNL     1      47.706   5.198  18.516  0.00  0.00    +0.000 C 
ATOM     18  C   UNL     1      49.736   4.172  17.571  0.00  0.00    +0.000 C 
ENDBRANCH   1  16
BRANCH   9  19
ATOM     19  C   UNL     1      49.455   6.683  15.552  0.00  0.00    +0.000 C 
BRANCH  19  20
ATOM     20  C   UNL     1      49.119   7.797  16.525  0.00  0.00    +0.000 A 
ATOM     21  C   UNL     1      49.783   7.862  17.762  0.00  0.00    +0.000 A 
ATOM     22  C   UNL     1      49.476   8.864  18.688  0.00  0.00    +0.000 A 
ATOM     23  C   UNL     1      48.520   9.829  18.382  0.00  0.00    +0.000 A 
ATOM     24  C   UNL     1      47.888   9.808  17.143  0.00  0.00    +0.000 A 
ATOM     25  C   UNL     1      48.195   8.809  16.217  0.00  0.00    +0.000 A 
ENDBRANCH  19  20
ENDBRANCH   9  19
TORSDOF 4
ENDMDL
MODEL 7
REMARK VINA RESULT:    -5.597      4.454      6.607
REMARK INTER + INTRA:          -7.768
REMARK INTER:                  -7.227
REMARK INTRA:                  -0.541
REMARK UNBOUND:                -0.863
REMARK  Name = 
REMARK  7 active torsions:
REMARK  status: ('A' for Active; 'I' for Inactive)
REMARK    1  A    between atoms: C_1  and  C_2
REMARK    2  A    between atoms: C_2  and  C_3
REMARK    3  A    between atoms: C_2  and  C_4
REMARK    4  A    between atoms: C_2  and  C_5
REMARK    5  A    between atoms: C_9  and  C_10
REMARK    6  A    between atoms: N_16  and  C_17
REMARK    7  A    between atoms: C_17  and  C_18
REMARK                            x       y       z     vdW  Elec       q    Type
REMARK                         _______ _______ _______ _____ _____    ______ ____
ROOT
ATOM      1  C   UNL     1      46.214   5.073  13.021  0.00  0.00    +0.000 A 
ATOM      2  N   UNL     1      46.357   3.926  13.678  0.00  0.00    +0.000 NA
ATOM      3  C   UNL     1      47.138   4.185  14.766  0.00  0.00    +0.000 A 
ATOM      4  C   UNL     1      47.606   3.342  15.781  0.00  0.00    +0.000 A 
ATOM      5  C   UNL     1      48.407   3.919  16.772  0.00  0.00    +0.000 A 
ATOM      6  C   UNL     1      48.678   5.289  16.696  0.00  0.00    +0.000 A 
ATOM      7  N   UNL     1      48.241   6.144  15.731  0.00  0.00    +0.000 NA
ATOM      8  C   UNL     1      47.484   5.522  14.804  0.00  0.00    +0.000 A 
ATOM      9  N   UNL     1      46.924   6.075  13.672  0.00  0.00    +0.000 N 
ENDROOT
BRANCH   5  10
ATOM     10  C   UNL     1      48.996   3.159  17.901  0.00  0.00    +0.000 C 
ATOM     11  N   UNL     1      48.412   3.249  19.132  0.00  0.00    +0.000 N 
ATOM     12  O   UNL     1      49.987   2.455  17.741  0.00  0.00    +0.000 OA
ATOM     13  H   UNL     1      47.596   3.795  19.357  0.00  0.00    +0.000 HD
ATOM     14  H   UNL     1      48.835   2.709  19.878  0.00  0.00    +0.000 HD
ENDBRANCH   5  10
BRANCH   1  16
ATOM     15  C   UNL     1      44.024   5.951  12.226  0.00  0.00    +0.000 C 
ATOM     16  C   UNL     1      45.295   5.194  11.806  0.00  0.00    +0.000 C 
ATOM     17  C   UNL     1      44.890   3.770  11.348  0.00  0.00    +0.000 C 
ATOM     18  C   UNL     1      45.912   5.874  10.576  0.00  0.00    +0.000 C 
ENDBRANCH   1  16
BRANCH   9  19
ATOM     19  C   UNL     1      47.098   7.479  13.324  0.00  0.00    +0.000 C 
BRANCH  19  20
ATOM     20  C   UNL     1      48.512   7.817  12.894  0.00  0.00    +0.000 A 
ATOM     21  C   UNL     1      49.318   8.616  13.723  0.00  0.00    +0.000 A 
ATOM     22  C   UNL     1      50.617   8.964  13.339  0.00  0.00    +0.000 A 
ATOM     23  C   UNL     1      51.139   8.499  12.135  0.00  0.00    +0.000 A 
ATOM     24  C   UNL     1      50.372   7.668  11.324  0.00  0.00    +0.000 A 
ATOM     25  C   UNL     1      49.076   7.319  11.707  0.00  0.00    +0.000 A 
ENDBRANCH  19  20
ENDBRANCH   9  19
TORSDOF 4
ENDMDL
MODEL 8
REMARK VINA RESULT:    -5.542      4.770      7.193
REMARK INTER + INTRA:          -7.701
REMARK INTER:                  -7.038
REMARK INTRA:                  -0.663
REMARK UNBOUND:                -0.863
REMARK  Name = 
REMARK  7 active torsions:
REMARK  status: ('A' for Active; 'I' for Inactive)
REMARK    1  A    between atoms: C_1  and  C_2
REMARK    2  A    between atoms: C_2  and  C_3
REMARK    3  A    between atoms: C_2  and  C_4
REMARK    4  A    between atoms: C_2  and  C_5
REMARK    5  A    between atoms: C_9  and  C_10
REMARK    6  A    between atoms: N_16  and  C_17
REMARK    7  A    between atoms: C_17  and  C_18
REMARK                            x       y       z     vdW  Elec       q    Type
REMARK                         _______ _______ _______ _____ _____    ______ ____
ROOT
ATOM      1  C   UNL     1      49.072   6.876  15.303  0.00  0.00    +0.000 A 
ATOM      2  N   UNL     1      48.762   7.142  14.038  0.00  0.00    +0.000 NA
ATOM      3  C   UNL     1      47.765   6.281  13.683  0.00  0.00    +0.000 A 
ATOM      4  C   UNL     1      47.080   6.121  12.473  0.00  0.00    +0.000 A 
ATOM      5  C   UNL     1      46.096   5.128  12.424  0.00  0.00    +0.000 A 
ATOM      6  C   UNL     1      45.850   4.374  13.576  0.00  0.00    +0.000 A 
ATOM      7  N   UNL     1      46.489   4.500  14.772  0.00  0.00    +0.000 NA
ATOM      8  C   UNL     1      47.431   5.466  14.747  0.00  0.00    +0.000 A 
ATOM      9  N   UNL     1      48.291   5.824  15.764  0.00  0.00    +0.000 N 
ENDROOT
BRANCH   5  10
ATOM     10  C   UNL     1      45.297   4.820  11.212  0.00  0.00    +0.000 C 
ATOM     11  N   UNL     1      45.002   5.830  10.343  0.00  0.00    +0.000 N 
ATOM     12  O   UNL     1      44.907   3.680  10.985  0.00  0.00    +0.000 OA
ATOM     13  H   UNL     1      45.283   6.793  10.444  0.00  0.00    +0.000 HD
ATOM     14  H   UNL     1      44.463   5.583   9.522  0.00  0.00    +0.000 HD
ENDBRANCH   5  10
BRANCH   1  16
ATOM     15  C   UNL     1      50.159   9.114  15.417  0.00  0.00    +0.000 C 
ATOM     16  C   UNL     1      50.073   7.729  16.082  0.00  0.00    +0.000 C 
ATOM     17  C   UNL     1      51.468   7.058  15.997  0.00  0.00    +0.000 C 
ATOM     18  C   UNL     1      49.776   7.898  17.577  0.00  0.00    +0.000 C 
ENDBRANCH   1  16
BRANCH   9  19
ATOM     19  C   UNL     1      48.282   5.158  17.059  0.00  0.00    +0.000 C 
BRANCH  19  20
ATOM     20  C   UNL     1      49.293   4.032  17.158  0.00  0.00    +0.000 A 
ATOM     21  C   UNL     1      50.556   4.281  17.722  0.00  0.00    +0.000 A 
ATOM     22  C   UNL     1      51.516   3.267  17.804  0.00  0.00    +0.000 A 
ATOM     23  C   UNL     1      51.220   1.985  17.348  0.00  0.00    +0.000 A 
ATOM     24  C   UNL     1      49.958   1.710  16.831  0.00  0.00    +0.000 A 
ATOM     25  C   UNL     1      48.999   2.720  16.750  0.00  0.00    +0.000 A 
ENDBRANCH  19  20
ENDBRANCH   9  19
TORSDOF 4
ENDMDL
MODEL 9
REMARK VINA RESULT:    -5.267      4.028      6.586
REMARK INTER + INTRA:          -7.362
REMARK INTER:                  -6.493
REMARK INTRA:                  -0.869
REMARK UNBOUND:                -0.863
REMARK  Name = 
REMARK  7 active torsions:
REMARK  status: ('A' for Active; 'I' for Inactive)
REMARK    1  A    between atoms: C_1  and  C_2
REMARK    2  A    between atoms: C_2  and  C_3
REMARK    3  A    between atoms: C_2  and  C_4
REMARK    4  A    between atoms: C_2  and  C_5
REMARK    5  A    between atoms: C_9  and  C_10
REMARK    6  A    between atoms: N_16  and  C_17
REMARK    7  A    between atoms: C_17  and  C_18
REMARK                            x       y       z     vdW  Elec       q    Type
REMARK                         _______ _______ _______ _____ _____    ______ ____
ROOT
ATOM      1  C   UNL     1      47.675   9.162  12.339  0.00  0.00    +0.000 A 
ATOM      2  N   UNL     1      46.476   8.690  12.013  0.00  0.00    +0.000 NA
ATOM      3  C   UNL     1      46.428   7.396  12.441  0.00  0.00    +0.000 A 
ATOM      4  C   UNL     1      45.412   6.437  12.347  0.00  0.00    +0.000 A 
ATOM      5  C   UNL     1      45.675   5.174  12.890  0.00  0.00    +0.000 A 
ATOM      6  C   UNL     1      46.916   4.954  13.495  0.00  0.00    +0.000 A 
ATOM      7  N   UNL     1      47.927   5.858  13.611  0.00  0.00    +0.000 NA
ATOM      8  C   UNL     1      47.612   7.049  13.060  0.00  0.00    +0.000 A 
ATOM      9  N   UNL     1      48.416   8.164  12.960  0.00  0.00    +0.000 N 
ENDROOT
BRANCH   5  10
ATOM     10  C   UNL     1      44.713   4.046  12.852  0.00  0.00    +0.000 C 
ATOM     11  N   UNL     1      45.167   2.804  12.512  0.00  0.00    +0.000 N 
ATOM     12  O   UNL     1      43.530   4.214  13.126  0.00  0.00    +0.000 OA
ATOM     13  H   UNL     1      46.118   2.570  12.278  0.00  0.00    +0.000 HD
ATOM     14  H   UNL     1      44.485   2.055  12.506  0.00  0.00    +0.000 HD
ENDBRANCH   5  10
BRANCH   1  16
ATOM     15  C   UNL     1      48.666  11.175  13.422  0.00  0.00    +0.000 C 
ATOM     16  C   UNL     1      48.049  10.629  12.122  0.00  0.00    +0.000 C 
ATOM     17  C   UNL     1      46.756  11.429  11.819  0.00  0.00    +0.000 C 
ATOM     18  C   UNL     1      49.000  10.902  10.950  0.00  0.00    +0.000 C 
ENDBRANCH   1  16
BRANCH   9  19
ATOM     19  C   UNL     1      49.782   8.186  13.465  0.00  0.00    +0.000 C 
BRANCH  19  20
ATOM     20  C   UNL     1      50.825   8.261  12.367  0.00  0.00    +0.000 A 
ATOM     21  C   UNL     1      51.937   9.106  12.522  0.00  0.00    +0.000 A 
ATOM     22  C   UNL     1      52.901   9.214  11.515  0.00  0.00    +0.000 A 
ATOM     23  C   UNL     1      52.782   8.461  10.350  0.00  0.00    +0.000 A 
ATOM     24  C   UNL     1      51.712   7.584  10.200  0.00  0.00    +0.000 A 
ATOM     25  C   UNL     1      50.751   7.474  11.205  0.00  0.00    +0.000 A 
ENDBRANCH  19  20
ENDBRANCH   9  19
TORSDOF 4
ENDMDL
