MODEL 1
REMARK VINA RESULT:    -8.594      0.000      0.000
REMARK INTER + INTRA:         -10.840
REMARK INTER:                 -10.855
REMARK INTRA:                   0.015
REMARK UNBOUND:                 0.015
REMARK  Name = 
REMARK  6 active torsions:
REMARK  status: ('A' for Active; 'I' for Inactive)
REMARK    1  A    between atoms: C_1  and  C_2
REMARK    2  A    between atoms: C_4  and  C_5
REMARK    3  A    between atoms: C_10  and  N_11
REMARK    4  A    between atoms: N_11  and  C_12
REMARK    5  A    between atoms: C_12  and  C_13
REMARK    6  A    between atoms: C_16  and  O_17
REMARK                            x       y       z     vdW  Elec       q    Type
REMARK                         _______ _______ _______ _____ _____    ______ ____
ROOT
ATOM      1  N   UNL     1      43.962   4.963  10.078  0.00  0.00    +0.000 N 
ATOM      2  H   UNL     1      43.754   5.876   9.689  0.00  0.00    +0.000 HD
ENDROOT
BRANCH   1   9
ATOM      3  C   UNL     1      43.904   2.074  10.252  0.00  0.00    +0.000 C 
ATOM      4  C   UNL     1      44.816   2.822   9.323  0.00  0.00    +0.000 A 
ATOM      5  C   UNL     1      45.745   2.085   8.568  0.00  0.00    +0.000 A 
ATOM      6  C   UNL     1      46.599   2.719   7.671  0.00  0.00    +0.000 A 
ATOM      7  C   UNL     1      46.460   4.092   7.559  0.00  0.00    +0.000 A 
ATOM      8  N   UNL     1      45.589   4.847   8.296  0.00  0.00    +0.000 NA
ATOM      9  C   UNL     1      44.778   4.221   9.182  0.00  0.00    +0.000 A 
BRANCH   6  10
ATOM     10  C   UNL     1      47.576   1.882   6.924  0.00  0.00    +0.000 C 
ATOM     11  N   UNL     1      48.684   2.462   6.381  0.00  0.00    +0.000 N 
ATOM     12  O   UNL     1      47.406   0.674   6.802  0.00  0.00    +0.000 OA
ATOM     13  H   UNL     1      48.952   3.430   6.465  0.00  0.00    +0.000 HD
ATOM     14  H   UNL     1      49.333   1.838   5.914  0.00  0.00    +0.000 HD
ENDBRANCH   6  10
ENDBRANCH   1   9
BRANCH   1  15
ATOM     15  C   UNL     1      44.145   4.942  11.548  0.00  0.00    +0.000 C 
ATOM     16  C   UNL     1      43.293   4.038  12.419  0.00  0.00    +0.000 C 
ATOM     17  C   UNL     1      42.998   5.498  12.395  0.00  0.00    +0.000 C 
BRANCH  15  18
ATOM     18  C   UNL     1      45.541   5.362  12.020  0.00  0.00    +0.000 A 
ATOM     19  C   UNL     1      46.183   4.711  13.088  0.00  0.00    +0.000 A 
ATOM     20  C   UNL     1      47.436   5.126  13.564  0.00  0.00    +0.000 A 
ATOM     21  C   UNL     1      48.077   6.200  12.959  0.00  0.00    +0.000 A 
ATOM     22  C   UNL     1      47.470   6.858  11.895  0.00  0.00    +0.000 A 
ATOM     23  F   UNL     1      48.071   7.902  11.309  0.00  0.00    +0.000 F 
ATOM     24  C   UNL     1      46.220   6.447  11.431  0.00  0.00    +0.000 A 
BRANCH  21  25
ATOM     25  O   UNL     1      49.299   6.624  13.399  0.00  0.00    +0.000 OA
ATOM     26  H   UNL     1      49.586   7.381  12.862  0.00  0.00    +0.000 HD
ENDBRANCH  21  25
ENDBRANCH  15  18
ENDBRANCH   1  15
TORSDOF 5
ENDMDL
MODEL 2
REMARK VINA RESULT:    -8.409      1.758      2.109
REMARK INTER + INTRA:         -10.606
REMARK INTER:                 -10.048
REMARK INTRA:                  -0.558
REMARK UNBOUND:                 0.015
REMARK  Name = 
REMARK  6 active torsions:
REMARK  status: ('A' for Active; 'I' for Inactive)
REMARK    1  A    between atoms: C_1  and  C_2
REMARK    2  A    between atoms: C_4  and  C_5
REMARK    3  A    between atoms: C_10  and  N_11
REMARK    4  A    between atoms: N_11  and  C_12
REMARK    5  A    between atoms: C_12  and  C_13
REMARK    6  A    between atoms: C_16  and  O_17
REMARK                            x       y       z     vdW  Elec       q    Type
REMARK                         _______ _______ _______ _____ _____    ______ ____
ROOT
ATOM      1  N   UNL     1      44.496   4.989  10.228  0.00  0.00    +0.000 N 
ATOM      2  H   UNL     1      43.945   5.759   9.864  0.00  0.00    +0.000 HD
ENDROOT
BRANCH   1   9
ATOM      3  C   UNL     1      44.145   2.135   9.906  0.00  0.00    +0.000 C 
ATOM      4  C   UNL     1      45.093   2.944   9.070  0.00  0.00    +0.000 A 
ATOM      5  C   UNL     1      45.910   2.267   8.148  0.00  0.00    +0.000 A 
ATOM      6  C   UNL     1      46.790   2.965   7.327  0.00  0.00    +0.000 A 
ATOM      7  C   UNL     1      46.791   4.344   7.461  0.00  0.00    +0.000 A 
ATOM      8  N   UNL     1      46.032   5.035   8.364  0.00  0.00    +0.000 NA
ATOM      9  C   UNL     1      45.195   4.344   9.174  0.00  0.00    +0.000 A 
BRANCH   6  10
ATOM     10  C   UNL     1      47.646   2.184   6.394  0.00  0.00    +0.000 C 
ATOM     11  N   UNL     1      48.124   2.775   5.262  0.00  0.00    +0.000 N 
ATOM     12  O   UNL     1      47.939   1.018   6.635  0.00  0.00    +0.000 OA
ATOM     13  H   UNL     1      47.993   3.737   4.991  0.00  0.00    +0.000 HD
ATOM     14  H   UNL     1      48.731   2.208   4.681  0.00  0.00    +0.000 HD
ENDBRANCH   6  10
ENDBRANCH   1   9
BRANCH   1  15
ATOM     15  C   UNL     1      45.085   5.228  11.567  0.00  0.00    +0.000 C 
ATOM     16  C   UNL     1      45.640   4.076  12.382  0.00  0.00    +0.000 C 
ATOM     17  C   UNL     1      44.326   4.662  12.768  0.00  0.00    +0.000 C 
BRANCH  15  18
ATOM     18  C   UNL     1      45.633   6.644  11.775  0.00  0.00    +0.000 A 
ATOM     19  C   UNL     1      47.008   6.884  11.941  0.00  0.00    +0.000 A 
ATOM     20  C   UNL     1      47.513   8.170  12.191  0.00  0.00    +0.000 A 
ATOM     21  C   UNL     1      46.637   9.246  12.259  0.00  0.00    +0.000 A 
ATOM     22  C   UNL     1      45.273   9.042  12.090  0.00  0.00    +0.000 A 
ATOM     23  F   UNL     1      44.416  10.069  12.165  0.00  0.00    +0.000 F 
ATOM     24  C   UNL     1      44.775   7.760  11.852  0.00  0.00    +0.000 A 
BRANCH  21  25
ATOM     25  O   UNL     1      47.100  10.510  12.497  0.00  0.00    +0.000 OA
ATOM     26  H   UNL     1      47.655  10.791  11.752  0.00  0.00    +0.000 HD
ENDBRANCH  21  25
ENDBRANCH  15  18
ENDBRANCH   1  15
TORSDOF 5
ENDMDL
MODEL 3
REMARK VINA RESULT:    -7.482      2.875      6.494
REMARK INTER + INTRA:          -9.435
REMARK INTER:                  -9.443
REMARK INTRA:                   0.008
REMARK UNBOUND:                 0.015
REMARK  Name = 
REMARK  6 active torsions:
REMARK  status: ('A' for Active; 'I' for Inactive)
REMARK    1  A    between atoms: C_1  and  C_2
REMARK    2  A    between atoms: C_4  and  C_5
REMARK    3  A    between atoms: C_10  and  N_11
REMARK    4  A    between atoms: N_11  and  C_12
REMARK    5  A    between atoms: C_12  and  C_13
REMARK    6  A    between atoms: C_16  and  O_17
REMARK                            x       y       z     vdW  Elec       q    Type
REMARK                         _______ _______ _______ _____ _____    ______ ____
ROOT
ATOM      1  N   UNL     1      44.660   5.043   9.731  0.00  0.00    +0.000 N 
ATOM      2  H   UNL     1      43.714   5.346   9.528  0.00  0.00    +0.000 HD
ENDROOT
BRANCH   1   9
ATOM      3  C   UNL     1      42.945   6.494  11.556  0.00  0.00    +0.000 C 
ATOM      4  C   UNL     1      44.431   6.694  11.493  0.00  0.00    +0.000 A 
ATOM      5  C   UNL     1      45.002   7.695  12.299  0.00  0.00    +0.000 A 
ATOM      6  C   UNL     1      46.376   7.910  12.304  0.00  0.00    +0.000 A 
ATOM      7  C   UNL     1      47.130   7.075  11.496  0.00  0.00    +0.000 A 
ATOM      8  N   UNL     1      46.610   6.109  10.679  0.00  0.00    +0.000 NA
ATOM      9  C   UNL     1      45.269   5.924  10.665  0.00  0.00    +0.000 A 
BRANCH   6  10
ATOM     10  C   UNL     1      46.910   9.004  13.158  0.00  0.00    +0.000 C 
ATOM     11  N   UNL     1      46.983   8.832  14.509  0.00  0.00    +0.000 N 
ATOM     12  O   UNL     1      47.301  10.056  12.663  0.00  0.00    +0.000 OA
ATOM     13  H   UNL     1      46.743   7.995  15.016  0.00  0.00    +0.000 HD
ATOM     14  H   UNL     1      47.388   9.596  15.038  0.00  0.00    +0.000 HD
ENDBRANCH   6  10
ENDBRANCH   1   9
BRANCH   1  15
ATOM     15  C   UNL     1      44.846   3.573   9.763  0.00  0.00    +0.000 C 
ATOM     16  C   UNL     1      43.780   2.674  10.360  0.00  0.00    +0.000 C 
ATOM     17  C   UNL     1      45.024   2.929  11.139  0.00  0.00    +0.000 C 
BRANCH  15  18
ATOM     18  C   UNL     1      45.787   3.029   8.683  0.00  0.00    +0.000 A 
ATOM     19  C   UNL     1      46.453   3.885   7.788  0.00  0.00    +0.000 A 
ATOM     20  C   UNL     1      47.270   3.393   6.759  0.00  0.00    +0.000 A 
ATOM     21  C   UNL     1      47.448   2.021   6.624  0.00  0.00    +0.000 A 
ATOM     22  C   UNL     1      46.810   1.150   7.500  0.00  0.00    +0.000 A 
ATOM     23  F   UNL     1      46.963  -0.175   7.374  0.00  0.00    +0.000 F 
ATOM     24  C   UNL     1      45.990   1.645   8.515  0.00  0.00    +0.000 A 
BRANCH  21  25
ATOM     25  O   UNL     1      48.241   1.513   5.634  0.00  0.00    +0.000 OA
ATOM     26  H   UNL     1      47.791   1.617   4.780  0.00  0.00    +0.000 HD
ENDBRANCH  21  25
ENDBRANCH  15  18
ENDBRANCH   1  15
TORSDOF 5
ENDMDL
MODEL 4
REMARK VINA RESULT:    -7.138      2.830      6.384
REMARK INTER + INTRA:          -9.001
REMARK INTER:                  -8.720
REMARK INTRA:                  -0.280
REMARK UNBOUND:                 0.015
REMARK  Name = 
REMARK  6 active torsions:
REMARK  status: ('A' for Active; 'I' for Inactive)
REMARK    1  A    between atoms: C_1  and  C_2
REMARK    2  A    between atoms: C_4  and  C_5
REMARK    3  A    between atoms: C_10  and  N_11
REMARK    4  A    between atoms: N_11  and  C_12
REMARK    5  A    between atoms: C_12  and  C_13
REMARK    6  A    between atoms: C_16  and  O_17
REMARK                            x       y       z     vdW  Elec       q    Type
REMARK                         _______ _______ _______ _____ _____    ______ ____
ROOT
ATOM      1  N   UNL     1      45.342   4.519  12.315  0.00  0.00    +0.000 N 
ATOM      2  H   UNL     1      45.735   3.626  12.591  0.00  0.00    +0.000 HD
ENDROOT
BRANCH   1   9
ATOM      3  C   UNL     1      47.041   4.351  14.652  0.00  0.00    +0.000 C 
ATOM      4  C   UNL     1      47.049   5.523  13.715  0.00  0.00    +0.000 A 
ATOM      5  C   UNL     1      47.858   6.627  14.038  0.00  0.00    +0.000 A 
ATOM      6  C   UNL     1      47.927   7.731  13.196  0.00  0.00    +0.000 A 
ATOM      7  C   UNL     1      47.179   7.663  12.032  0.00  0.00    +0.000 A 
ATOM      8  N   UNL     1      46.360   6.620  11.696  0.00  0.00    +0.000 NA
ATOM      9  C   UNL     1      46.283   5.560  12.535  0.00  0.00    +0.000 A 
BRANCH   6  10
ATOM     10  C   UNL     1      48.781   8.877  13.611  0.00  0.00    +0.000 C 
ATOM     11  N   UNL     1      48.232   9.909  14.313  0.00  0.00    +0.000 N 
ATOM     12  O   UNL     1      49.978   8.899  13.344  0.00  0.00    +0.000 OA
ATOM     13  H   UNL     1      47.278   9.970  14.633  0.00  0.00    +0.000 HD
ATOM     14  H   UNL     1      48.867  10.644  14.601  0.00  0.00    +0.000 HD
ENDBRANCH   6  10
ENDBRANCH   1   9
BRANCH   1  15
ATOM     15  C   UNL     1      44.453   4.465  11.130  0.00  0.00    +0.000 C 
ATOM     16  C   UNL     1      43.294   5.432  10.991  0.00  0.00    +0.000 C 
ATOM     17  C   UNL     1      43.010   4.020  11.369  0.00  0.00    +0.000 C 
BRANCH  15  18
ATOM     18  C   UNL     1      45.102   3.865   9.878  0.00  0.00    +0.000 A 
ATOM     19  C   UNL     1      45.631   4.680   8.862  0.00  0.00    +0.000 A 
ATOM     20  C   UNL     1      46.174   4.141   7.686  0.00  0.00    +0.000 A 
ATOM     21  C   UNL     1      46.211   2.762   7.519  0.00  0.00    +0.000 A 
ATOM     22  C   UNL     1      45.703   1.930   8.511  0.00  0.00    +0.000 A 
ATOM     23  F   UNL     1      45.721   0.599   8.358  0.00  0.00    +0.000 F 
ATOM     24  C   UNL     1      45.155   2.472   9.674  0.00  0.00    +0.000 A 
BRANCH  21  25
ATOM     25  O   UNL     1      46.737   2.208   6.386  0.00  0.00    +0.000 OA
ATOM     26  H   UNL     1      47.586   2.634   6.187  0.00  0.00    +0.000 HD
ENDBRANCH  21  25
ENDBRANCH  15  18
ENDBRANCH   1  15
TORSDOF 5
ENDMDL
MODEL 5
REMARK VINA RESULT:    -6.898      4.884      7.696
REMARK INTER + INTRA:          -8.698
REMARK INTER:                  -8.145
REMARK INTRA:                  -0.553
REMARK UNBOUND:                 0.015
REMARK  Name = 
REMARK  6 active torsions:
REMARK  status: ('A' for Active; 'I' for Inactive)
REMARK    1  A    between atoms: C_1  and  C_2
REMARK    2  A    between atoms: C_4  and  C_5
REMARK    3  A    between atoms: C_10  and  N_11
REMARK    4  A    between atoms: N_11  and  C_12
REMARK    5  A    between atoms: C_12  and  C_13
REMARK    6  A    between atoms: C_16  and  O_17
REMARK                            x       y       z     vdW  Elec       q    Type
REMARK                         _______ _______ _______ _____ _____    ______ ____
ROOT
ATOM      1  N   UNL     1      47.128   5.199  15.579  0.00  0.00    +0.000 N 
ATOM      2  H   UNL     1      46.221   5.075  16.014  0.00  0.00    +0.000 HD
ENDROOT
BRANCH   1   9
ATOM      3  C   UNL     1      49.062   6.406  17.363  0.00  0.00    +0.000 C 
ATOM      4  C   UNL     1      49.082   4.951  16.994  0.00  0.00    +0.000 A 
ATOM      5  C   UNL     1      50.142   4.159  17.471  0.00  0.00    +0.000 A 
ATOM      6  C   UNL     1      50.201   2.799  17.184  0.00  0.00    +0.000 A 
ATOM      7  C   UNL     1      49.157   2.284  16.433  0.00  0.00    +0.000 A 
ATOM      8  N   UNL     1      48.125   3.026  15.930  0.00  0.00    +0.000 NA
ATOM      9  C   UNL     1      48.089   4.354  16.195  0.00  0.00    +0.000 A 
BRANCH   6  10
ATOM     10  C   UNL     1      51.365   2.026  17.696  0.00  0.00    +0.000 C 
ATOM     11  N   UNL     1      51.281   0.669  17.798  0.00  0.00    +0.000 N 
ATOM     12  O   UNL     1      52.405   2.592  18.016  0.00  0.00    +0.000 OA
ATOM     13  H   UNL     1      50.500   0.097  17.516  0.00  0.00    +0.000 HD
ATOM     14  H   UNL     1      52.115   0.191  18.119  0.00  0.00    +0.000 HD
ENDBRANCH   6  10
ENDBRANCH   1   9
BRANCH   1  15
ATOM     15  C   UNL     1      47.085   5.448  14.118  0.00  0.00    +0.000 C 
ATOM     16  C   UNL     1      48.352   5.785  13.356  0.00  0.00    +0.000 C 
ATOM     17  C   UNL     1      47.381   6.874  13.652  0.00  0.00    +0.000 C 
BRANCH  15  18
ATOM     18  C   UNL     1      45.914   4.776  13.395  0.00  0.00    +0.000 A 
ATOM     19  C   UNL     1      46.045   3.507  12.803  0.00  0.00    +0.000 A 
ATOM     20  C   UNL     1      44.996   2.908  12.089  0.00  0.00    +0.000 A 
ATOM     21  C   UNL     1      43.782   3.574  11.972  0.00  0.00    +0.000 A 
ATOM     22  C   UNL     1      43.619   4.826  12.553  0.00  0.00    +0.000 A 
ATOM     23  F   UNL     1      42.458   5.484  12.438  0.00  0.00    +0.000 F 
ATOM     24  C   UNL     1      44.669   5.420  13.254  0.00  0.00    +0.000 A 
BRANCH  21  25
ATOM     25  O   UNL     1      42.741   3.014  11.285  0.00  0.00    +0.000 OA
ATOM     26  H   UNL     1      42.381   3.669  10.664  0.00  0.00    +0.000 HD
ENDBRANCH  21  25
ENDBRANCH  15  18
ENDBRANCH   1  15
TORSDOF 5
ENDMDL
MODEL 6
REMARK VINA RESULT:    -6.895      3.279      6.575
REMARK INTER + INTRA:          -8.693
REMARK INTER:                  -8.301
REMARK INTRA:                  -0.392
REMARK UNBOUND:                 0.015
REMARK  Name = 
REMARK  6 active torsions:
REMARK  status: ('A' for Active; 'I' for Inactive)
REMARK    1  A    between atoms: C_1  and  C_2
REMARK    2  A    between atoms: C_4  and  C_5
REMARK    3  A    between atoms: C_10  and  N_11
REMARK    4  A    between atoms: N_11  and  C_12
REMARK    5  A    between atoms: C_12  and  C_13
REMARK    6  A    between atoms: C_16  and  O_17
REMARK                            x       y       z     vdW  Elec       q    Type
REMARK                         _______ _______ _______ _____ _____    ______ ____
ROOT
ATOM      1  N   UNL     1      45.898   4.175  13.487  0.00  0.00    +0.000 N 
ATOM      2  H   UNL     1      46.206   3.212  13.411  0.00  0.00    +0.000 HD
ENDROOT
BRANCH   1   9
ATOM      3  C   UNL     1      47.061   4.111  16.137  0.00  0.00    +0.000 C 
ATOM      4  C   UNL     1      47.515   5.058  15.065  0.00  0.00    +0.000 A 
ATOM      5  C   UNL     1      48.491   6.015  15.393  0.00  0.00    +0.000 A 
ATOM      6  C   UNL     1      48.970   6.903  14.436  0.00  0.00    +0.000 A 
ATOM      7  C   UNL     1      48.449   6.769  13.159  0.00  0.00    +0.000 A 
ATOM      8  N   UNL     1      47.480   5.869  12.808  0.00  0.00    +0.000 NA
ATOM      9  C   UNL     1      47.004   5.025  13.753  0.00  0.00    +0.000 A 
BRANCH   6  10
ATOM     10  C   UNL     1      49.982   7.909  14.857  0.00  0.00    +0.000 C 
ATOM     11  N   UNL     1      51.279   7.767  14.462  0.00  0.00    +0.000 N 
ATOM     12  O   UNL     1      49.663   8.872  15.545  0.00  0.00    +0.000 OA
ATOM     13  H   UNL     1      51.643   7.049  13.855  0.00  0.00    +0.000 HD
ATOM     14  H   UNL     1      51.918   8.500  14.749  0.00  0.00    +0.000 HD
ENDBRANCH   6  10
ENDBRANCH   1   9
BRANCH   1  15
ATOM     15  C   UNL     1      44.792   4.545  12.573  0.00  0.00    +0.000 C 
ATOM     16  C   UNL     1      43.853   5.684  12.921  0.00  0.00    +0.000 C 
ATOM     17  C   UNL     1      43.369   4.284  13.069  0.00  0.00    +0.000 C 
BRANCH  15  18
ATOM     18  C   UNL     1      45.029   4.172  11.106  0.00  0.00    +0.000 A 
ATOM     19  C   UNL     1      45.406   5.135  10.154  0.00  0.00    +0.000 A 
ATOM     20  C   UNL     1      45.569   4.814   8.797  0.00  0.00    +0.000 A 
ATOM     21  C   UNL     1      45.371   3.505   8.376  0.00  0.00    +0.000 A 
ATOM     22  C   UNL     1      45.005   2.529   9.296  0.00  0.00    +0.000 A 
ATOM     23  F   UNL     1      44.799   1.265   8.902  0.00  0.00    +0.000 F 
ATOM     24  C   UNL     1      44.836   2.855  10.642  0.00  0.00    +0.000 A 
BRANCH  21  25
ATOM     25  O   UNL     1      45.525   3.161   7.062  0.00  0.00    +0.000 OA
ATOM     26  H   UNL     1      44.650   3.071   6.652  0.00  0.00    +0.000 HD
ENDBRANCH  21  25
ENDBRANCH  15  18
ENDBRANCH   1  15
TORSDOF 5
ENDMDL
MODEL 7
REMARK VINA RESULT:    -6.526      4.061      7.404
REMARK INTER + INTRA:          -8.228
REMARK INTER:                  -8.078
REMARK INTRA:                  -0.151
REMARK UNBOUND:                 0.015
REMARK  Name = 
REMARK  6 active torsions:
REMARK  status: ('A' for Active; 'I' for Inactive)
REMARK    1  A    between atoms: C_1  and  C_2
REMARK    2  A    between atoms: C_4  and  C_5
REMARK    3  A    between atoms: C_10  and  N_11
REMARK    4  A    between atoms: N_11  and  C_12
REMARK    5  A    between atoms: C_12  and  C_13
REMARK    6  A    between atoms: C_16  and  O_17
REMARK                            x       y       z     vdW  Elec       q    Type
REMARK                         _______ _______ _______ _____ _____    ______ ____
ROOT
ATOM      1  N   UNL     1      47.542   5.830  12.984  0.00  0.00    +0.000 N 
ATOM      2  H   UNL     1      48.349   6.353  12.664  0.00  0.00    +0.000 HD
ENDROOT
BRANCH   1   9
ATOM      3  C   UNL     1      48.853   7.746  14.712  0.00  0.00    +0.000 C 
ATOM      4  C   UNL     1      48.394   6.397  15.183  0.00  0.00    +0.000 A 
ATOM      5  C   UNL     1      48.695   6.016  16.502  0.00  0.00    +0.000 A 
ATOM      6  C   UNL     1      48.274   4.789  17.004  0.00  0.00    +0.000 A 
ATOM      7  C   UNL     1      47.536   3.994  16.142  0.00  0.00    +0.000 A 
ATOM      8  N   UNL     1      47.247   4.318  14.845  0.00  0.00    +0.000 NA
ATOM      9  C   UNL     1      47.682   5.505  14.360  0.00  0.00    +0.000 A 
BRANCH   6  10
ATOM     10  C   UNL     1      48.650   4.437  18.400  0.00  0.00    +0.000 C 
ATOM     11  N   UNL     1      48.380   3.189  18.877  0.00  0.00    +0.000 N 
ATOM     12  O   UNL     1      49.214   5.250  19.124  0.00  0.00    +0.000 OA
ATOM     13  H   UNL     1      47.973   2.427  18.358  0.00  0.00    +0.000 HD
ATOM     14  H   UNL     1      48.690   2.993  19.822  0.00  0.00    +0.000 HD
ENDBRANCH   6  10
ENDBRANCH   1   9
BRANCH   1  15
ATOM     15  C   UNL     1      46.256   6.241  12.374  0.00  0.00    +0.000 C 
ATOM     16  C   UNL     1      46.166   7.507  11.543  0.00  0.00    +0.000 C 
ATOM     17  C   UNL     1      45.606   7.513  12.923  0.00  0.00    +0.000 C 
BRANCH  15  18
ATOM     18  C   UNL     1      45.277   5.090  12.120  0.00  0.00    +0.000 A 
ATOM     19  C   UNL     1      44.394   4.641  13.118  0.00  0.00    +0.000 A 
ATOM     20  C   UNL     1      43.535   3.550  12.914  0.00  0.00    +0.000 A 
ATOM     21  C   UNL     1      43.537   2.900  11.687  0.00  0.00    +0.000 A 
ATOM     22  C   UNL     1      44.393   3.326  10.677  0.00  0.00    +0.000 A 
ATOM     23  F   UNL     1      44.413   2.701   9.493  0.00  0.00    +0.000 F 
ATOM     24  C   UNL     1      45.251   4.405  10.889  0.00  0.00    +0.000 A 
BRANCH  21  25
ATOM     25  O   UNL     1      42.709   1.836  11.457  0.00  0.00    +0.000 OA
ATOM     26  H   UNL     1      43.191   1.013  11.638  0.00  0.00    +0.000 HD
ENDBRANCH  21  25
ENDBRANCH  15  18
ENDBRANCH   1  15
TORSDOF 5
ENDMDL
MODEL 8
REMARK VINA RESULT:    -6.504      4.739      6.551
REMARK INTER + INTRA:          -8.200
REMARK INTER:                  -7.946
REMARK INTRA:                  -0.254
REMARK UNBOUND:                 0.015
REMARK  Name = 
REMARK  6 active torsions:
REMARK  status: ('A' for Active; 'I' for Inactive)
REMARK    1  A    between atoms: C_1  and  C_2
REMARK    2  A    between atoms: C_4  and  C_5
REMARK    3  A    between atoms: C_10  and  N_11
REMARK    4  A    between atoms: N_11  and  C_12
REMARK    5  A    between atoms: C_12  and  C_13
REMARK    6  A    between atoms: C_16  and  O_17
REMARK                            x       y       z     vdW  Elec       q    Type
REMARK                         _______ _______ _______ _____ _____    ______ ____
ROOT
ATOM      1  N   UNL     1      48.272   5.754  13.917  0.00  0.00    +0.000 N 
ATOM      2  H   UNL     1      48.687   4.829  13.893  0.00  0.00    +0.000 HD
ENDROOT
BRANCH   1   9
ATOM      3  C   UNL     1      47.904   7.387  11.556  0.00  0.00    +0.000 C 
ATOM      4  C   UNL     1      46.795   6.596  12.187  0.00  0.00    +0.000 A 
ATOM      5  C   UNL     1      45.500   6.726  11.655  0.00  0.00    +0.000 A 
ATOM      6  C   UNL     1      44.437   5.999  12.181  0.00  0.00    +0.000 A 
ATOM      7  C   UNL     1      44.737   5.141  13.226  0.00  0.00    +0.000 A 
ATOM      8  N   UNL     1      45.977   5.008  13.787  0.00  0.00    +0.000 NA
ATOM      9  C   UNL     1      47.000   5.737  13.283  0.00  0.00    +0.000 A 
BRANCH   6  10
ATOM     10  C   UNL     1      43.088   6.205  11.589  0.00  0.00    +0.000 C 
ATOM     11  N   UNL     1      42.762   7.417  11.056  0.00  0.00    +0.000 N 
ATOM     12  O   UNL     1      42.267   5.294  11.560  0.00  0.00    +0.000 OA
ATOM     13  H   UNL     1      43.371   8.216  10.976  0.00  0.00    +0.000 HD
ATOM     14  H   UNL     1      41.842   7.490  10.635  0.00  0.00    +0.000 HD
ENDBRANCH   6  10
ENDBRANCH   1   9
BRANCH   1  15
ATOM     15  C   UNL     1      48.555   6.528  15.148  0.00  0.00    +0.000 C 
ATOM     16  C   UNL     1      48.331   8.028  15.183  0.00  0.00    +0.000 C 
ATOM     17  C   UNL     1      49.725   7.511  15.092  0.00  0.00    +0.000 C 
BRANCH  15  18
ATOM     18  C   UNL     1      48.474   5.714  16.443  0.00  0.00    +0.000 A 
ATOM     19  C   UNL     1      49.057   6.172  17.638  0.00  0.00    +0.000 A 
ATOM     20  C   UNL     1      49.039   5.407  18.814  0.00  0.00    +0.000 A 
ATOM     21  C   UNL     1      48.414   4.166  18.813  0.00  0.00    +0.000 A 
ATOM     22  C   UNL     1      47.822   3.690  17.649  0.00  0.00    +0.000 A 
ATOM     23  F   UNL     1      47.226   2.490  17.630  0.00  0.00    +0.000 F 
ATOM     24  C   UNL     1      47.851   4.451  16.480  0.00  0.00    +0.000 A 
BRANCH  21  25
ATOM     25  O   UNL     1      48.377   3.400  19.944  0.00  0.00    +0.000 OA
ATOM     26  H   UNL     1      47.571   3.607  20.443  0.00  0.00    +0.000 HD
ENDBRANCH  21  25
ENDBRANCH  15  18
ENDBRANCH   1  15
TORSDOF 5
ENDMDL
MODEL 9
REMARK VINA RESULT:    -6.429      2.945      5.865
REMARK INTER + INTRA:          -8.105
REMARK INTER:                  -7.933
REMARK INTRA:                  -0.172
REMARK UNBOUND:                 0.015
REMARK  Name = 
REMARK  6 active torsions:
REMARK  status: ('A' for Active; 'I' for Inactive)
REMARK    1  A    between atoms: C_1  and  C_2
REMARK    2  A    between atoms: C_4  and  C_5
REMARK    3  A    between atoms: C_10  and  N_11
REMARK    4  A    between atoms: N_11  and  C_12
REMARK    5  A    between atoms: C_12  and  C_13
REMARK    6  A    between atoms: C_16  and  O_17
REMARK                            x       y       z     vdW  Elec       q    Type
REMARK                         _______ _______ _______ _____ _____    ______ ____
ROOT
ATOM      1  N   UNL     1      44.828   5.833  12.841  0.00  0.00    +0.000 N 
ATOM      2  H   UNL     1      44.824   5.096  13.537  0.00  0.00    +0.000 HD
ENDROOT
BRANCH   1   9
ATOM      3  C   UNL     1      45.039   8.674  12.331  0.00  0.00    +0.000 C 
ATOM      4  C   UNL     1      46.229   7.762  12.397  0.00  0.00    +0.000 A 
ATOM      5  C   UNL     1      47.496   8.301  12.111  0.00  0.00    +0.000 A 
ATOM      6  C   UNL     1      48.639   7.512  12.182  0.00  0.00    +0.000 A 
ATOM      7  C   UNL     1      48.452   6.194  12.565  0.00  0.00    +0.000 A 
ATOM      8  N   UNL     1      47.235   5.627  12.824  0.00  0.00    +0.000 NA
ATOM      9  C   UNL     1      46.126   6.399  12.730  0.00  0.00    +0.000 A 
BRANCH   6  10
ATOM     10  C   UNL     1      49.944   8.138  11.840  0.00  0.00    +0.000 C 
ATOM     11  N   UNL     1      50.976   7.357  11.411  0.00  0.00    +0.000 N 
ATOM     12  O   UNL     1      50.102   9.351  11.925  0.00  0.00    +0.000 OA
ATOM     13  H   UNL     1      50.944   6.362  11.251  0.00  0.00    +0.000 HD
ATOM     14  H   UNL     1      51.830   7.841  11.158  0.00  0.00    +0.000 HD
ENDBRANCH   6  10
ENDBRANCH   1   9
BRANCH   1  15
ATOM     15  C   UNL     1      43.947   5.588  11.675  0.00  0.00    +0.000 C 
ATOM     16  C   UNL     1      42.794   6.524  11.369  0.00  0.00    +0.000 C 
ATOM     17  C   UNL     1      42.499   5.194  11.973  0.00  0.00    +0.000 C 
BRANCH  15  18
ATOM     18  C   UNL     1      44.600   4.786  10.544  0.00  0.00    +0.000 A 
ATOM     19  C   UNL     1      45.442   5.399   9.599  0.00  0.00    +0.000 A 
ATOM     20  C   UNL     1      45.998   4.685   8.527  0.00  0.00    +0.000 A 
ATOM     21  C   UNL     1      45.730   3.328   8.397  0.00  0.00    +0.000 A 
ATOM     22  C   UNL     1      44.908   2.692   9.321  0.00  0.00    +0.000 A 
ATOM     23  F   UNL     1      44.632   1.387   9.202  0.00  0.00    +0.000 F 
ATOM     24  C   UNL     1      44.350   3.409  10.380  0.00  0.00    +0.000 A 
BRANCH  21  25
ATOM     25  O   UNL     1      46.260   2.605   7.365  0.00  0.00    +0.000 OA
ATOM     26  H   UNL     1      47.159   2.324   7.602  0.00  0.00    +0.000 HD
ENDBRANCH  21  25
ENDBRANCH  15  18
ENDBRANCH   1  15
TORSDOF 5
ENDMDL
