MODEL 1
REMARK VINA RESULT:    -8.172      0.000      0.000
REMARK INTER + INTRA:         -11.958
REMARK INTER:                 -11.039
REMARK INTRA:                  -0.920
REMARK UNBOUND:                -0.920
REMARK  Name = 
REMARK  7 active torsions:
REMARK  status: ('A' for Active; 'I' for Inactive)
REMARK    1  A    between atoms: C_1  and  C_2
REMARK    2  A    between atoms: C_2  and  N_3
REMARK    3  A    between atoms: C_2  and  C_11
REMARK    4  A    between atoms: C_4  and  C_6
REMARK    5  A    between atoms: C_14  and  C_15
REMARK    6  A    between atoms: C_15  and  N_16
REMARK    7  A    between atoms: C_17  and  C_19
REMARK                            x       y       z     vdW  Elec       q    Type
REMARK                         _______ _______ _______ _____ _____    ______ ____
ROOT
ATOM      1  C   UNL     1      45.174   5.098  11.567  0.00  0.00    +0.000 A 
ATOM      2  C   UNL     1      45.822   4.386  12.592  0.00  0.00    +0.000 A 
ATOM      3  C   UNL     1      46.787   5.004  13.404  0.00  0.00    +0.000 A 
ATOM      4  C   UNL     1      47.111   6.355  13.220  0.00  0.00    +0.000 A 
ATOM      5  C   UNL     1      46.462   7.066  12.205  0.00  0.00    +0.000 A 
ATOM      6  C   UNL     1      45.497   6.452  11.403  0.00  0.00    +0.000 A 
ENDROOT
BRANCH   1   8
ATOM      7  C   UNL     1      43.098   3.605  11.493  0.00  0.00    +0.000 C 
ATOM      8  C   UNL     1      44.140   4.400  10.695  0.00  0.00    +0.000 C 
BRANCH   8   9
ATOM      9  N   UNL     1      44.802   3.540   9.732  0.00  0.00    +0.000 N 
ATOM     10  C   UNL     1      45.456   4.016   8.619  0.00  0.00    +0.000 C 
ATOM     11  O   UNL     1      45.601   5.211   8.378  0.00  0.00    +0.000 OA
ATOM     12  H   UNL     1      44.725   2.528   9.806  0.00  0.00    +0.000 HD
BRANCH  10  13
ATOM     13  C   UNL     1      45.943   2.927   7.655  0.00  0.00    +0.000 C 
ATOM     14  C   UNL     1      46.120   1.582   8.333  0.00  0.00    +0.000 C 
ATOM     15  C   UNL     1      46.994   0.827   7.345  0.00  0.00    +0.000 C 
ATOM     16  C   UNL     1      47.822   1.909   6.661  0.00  0.00    +0.000 C 
ATOM     17  N   UNL     1      47.321   3.193   7.161  0.00  0.00    +0.000 NA
ATOM     18  H   UNL     1      47.285   3.880   6.407  0.00  0.00    +0.000 HD
ENDBRANCH  10  13
ENDBRANCH   8   9
ENDBRANCH   1   8
BRANCH   4  19
ATOM     19  C   UNL     1      48.166   7.038  14.051  0.00  0.00    +0.000 C 
BRANCH  19  20
ATOM     20  N   UNL     1      48.044   6.684  15.444  0.00  0.00    +0.000 N 
ATOM     21  C   UNL     1      49.146   6.371  16.199  0.00  0.00    +0.000 C 
ATOM     22  O   UNL     1      50.283   6.420  15.743  0.00  0.00    +0.000 OA
ATOM     23  H   UNL     1      47.125   6.401  15.767  0.00  0.00    +0.000 HD
BRANCH  21  24
ATOM     24  C   UNL     1      48.899   6.035  17.609  0.00  0.00    +0.000 A 
ATOM     25  C   UNL     1      49.165   4.750  18.066  0.00  0.00    +0.000 A 
ATOM     26  S   UNL     1      48.850   4.538  19.729  0.00  0.00    +0.000 S 
ATOM     27  C   UNL     1      48.298   6.140  19.886  0.00  0.00    +0.000 A 
ATOM     28  N   UNL     1      47.834   6.606  21.075  0.00  0.00    +0.000 NA
ATOM     29  C   UNL     1      47.419   7.828  21.045  0.00  0.00    +0.000 A 
ATOM     30  N   UNL     1      47.436   8.630  19.934  0.00  0.00    +0.000 N 
ATOM     31  C   UNL     1      47.927   8.213  18.719  0.00  0.00    +0.000 A 
ATOM     32  O   UNL     1      47.979   8.973  17.758  0.00  0.00    +0.000 OA
ATOM     33  C   UNL     1      48.383   6.836  18.693  0.00  0.00    +0.000 A 
ATOM     34  H   UNL     1      47.114   9.585  19.981  0.00  0.00    +0.000 HD
ENDBRANCH  21  24
ENDBRANCH  19  20
ENDBRANCH   4  19
TORSDOF 6
ENDMDL
MODEL 2
REMARK VINA RESULT:    -8.128      1.373      2.017
REMARK INTER + INTRA:         -11.899
REMARK INTER:                 -11.033
REMARK INTRA:                  -0.866
REMARK UNBOUND:                -0.920
REMARK  Name = 
REMARK  7 active torsions:
REMARK  status: ('A' for Active; 'I' for Inactive)
REMARK    1  A    between atoms: C_1  and  C_2
REMARK    2  A    between atoms: C_2  and  N_3
REMARK    3  A    between atoms: C_2  and  C_11
REMARK    4  A    between atoms: C_4  and  C_6
REMARK    5  A    between atoms: C_14  and  C_15
REMARK    6  A    between atoms: C_15  and  N_16
REMARK    7  A    between atoms: C_17  and  C_19
REMARK                            x       y       z     vdW  Elec       q    Type
REMARK                         _______ _______ _______ _____ _____    ______ ____
ROOT
ATOM      1  C   UNL     1      45.215   4.810  11.710  0.00  0.00    +0.000 A 
ATOM      2  C   UNL     1      45.968   4.355  12.807  0.00  0.00    +0.000 A 
ATOM      3  C   UNL     1      46.881   5.201  13.458  0.00  0.00    +0.000 A 
ATOM      4  C   UNL     1      47.047   6.527  13.036  0.00  0.00    +0.000 A 
ATOM      5  C   UNL     1      46.292   6.983  11.950  0.00  0.00    +0.000 A 
ATOM      6  C   UNL     1      45.379   6.143  11.308  0.00  0.00    +0.000 A 
ENDROOT
BRANCH   1   8
ATOM      7  C   UNL     1      43.515   2.917  11.977  0.00  0.00    +0.000 C 
ATOM      8  C   UNL     1      44.240   3.868  11.016  0.00  0.00    +0.000 C 
BRANCH   8   9
ATOM      9  N   UNL     1      44.927   3.116   9.983  0.00  0.00    +0.000 N 
ATOM     10  C   UNL     1      45.167   3.611   8.723  0.00  0.00    +0.000 C 
ATOM     11  O   UNL     1      44.889   4.757   8.380  0.00  0.00    +0.000 OA
ATOM     12  H   UNL     1      45.180   2.142  10.136  0.00  0.00    +0.000 HD
BRANCH  10  13
ATOM     13  C   UNL     1      45.761   2.591   7.743  0.00  0.00    +0.000 C 
ATOM     14  C   UNL     1      46.014   1.241   8.386  0.00  0.00    +0.000 C 
ATOM     15  C   UNL     1      46.970   0.583   7.404  0.00  0.00    +0.000 C 
ATOM     16  C   UNL     1      47.738   1.744   6.780  0.00  0.00    +0.000 C 
ATOM     17  N   UNL     1      47.130   2.971   7.302  0.00  0.00    +0.000 NA
ATOM     18  H   UNL     1      47.067   3.678   6.568  0.00  0.00    +0.000 HD
ENDBRANCH  10  13
ENDBRANCH   8   9
ENDBRANCH   1   8
BRANCH   4  19
ATOM     19  C   UNL     1      48.043   7.449  13.690  0.00  0.00    +0.000 C 
BRANCH  19  20
ATOM     20  N   UNL     1      47.976   7.355  15.128  0.00  0.00    +0.000 N 
ATOM     21  C   UNL     1      49.059   6.952  15.868  0.00  0.00    +0.000 C 
ATOM     22  O   UNL     1      50.141   6.698  15.352  0.00  0.00    +0.000 OA
ATOM     23  H   UNL     1      47.050   7.318  15.543  0.00  0.00    +0.000 HD
BRANCH  21  24
ATOM     24  C   UNL     1      48.873   6.903  17.326  0.00  0.00    +0.000 A 
ATOM     25  C   UNL     1      48.697   8.084  18.036  0.00  0.00    +0.000 A 
ATOM     26  S   UNL     1      48.467   7.846  19.709  0.00  0.00    +0.000 S 
ATOM     27  C   UNL     1      48.648   6.162  19.552  0.00  0.00    +0.000 A 
ATOM     28  N   UNL     1      48.597   5.348  20.639  0.00  0.00    +0.000 NA
ATOM     29  C   UNL     1      48.778   4.097  20.380  0.00  0.00    +0.000 A 
ATOM     30  N   UNL     1      48.996   3.584  19.127  0.00  0.00    +0.000 N 
ATOM     31  C   UNL     1      49.022   4.363  17.995  0.00  0.00    +0.000 A 
ATOM     32  O   UNL     1      49.164   3.866  16.883  0.00  0.00    +0.000 OA
ATOM     33  C   UNL     1      48.848   5.783  18.236  0.00  0.00    +0.000 A 
ATOM     34  H   UNL     1      49.113   2.591  18.989  0.00  0.00    +0.000 HD
ENDBRANCH  21  24
ENDBRANCH  19  20
ENDBRANCH   4  19
TORSDOF 6
ENDMDL
MODEL 3
REMARK VINA RESULT:    -7.283      3.936      9.287
REMARK INTER + INTRA:         -10.758
REMARK INTER:                  -9.785
REMARK INTRA:                  -0.973
REMARK UNBOUND:                -0.920
REMARK  Name = 
REMARK  7 active torsions:
REMARK  status: ('A' for Active; 'I' for Inactive)
REMARK    1  A    between atoms: C_1  and  C_2
REMARK    2  A    between atoms: C_2  and  N_3
REMARK    3  A    between atoms: C_2  and  C_11
REMARK    4  A    between atoms: C_4  and  C_6
REMARK    5  A    between atoms: C_14  and  C_15
REMARK    6  A    between atoms: C_15  and  N_16
REMARK    7  A    between atoms: C_17  and  C_19
REMARK                            x       y       z     vdW  Elec       q    Type
REMARK                         _______ _______ _______ _____ _____    ______ ____
ROOT
ATOM      1  C   UNL     1      49.015   4.770  17.347  0.00  0.00    +0.000 A 
ATOM      2  C   UNL     1      49.719   5.917  16.941  0.00  0.00    +0.000 A 
ATOM      3  C   UNL     1      49.354   6.616  15.778  0.00  0.00    +0.000 A 
ATOM      4  C   UNL     1      48.265   6.191  15.006  0.00  0.00    +0.000 A 
ATOM      5  C   UNL     1      47.559   5.053  15.413  0.00  0.00    +0.000 A 
ATOM      6  C   UNL     1      47.918   4.363  16.573  0.00  0.00    +0.000 A 
ENDROOT
BRANCH   1   8
ATOM      7  C   UNL     1      49.221   4.827  19.896  0.00  0.00    +0.000 C 
ATOM      8  C   UNL     1      49.439   4.025  18.605  0.00  0.00    +0.000 C 
BRANCH   8   9
ATOM      9  N   UNL     1      50.825   3.612  18.495  0.00  0.00    +0.000 N 
ATOM     10  C   UNL     1      51.255   2.636  17.626  0.00  0.00    +0.000 C 
ATOM     11  O   UNL     1      50.519   2.078  16.817  0.00  0.00    +0.000 OA
ATOM     12  H   UNL     1      51.525   3.980  19.135  0.00  0.00    +0.000 HD
BRANCH  10  13
ATOM     13  C   UNL     1      52.729   2.246  17.789  0.00  0.00    +0.000 C 
ATOM     14  C   UNL     1      52.951   0.748  17.708  0.00  0.00    +0.000 C 
ATOM     15  C   UNL     1      54.332   0.585  18.319  0.00  0.00    +0.000 C 
ATOM     16  C   UNL     1      54.446   1.731  19.319  0.00  0.00    +0.000 C 
ATOM     17  N   UNL     1      53.240   2.547  19.154  0.00  0.00    +0.000 NA
ATOM     18  H   UNL     1      53.469   3.540  19.220  0.00  0.00    +0.000 HD
ENDBRANCH  10  13
ENDBRANCH   8   9
ENDBRANCH   1   8
BRANCH   4  19
ATOM     19  C   UNL     1      47.870   6.897  13.735  0.00  0.00    +0.000 C 
BRANCH  19  20
ATOM     20  N   UNL     1      47.218   5.995  12.817  0.00  0.00    +0.000 N 
ATOM     21  C   UNL     1      46.303   6.449  11.901  0.00  0.00    +0.000 C 
ATOM     22  O   UNL     1      46.031   7.639  11.786  0.00  0.00    +0.000 OA
ATOM     23  H   UNL     1      47.237   5.008  13.052  0.00  0.00    +0.000 HD
BRANCH  21  24
ATOM     24  C   UNL     1      45.711   5.438  11.013  0.00  0.00    +0.000 A 
ATOM     25  C   UNL     1      45.851   5.564   9.636  0.00  0.00    +0.000 A 
ATOM     26  S   UNL     1      45.131   4.293   8.756  0.00  0.00    +0.000 S 
ATOM     27  C   UNL     1      44.560   3.557  10.180  0.00  0.00    +0.000 A 
ATOM     28  N   UNL     1      43.815   2.421  10.130  0.00  0.00    +0.000 NA
ATOM     29  C   UNL     1      43.424   1.986  11.280  0.00  0.00    +0.000 A 
ATOM     30  N   UNL     1      43.719   2.581  12.479  0.00  0.00    +0.000 N 
ATOM     31  C   UNL     1      44.497   3.710  12.582  0.00  0.00    +0.000 A 
ATOM     32  O   UNL     1      44.789   4.185  13.674  0.00  0.00    +0.000 OA
ATOM     33  C   UNL     1      44.942   4.253  11.313  0.00  0.00    +0.000 A 
ATOM     34  H   UNL     1      43.397   2.179  13.347  0.00  0.00    +0.000 HD
ENDBRANCH  21  24
ENDBRANCH  19  20
ENDBRANCH   4  19
TORSDOF 6
ENDMDL
MODEL 4
REMARK VINA RESULT:    -7.147      2.426      3.055
REMARK INTER + INTRA:         -10.573
REMARK INTER:                  -9.916
REMARK INTRA:                  -0.658
REMARK UNBOUND:                -0.920
REMARK  Name = 
REMARK  7 active torsions:
REMARK  status: ('A' for Active; 'I' for Inactive)
REMARK    1  A    between atoms: C_1  and  C_2
REMARK    2  A    between atoms: C_2  and  N_3
REMARK    3  A    between atoms: C_2  and  C_11
REMARK    4  A    between atoms: C_4  and  C_6
REMARK    5  A    between atoms: C_14  and  C_15
REMARK    6  A    between atoms: C_15  and  N_16
REMARK    7  A    between atoms: C_17  and  C_19
REMARK                            x       y       z     vdW  Elec       q    Type
REMARK                         _______ _______ _______ _____ _____    ______ ____
ROOT
ATOM      1  C   UNL     1      44.634   4.941  11.423  0.00  0.00    +0.000 A 
ATOM      2  C   UNL     1      45.945   4.754  11.895  0.00  0.00    +0.000 A 
ATOM      3  C   UNL     1      46.653   5.805  12.499  0.00  0.00    +0.000 A 
ATOM      4  C   UNL     1      46.058   7.063  12.660  0.00  0.00    +0.000 A 
ATOM      5  C   UNL     1      44.751   7.249  12.196  0.00  0.00    +0.000 A 
ATOM      6  C   UNL     1      44.045   6.201  11.602  0.00  0.00    +0.000 A 
ENDROOT
BRANCH   1   8
ATOM      7  C   UNL     1      43.391   2.730  11.756  0.00  0.00    +0.000 C 
ATOM      8  C   UNL     1      43.893   3.787  10.762  0.00  0.00    +0.000 C 
BRANCH   8   9
ATOM      9  N   UNL     1      44.732   3.172   9.751  0.00  0.00    +0.000 N 
ATOM     10  C   UNL     1      45.185   3.841   8.638  0.00  0.00    +0.000 C 
ATOM     11  O   UNL     1      44.983   5.035   8.436  0.00  0.00    +0.000 OA
ATOM     12  H   UNL     1      44.942   2.177   9.791  0.00  0.00    +0.000 HD
BRANCH  10  13
ATOM     13  C   UNL     1      45.920   2.957   7.622  0.00  0.00    +0.000 C 
ATOM     14  C   UNL     1      46.237   1.578   8.168  0.00  0.00    +0.000 C 
ATOM     15  C   UNL     1      47.303   1.080   7.206  0.00  0.00    +0.000 C 
ATOM     16  C   UNL     1      48.016   2.344   6.736  0.00  0.00    +0.000 C 
ATOM     17  N   UNL     1      47.280   3.474   7.312  0.00  0.00    +0.000 NA
ATOM     18  H   UNL     1      47.209   4.235   6.637  0.00  0.00    +0.000 HD
ENDBRANCH  10  13
ENDBRANCH   8   9
ENDBRANCH   1   8
BRANCH   4  19
ATOM     19  C   UNL     1      46.804   8.222  13.271  0.00  0.00    +0.000 C 
BRANCH  19  20
ATOM     20  N   UNL     1      48.103   7.814  13.745  0.00  0.00    +0.000 N 
ATOM     21  C   UNL     1      48.579   8.226  14.965  0.00  0.00    +0.000 C 
ATOM     22  O   UNL     1      47.910   8.917  15.725  0.00  0.00    +0.000 OA
ATOM     23  H   UNL     1      48.756   7.463  13.052  0.00  0.00    +0.000 HD
BRANCH  21  24
ATOM     24  C   UNL     1      49.914   7.740  15.344  0.00  0.00    +0.000 A 
ATOM     25  C   UNL     1      51.044   8.371  14.840  0.00  0.00    +0.000 A 
ATOM     26  S   UNL     1      52.508   7.701  15.403  0.00  0.00    +0.000 S 
ATOM     27  C   UNL     1      51.685   6.511  16.297  0.00  0.00    +0.000 A 
ATOM     28  N   UNL     1      52.367   5.568  17.000  0.00  0.00    +0.000 NA
ATOM     29  C   UNL     1      51.619   4.710  17.608  0.00  0.00    +0.000 A 
ATOM     30  N   UNL     1      50.248   4.715  17.585  0.00  0.00    +0.000 N 
ATOM     31  C   UNL     1      49.516   5.668  16.916  0.00  0.00    +0.000 A 
ATOM     32  O   UNL     1      48.291   5.677  16.961  0.00  0.00    +0.000 OA
ATOM     33  C   UNL     1      50.311   6.643  16.195  0.00  0.00    +0.000 A 
ATOM     34  H   UNL     1      49.721   4.025  18.098  0.00  0.00    +0.000 HD
ENDBRANCH  21  24
ENDBRANCH  19  20
ENDBRANCH   4  19
TORSDOF 6
ENDMDL
MODEL 5
REMARK VINA RESULT:    -7.060      1.711      2.154
REMARK INTER + INTRA:         -10.456
REMARK INTER:                 -10.231
REMARK INTRA:                  -0.225
REMARK UNBOUND:                -0.920
REMARK  Name = 
REMARK  7 active torsions:
REMARK  status: ('A' for Active; 'I' for Inactive)
REMARK    1  A    between atoms: C_1  and  C_2
REMARK    2  A    between atoms: C_2  and  N_3
REMARK    3  A    between atoms: C_2  and  C_11
REMARK    4  A    between atoms: C_4  and  C_6
REMARK    5  A    between atoms: C_14  and  C_15
REMARK    6  A    between atoms: C_15  and  N_16
REMARK    7  A    between atoms: C_17  and  C_19
REMARK                            x       y       z     vdW  Elec       q    Type
REMARK                         _______ _______ _______ _____ _____    ______ ____
ROOT
ATOM      1  C   UNL     1      45.372   5.472  11.980  0.00  0.00    +0.000 A 
ATOM      2  C   UNL     1      45.210   4.250  12.657  0.00  0.00    +0.000 A 
ATOM      3  C   UNL     1      46.019   3.920  13.757  0.00  0.00    +0.000 A 
ATOM      4  C   UNL     1      46.995   4.814  14.215  0.00  0.00    +0.000 A 
ATOM      5  C   UNL     1      47.152   6.034  13.547  0.00  0.00    +0.000 A 
ATOM      6  C   UNL     1      46.343   6.364  12.457  0.00  0.00    +0.000 A 
ENDROOT
BRANCH   1   8
ATOM      7  C   UNL     1      43.001   5.505  11.018  0.00  0.00    +0.000 C 
ATOM      8  C   UNL     1      44.489   5.800  10.784  0.00  0.00    +0.000 C 
BRANCH   8   9
ATOM      9  N   UNL     1      44.965   5.095   9.608  0.00  0.00    +0.000 N 
ATOM     10  C   UNL     1      44.582   3.813   9.290  0.00  0.00    +0.000 C 
ATOM     11  O   UNL     1      43.749   3.176   9.930  0.00  0.00    +0.000 OA
ATOM     12  H   UNL     1      45.682   5.507   9.016  0.00  0.00    +0.000 HD
BRANCH  10  13
ATOM     13  C   UNL     1      45.328   3.206   8.096  0.00  0.00    +0.000 C 
ATOM     14  C   UNL     1      46.004   1.891   8.435  0.00  0.00    +0.000 C 
ATOM     15  C   UNL     1      46.998   1.729   7.297  0.00  0.00    +0.000 C 
ATOM     16  C   UNL     1      47.352   3.155   6.890  0.00  0.00    +0.000 C 
ATOM     17  N   UNL     1      46.489   4.038   7.679  0.00  0.00    +0.000 NA
ATOM     18  H   UNL     1      46.161   4.819   7.110  0.00  0.00    +0.000 HD
ENDBRANCH  10  13
ENDBRANCH   8   9
ENDBRANCH   1   8
BRANCH   4  19
ATOM     19  C   UNL     1      47.902   4.476  15.370  0.00  0.00    +0.000 C 
BRANCH  19  20
ATOM     20  N   UNL     1      47.861   5.500  16.384  0.00  0.00    +0.000 N 
ATOM     21  C   UNL     1      49.008   5.966  16.974  0.00  0.00    +0.000 C 
ATOM     22  O   UNL     1      50.119   5.572  16.639  0.00  0.00    +0.000 OA
ATOM     23  H   UNL     1      46.969   5.656  16.843  0.00  0.00    +0.000 HD
BRANCH  21  24
ATOM     24  C   UNL     1      48.842   7.017  17.989  0.00  0.00    +0.000 A 
ATOM     25  C   UNL     1      49.034   6.712  19.331  0.00  0.00    +0.000 A 
ATOM     26  S   UNL     1      48.830   8.049  20.371  0.00  0.00    +0.000 S 
ATOM     27  C   UNL     1      48.426   9.070  19.071  0.00  0.00    +0.000 A 
ATOM     28  N   UNL     1      48.095  10.371  19.280  0.00  0.00    +0.000 NA
ATOM     29  C   UNL     1      47.783  11.022  18.210  0.00  0.00    +0.000 A 
ATOM     30  N   UNL     1      47.781  10.490  16.947  0.00  0.00    +0.000 N 
ATOM     31  C   UNL     1      48.142   9.190  16.682  0.00  0.00    +0.000 A 
ATOM     32  O   UNL     1      48.184   8.761  15.535  0.00  0.00    +0.000 OA
ATOM     33  C   UNL     1      48.478   8.407  17.856  0.00  0.00    +0.000 A 
ATOM     34  H   UNL     1      47.544  11.059  16.148  0.00  0.00    +0.000 HD
ENDBRANCH  21  24
ENDBRANCH  19  20
ENDBRANCH   4  19
TORSDOF 6
ENDMDL
MODEL 6
REMARK VINA RESULT:    -6.958      3.645      5.085
REMARK INTER + INTRA:         -10.318
REMARK INTER:                  -9.651
REMARK INTRA:                  -0.667
REMARK UNBOUND:                -0.920
REMARK  Name = 
REMARK  7 active torsions:
REMARK  status: ('A' for Active; 'I' for Inactive)
REMARK    1  A    between atoms: C_1  and  C_2
REMARK    2  A    between atoms: C_2  and  N_3
REMARK    3  A    between atoms: C_2  and  C_11
REMARK    4  A    between atoms: C_4  and  C_6
REMARK    5  A    between atoms: C_14  and  C_15
REMARK    6  A    between atoms: C_15  and  N_16
REMARK    7  A    between atoms: C_17  and  C_19
REMARK                            x       y       z     vdW  Elec       q    Type
REMARK                         _______ _______ _______ _____ _____    ______ ____
ROOT
ATOM      1  C   UNL     1      45.362   4.699  11.696  0.00  0.00    +0.000 A 
ATOM      2  C   UNL     1      45.868   5.987  11.444  0.00  0.00    +0.000 A 
ATOM      3  C   UNL     1      46.812   6.573  12.303  0.00  0.00    +0.000 A 
ATOM      4  C   UNL     1      47.284   5.877  13.423  0.00  0.00    +0.000 A 
ATOM      5  C   UNL     1      46.786   4.593  13.670  0.00  0.00    +0.000 A 
ATOM      6  C   UNL     1      45.853   4.007  12.812  0.00  0.00    +0.000 A 
ENDROOT
BRANCH   1   8
ATOM      7  C   UNL     1      43.302   3.200  11.463  0.00  0.00    +0.000 C 
ATOM      8  C   UNL     1      44.331   4.092  10.755  0.00  0.00    +0.000 C 
BRANCH   8   9
ATOM      9  N   UNL     1      44.997   3.354   9.699  0.00  0.00    +0.000 N 
ATOM     10  C   UNL     1      45.512   3.949   8.570  0.00  0.00    +0.000 C 
ATOM     11  O   UNL     1      45.518   5.164   8.388  0.00  0.00    +0.000 OA
ATOM     12  H   UNL     1      45.027   2.337   9.720  0.00  0.00    +0.000 HD
BRANCH  10  13
ATOM     13  C   UNL     1      46.028   2.965   7.513  0.00  0.00    +0.000 C 
ATOM     14  C   UNL     1      46.314   1.590   8.083  0.00  0.00    +0.000 C 
ATOM     15  C   UNL     1      47.193   0.966   7.012  0.00  0.00    +0.000 C 
ATOM     16  C   UNL     1      47.926   2.145   6.382  0.00  0.00    +0.000 C 
ATOM     17  N   UNL     1      47.365   3.355   6.992  0.00  0.00    +0.000 NA
ATOM     18  H   UNL     1      47.257   4.090   6.292  0.00  0.00    +0.000 HD
ENDBRANCH  10  13
ENDBRANCH   8   9
ENDBRANCH   1   8
BRANCH   4  19
ATOM     19  C   UNL     1      48.269   6.491  14.383  0.00  0.00    +0.000 C 
BRANCH  19  20
ATOM     20  N   UNL     1      49.447   6.958  13.694  0.00  0.00    +0.000 N 
ATOM     21  C   UNL     1      50.075   8.121  14.063  0.00  0.00    +0.000 C 
ATOM     22  O   UNL     1      49.696   8.791  15.017  0.00  0.00    +0.000 OA
ATOM     23  H   UNL     1      49.626   6.569  12.774  0.00  0.00    +0.000 HD
BRANCH  21  24
ATOM     24  C   UNL     1      51.272   8.491  13.293  0.00  0.00    +0.000 A 
ATOM     25  C   UNL     1      51.131   9.009  12.011  0.00  0.00    +0.000 A 
ATOM     26  S   UNL     1      52.613   9.413  11.271  0.00  0.00    +0.000 S 
ATOM     27  C   UNL     1      53.499   8.860  12.615  0.00  0.00    +0.000 A 
ATOM     28  N   UNL     1      54.858   8.888  12.616  0.00  0.00    +0.000 NA
ATOM     29  C   UNL     1      55.401   8.412  13.686  0.00  0.00    +0.000 A 
ATOM     30  N   UNL     1      54.706   7.920  14.760  0.00  0.00    +0.000 N 
ATOM     31  C   UNL     1      53.333   7.904  14.818  0.00  0.00    +0.000 A 
ATOM     32  O   UNL     1      52.742   7.508  15.817  0.00  0.00    +0.000 OA
ATOM     33  C   UNL     1      52.673   8.405  13.628  0.00  0.00    +0.000 A 
ATOM     34  H   UNL     1      55.192   7.579  15.576  0.00  0.00    +0.000 HD
ENDBRANCH  21  24
ENDBRANCH  19  20
ENDBRANCH   4  19
TORSDOF 6
ENDMDL
MODEL 7
REMARK VINA RESULT:    -6.886      4.808      5.789
REMARK INTER + INTRA:         -10.221
REMARK INTER:                  -9.309
REMARK INTRA:                  -0.912
REMARK UNBOUND:                -0.920
REMARK  Name = 
REMARK  7 active torsions:
REMARK  status: ('A' for Active; 'I' for Inactive)
REMARK    1  A    between atoms: C_1  and  C_2
REMARK    2  A    between atoms: C_2  and  N_3
REMARK    3  A    between atoms: C_2  and  C_11
REMARK    4  A    between atoms: C_4  and  C_6
REMARK    5  A    between atoms: C_14  and  C_15
REMARK    6  A    between atoms: C_15  and  N_16
REMARK    7  A    between atoms: C_17  and  C_19
REMARK                            x       y       z     vdW  Elec       q    Type
REMARK                         _______ _______ _______ _____ _____    ______ ____
ROOT
ATOM      1  C   UNL     1      44.181   4.823  11.164  0.00  0.00    +0.000 A 
ATOM      2  C   UNL     1      45.520   5.069  11.515  0.00  0.00    +0.000 A 
ATOM      3  C   UNL     1      45.933   6.339  11.948  0.00  0.00    +0.000 A 
ATOM      4  C   UNL     1      45.011   7.388  12.055  0.00  0.00    +0.000 A 
ATOM      5  C   UNL     1      43.677   7.144  11.713  0.00  0.00    +0.000 A 
ATOM      6  C   UNL     1      43.265   5.878  11.290  0.00  0.00    +0.000 A 
ENDROOT
BRANCH   1   8
ATOM      7  C   UNL     1      43.615   2.417  11.824  0.00  0.00    +0.000 C 
ATOM      8  C   UNL     1      43.762   3.439  10.688  0.00  0.00    +0.000 C 
BRANCH   8   9
ATOM      9  N   UNL     1      44.695   2.954   9.690  0.00  0.00    +0.000 N 
ATOM     10  C   UNL     1      44.864   3.549   8.461  0.00  0.00    +0.000 C 
ATOM     11  O   UNL     1      44.294   4.585   8.126  0.00  0.00    +0.000 OA
ATOM     12  H   UNL     1      45.203   2.084   9.838  0.00  0.00    +0.000 HD
BRANCH  10  13
ATOM     13  C   UNL     1      45.781   2.779   7.503  0.00  0.00    +0.000 C 
ATOM     14  C   UNL     1      46.318   1.497   8.110  0.00  0.00    +0.000 C 
ATOM     15  C   UNL     1      47.490   1.168   7.201  0.00  0.00    +0.000 C 
ATOM     16  C   UNL     1      47.984   2.523   6.705  0.00  0.00    +0.000 C 
ATOM     17  N   UNL     1      47.038   3.520   7.215  0.00  0.00    +0.000 NA
ATOM     18  H   UNL     1      46.858   4.235   6.509  0.00  0.00    +0.000 HD
ENDBRANCH  10  13
ENDBRANCH   8   9
ENDBRANCH   1   8
BRANCH   4  19
ATOM     19  C   UNL     1      45.429   8.772  12.481  0.00  0.00    +0.000 C 
BRANCH  19  20
ATOM     20  N   UNL     1      46.694   9.140  11.893  0.00  0.00    +0.000 N 
ATOM     21  C   UNL     1      47.754   9.532  12.671  0.00  0.00    +0.000 C 
ATOM     22  O   UNL     1      47.694   9.546  13.895  0.00  0.00    +0.000 OA
ATOM     23  H   UNL     1      46.691   9.371  10.905  0.00  0.00    +0.000 HD
BRANCH  21  24
ATOM     24  C   UNL     1      48.995   9.875  11.960  0.00  0.00    +0.000 A 
ATOM     25  C   UNL     1      49.238  11.195  11.600  0.00  0.00    +0.000 A 
ATOM     26  S   UNL     1      50.733  11.423  10.811  0.00  0.00    +0.000 S 
ATOM     27  C   UNL     1      51.083   9.759  10.873  0.00  0.00    +0.000 A 
ATOM     28  N   UNL     1      52.224   9.263  10.326  0.00  0.00    +0.000 NA
ATOM     29  C   UNL     1      52.349   7.982  10.419  0.00  0.00    +0.000 A 
ATOM     30  N   UNL     1      51.440   7.152  11.020  0.00  0.00    +0.000 N 
ATOM     31  C   UNL     1      50.289   7.610  11.617  0.00  0.00    +0.000 A 
ATOM     32  O   UNL     1      49.523   6.847  12.195  0.00  0.00    +0.000 OA
ATOM     33  C   UNL     1      50.089   9.044  11.518  0.00  0.00    +0.000 A 
ATOM     34  H   UNL     1      51.606   6.158  11.076  0.00  0.00    +0.000 HD
ENDBRANCH  21  24
ENDBRANCH  19  20
ENDBRANCH   4  19
TORSDOF 6
ENDMDL
MODEL 8
REMARK VINA RESULT:    -6.712      3.706      5.280
REMARK INTER + INTRA:          -9.986
REMARK INTER:                  -9.881
REMARK INTRA:                  -0.105
REMARK UNBOUND:                -0.920
REMARK  Name = 
REMARK  7 active torsions:
REMARK  status: ('A' for Active; 'I' for Inactive)
REMARK    1  A    between atoms: C_1  and  C_2
REMARK    2  A    between atoms: C_2  and  N_3
REMARK    3  A    between atoms: C_2  and  C_11
REMARK    4  A    between atoms: C_4  and  C_6
REMARK    5  A    between atoms: C_14  and  C_15
REMARK    6  A    between atoms: C_15  and  N_16
REMARK    7  A    between atoms: C_17  and  C_19
REMARK                            x       y       z     vdW  Elec       q    Type
REMARK                         _______ _______ _______ _____ _____    ______ ____
ROOT
ATOM      1  C   UNL     1      47.065   6.160  13.397  0.00  0.00    +0.000 A 
ATOM      2  C   UNL     1      48.052   6.720  14.227  0.00  0.00    +0.000 A 
ATOM      3  C   UNL     1      48.442   6.086  15.417  0.00  0.00    +0.000 A 
ATOM      4  C   UNL     1      47.866   4.866  15.794  0.00  0.00    +0.000 A 
ATOM      5  C   UNL     1      46.889   4.303  14.966  0.00  0.00    +0.000 A 
ATOM      6  C   UNL     1      46.507   4.931  13.778  0.00  0.00    +0.000 A 
ENDROOT
BRANCH   1   8
ATOM      7  C   UNL     1      45.712   8.064  12.353  0.00  0.00    +0.000 C 
ATOM      8  C   UNL     1      46.653   6.874  12.117  0.00  0.00    +0.000 C 
BRANCH   8   9
ATOM      9  N   UNL     1      46.053   5.931  11.193  0.00  0.00    +0.000 N 
ATOM     10  C   UNL     1      44.694   5.789  11.035  0.00  0.00    +0.000 C 
ATOM     11  O   UNL     1      43.868   6.496  11.606  0.00  0.00    +0.000 OA
ATOM     12  H   UNL     1      46.634   5.267  10.685  0.00  0.00    +0.000 HD
BRANCH  10  13
ATOM     13  C   UNL     1      44.279   4.625  10.127  0.00  0.00    +0.000 C 
ATOM     14  C   UNL     1      44.860   3.297  10.575  0.00  0.00    +0.000 C 
ATOM     15  C   UNL     1      44.696   2.432   9.337  0.00  0.00    +0.000 C 
ATOM     16  C   UNL     1      44.780   3.411   8.170  0.00  0.00    +0.000 C 
ATOM     17  N   UNL     1      44.849   4.752   8.759  0.00  0.00    +0.000 NA
ATOM     18  H   UNL     1      44.288   5.409   8.216  0.00  0.00    +0.000 HD
ENDBRANCH  10  13
ENDBRANCH   8   9
ENDBRANCH   1   8
BRANCH   4  19
ATOM     19  C   UNL     1      48.237   4.177  17.082  0.00  0.00    +0.000 C 
BRANCH  19  20
ATOM     20  N   UNL     1      49.651   3.895  17.135  0.00  0.00    +0.000 N 
ATOM     21  C   UNL     1      50.386   4.144  18.267  0.00  0.00    +0.000 C 
ATOM     22  O   UNL     1      49.873   4.572  19.295  0.00  0.00    +0.000 OA
ATOM     23  H   UNL     1      50.130   3.782  16.248  0.00  0.00    +0.000 HD
BRANCH  21  24
ATOM     24  C   UNL     1      51.816   3.808  18.205  0.00  0.00    +0.000 A 
ATOM     25  C   UNL     1      52.763   4.786  18.481  0.00  0.00    +0.000 A 
ATOM     26  S   UNL     1      54.371   4.223  18.394  0.00  0.00    +0.000 S 
ATOM     27  C   UNL     1      53.860   2.667  17.931  0.00  0.00    +0.000 A 
ATOM     28  N   UNL     1      54.761   1.687  17.657  0.00  0.00    +0.000 NA
ATOM     29  C   UNL     1      54.237   0.566  17.290  0.00  0.00    +0.000 A 
ATOM     30  N   UNL     1      52.891   0.333  17.184  0.00  0.00    +0.000 N 
ATOM     31  C   UNL     1      51.942   1.281  17.484  0.00  0.00    +0.000 A 
ATOM     32  O   UNL     1      50.744   1.023  17.432  0.00  0.00    +0.000 OA
ATOM     33  C   UNL     1      52.480   2.569  17.877  0.00  0.00    +0.000 A 
ATOM     34  H   UNL     1      52.544  -0.574  16.909  0.00  0.00    +0.000 HD
ENDBRANCH  21  24
ENDBRANCH  19  20
ENDBRANCH   4  19
TORSDOF 6
ENDMDL
MODEL 9
REMARK VINA RESULT:    -6.021      4.250      9.112
REMARK INTER + INTRA:          -9.053
REMARK INTER:                  -8.103
REMARK INTRA:                  -0.949
REMARK UNBOUND:                -0.920
REMARK  Name = 
REMARK  7 active torsions:
REMARK  status: ('A' for Active; 'I' for Inactive)
REMARK    1  A    between atoms: C_1  and  C_2
REMARK    2  A    between atoms: C_2  and  N_3
REMARK    3  A    between atoms: C_2  and  C_11
REMARK    4  A    between atoms: C_4  and  C_6
REMARK    5  A    between atoms: C_14  and  C_15
REMARK    6  A    between atoms: C_15  and  N_16
REMARK    7  A    between atoms: C_17  and  C_19
REMARK                            x       y       z     vdW  Elec       q    Type
REMARK                         _______ _______ _______ _____ _____    ______ ____
ROOT
ATOM      1  C   UNL     1      51.075   5.305  17.770  0.00  0.00    +0.000 A 
ATOM      2  C   UNL     1      52.072   6.011  17.074  0.00  0.00    +0.000 A 
ATOM      3  C   UNL     1      51.748   6.834  15.983  0.00  0.00    +0.000 A 
ATOM      4  C   UNL     1      50.415   6.983  15.577  0.00  0.00    +0.000 A 
ATOM      5  C   UNL     1      49.421   6.288  16.273  0.00  0.00    +0.000 A 
ATOM      6  C   UNL     1      49.744   5.475  17.362  0.00  0.00    +0.000 A 
ENDROOT
BRANCH   1   8
ATOM      7  C   UNL     1      51.728   5.183  20.241  0.00  0.00    +0.000 C 
ATOM      8  C   UNL     1      51.455   4.411  18.942  0.00  0.00    +0.000 C 
BRANCH   8   9
ATOM      9  N   UNL     1      52.600   3.593  18.591  0.00  0.00    +0.000 N 
ATOM     10  C   UNL     1      52.492   2.369  17.973  0.00  0.00    +0.000 C 
ATOM     11  O   UNL     1      51.425   1.891  17.598  0.00  0.00    +0.000 OA
ATOM     12  H   UNL     1      53.538   3.867  18.878  0.00  0.00    +0.000 HD
BRANCH  10  13
ATOM     13  C   UNL     1      53.816   1.605  17.841  0.00  0.00    +0.000 C 
ATOM     14  C   UNL     1      53.712   0.410  16.914  0.00  0.00    +0.000 C 
ATOM     15  C   UNL     1      54.943  -0.401  17.283  0.00  0.00    +0.000 C 
ATOM     16  C   UNL     1      55.187  -0.081  18.754  0.00  0.00    +0.000 C 
ATOM     17  N   UNL     1      54.216   0.956  19.118  0.00  0.00    +0.000 NA
ATOM     18  H   UNL     1      54.647   1.648  19.732  0.00  0.00    +0.000 HD
ENDBRANCH  10  13
ENDBRANCH   8   9
ENDBRANCH   1   8
BRANCH   4  19
ATOM     19  C   UNL     1      50.038   7.831  14.389  0.00  0.00    +0.000 C 
BRANCH  19  20
ATOM     20  N   UNL     1      48.940   7.247  13.659  0.00  0.00    +0.000 N 
ATOM     21  C   UNL     1      47.666   7.744  13.769  0.00  0.00    +0.000 C 
ATOM     22  O   UNL     1      47.408   8.728  14.452  0.00  0.00    +0.000 OA
ATOM     23  H   UNL     1      49.077   6.309  13.296  0.00  0.00    +0.000 HD
BRANCH  21  24
ATOM     24  C   UNL     1      46.630   7.072  12.970  0.00  0.00    +0.000 A 
ATOM     25  C   UNL     1      45.797   7.825  12.152  0.00  0.00    +0.000 A 
ATOM     26  S   UNL     1      44.674   6.888  11.274  0.00  0.00    +0.000 S 
ATOM     27  C   UNL     1      45.225   5.449  11.997  0.00  0.00    +0.000 A 
ATOM     28  N   UNL     1      44.647   4.254  11.705  0.00  0.00    +0.000 NA
ATOM     29  C   UNL     1      45.143   3.250  12.345  0.00  0.00    +0.000 A 
ATOM     30  N   UNL     1      46.174   3.331  13.245  0.00  0.00    +0.000 N 
ATOM     31  C   UNL     1      46.812   4.511  13.547  0.00  0.00    +0.000 A 
ATOM     32  O   UNL     1      47.767   4.541  14.314  0.00  0.00    +0.000 OA
ATOM     33  C   UNL     1      46.274   5.677  12.871  0.00  0.00    +0.000 A 
ATOM     34  H   UNL     1      46.529   2.503  13.700  0.00  0.00    +0.000 HD
ENDBRANCH  21  24
ENDBRANCH  19  20
ENDBRANCH   4  19
TORSDOF 6
ENDMDL
