MODEL 1
REMARK VINA RESULT:    -8.241      0.000      0.000
REMARK INTER + INTRA:         -11.105
REMARK INTER:                 -10.650
REMARK INTRA:                  -0.455
REMARK UNBOUND:                -0.455
REMARK  Name = 
REMARK  6 active torsions:
REMARK  status: ('A' for Active; 'I' for Inactive)
REMARK    1  A    between atoms: C_1  and  C_2
REMARK    2  A    between atoms: C_2  and  N_3
REMARK    3  A    between atoms: C_2  and  C_16
REMARK    4  A    between atoms: C_4  and  C_6
REMARK    5  A    between atoms: C_19  and  C_20
REMARK    6  A    between atoms: C_20  and  N_21
REMARK                            x       y       z     vdW  Elec       q    Type
REMARK                         _______ _______ _______ _____ _____    ______ ____
ROOT
ATOM      1  C   UNL     1      48.527   7.506  12.138  0.00  0.00    +0.000 C 
ATOM      2  C   UNL     1      47.403   6.908  12.988  0.00  0.00    +0.000 C 
ENDROOT
BRANCH   2   3
ATOM      3  C   UNL     1      46.495   5.977  12.213  0.00  0.00    +0.000 A 
ATOM      4  C   UNL     1      46.110   4.744  12.753  0.00  0.00    +0.000 A 
ATOM      5  C   UNL     1      45.315   3.871  12.009  0.00  0.00    +0.000 A 
ATOM      6  C   UNL     1      44.934   4.240  10.723  0.00  0.00    +0.000 A 
ATOM      7  N   UNL     1      45.260   5.442  10.188  0.00  0.00    +0.000 NA
ATOM      8  C   UNL     1      46.036   6.266  10.931  0.00  0.00    +0.000 A 
BRANCH   6   9
ATOM      9  C   UNL     1      44.192   3.270   9.826  0.00  0.00    +0.000 C 
BRANCH   9  10
ATOM     10  N   UNL     1      44.966   2.052   9.578  0.00  0.00    +0.000 N 
ATOM     11  C   UNL     1      45.715   2.143   8.385  0.00  0.00    +0.000 A 
ATOM     12  C   UNL     1      46.506   1.072   8.011  0.00  0.00    +0.000 A 
ATOM     13  C   UNL     1      47.230   1.215   6.848  0.00  0.00    +0.000 A 
ATOM     14  N   UNL     1      47.195   2.320   6.079  0.00  0.00    +0.000 NA
ATOM     15  C   UNL     1      46.407   3.301   6.532  0.00  0.00    +0.000 A 
ATOM     16  N   UNL     1      45.676   3.270   7.653  0.00  0.00    +0.000 NA
ATOM     17  H   UNL     1      44.340   1.248   9.517  0.00  0.00    +0.000 HD
ENDBRANCH   9  10
ENDBRANCH   6   9
ENDBRANCH   2   3
BRANCH   2  18
ATOM     18  N   UNL     1      47.932   6.230  14.164  0.00  0.00    +0.000 N 
ATOM     19  C   UNL     1      48.460   6.920  15.229  0.00  0.00    +0.000 C 
ATOM     20  O   UNL     1      48.529   8.150  15.215  0.00  0.00    +0.000 OA
ATOM     21  H   UNL     1      47.937   5.214  14.165  0.00  0.00    +0.000 HD
BRANCH  19  22
ATOM     22  C   UNL     1      48.916   6.154  16.400  0.00  0.00    +0.000 A 
ATOM     23  C   UNL     1      50.017   6.613  17.119  0.00  0.00    +0.000 A 
ATOM     24  S   UNL     1      50.417   5.651  18.467  0.00  0.00    +0.000 S 
ATOM     25  C   UNL     1      49.149   4.568  18.137  0.00  0.00    +0.000 A 
ATOM     26  N   UNL     1      48.940   3.485  18.929  0.00  0.00    +0.000 NA
ATOM     27  C   UNL     1      47.956   2.734  18.566  0.00  0.00    +0.000 A 
ATOM     28  N   UNL     1      47.156   2.977  17.479  0.00  0.00    +0.000 N 
ATOM     29  C   UNL     1      47.328   4.060  16.647  0.00  0.00    +0.000 A 
ATOM     30  O   UNL     1      46.605   4.233  15.672  0.00  0.00    +0.000 OA
ATOM     31  C   UNL     1      48.426   4.937  17.012  0.00  0.00    +0.000 A 
ATOM     32  H   UNL     1      46.406   2.345  17.241  0.00  0.00    +0.000 HD
ENDBRANCH  19  22
ENDBRANCH   2  18
TORSDOF 5
ENDMDL
MODEL 2
REMARK VINA RESULT:    -7.840      2.769      3.824
REMARK INTER + INTRA:         -10.586
REMARK INTER:                  -9.830
REMARK INTRA:                  -0.756
REMARK UNBOUND:                -0.455
REMARK  Name = 
REMARK  6 active torsions:
REMARK  status: ('A' for Active; 'I' for Inactive)
REMARK    1  A    between atoms: C_1  and  C_2
REMARK    2  A    between atoms: C_2  and  N_3
REMARK    3  A    between atoms: C_2  and  C_16
REMARK    4  A    between atoms: C_4  and  C_6
REMARK    5  A    between atoms: C_19  and  C_20
REMARK    6  A    between atoms: C_20  and  N_21
REMARK                            x       y       z     vdW  Elec       q    Type
REMARK                         _______ _______ _______ _____ _____    ______ ____
ROOT
ATOM      1  C   UNL     1      47.114   4.122  15.774  0.00  0.00    +0.000 C 
ATOM      2  C   UNL     1      47.542   4.947  14.556  0.00  0.00    +0.000 C 
ENDROOT
BRANCH   2   3
ATOM      3  C   UNL     1      46.639   4.755  13.355  0.00  0.00    +0.000 A 
ATOM      4  C   UNL     1      45.976   3.540  13.150  0.00  0.00    +0.000 A 
ATOM      5  C   UNL     1      45.187   3.356  12.014  0.00  0.00    +0.000 A 
ATOM      6  C   UNL     1      45.092   4.389  11.087  0.00  0.00    +0.000 A 
ATOM      7  N   UNL     1      45.692   5.590  11.278  0.00  0.00    +0.000 NA
ATOM      8  C   UNL     1      46.455   5.738  12.387  0.00  0.00    +0.000 A 
BRANCH   6   9
ATOM      9  C   UNL     1      44.365   4.188   9.774  0.00  0.00    +0.000 C 
BRANCH   9  10
ATOM     10  N   UNL     1      45.196   4.554   8.625  0.00  0.00    +0.000 N 
ATOM     11  C   UNL     1      45.848   3.431   8.072  0.00  0.00    +0.000 A 
ATOM     12  C   UNL     1      46.668   3.610   6.974  0.00  0.00    +0.000 A 
ATOM     13  C   UNL     1      47.269   2.482   6.460  0.00  0.00    +0.000 A 
ATOM     14  N   UNL     1      47.101   1.249   6.973  0.00  0.00    +0.000 NA
ATOM     15  C   UNL     1      46.282   1.181   8.028  0.00  0.00    +0.000 A 
ATOM     16  N   UNL     1      45.638   2.210   8.593  0.00  0.00    +0.000 NA
ATOM     17  H   UNL     1      45.897   5.240   8.907  0.00  0.00    +0.000 HD
ENDBRANCH   9  10
ENDBRANCH   6   9
ENDBRANCH   2   3
BRANCH   2  18
ATOM     18  N   UNL     1      47.648   6.362  14.886  0.00  0.00    +0.000 N 
ATOM     19  C   UNL     1      48.784   6.900  15.441  0.00  0.00    +0.000 C 
ATOM     20  O   UNL     1      49.754   6.191  15.707  0.00  0.00    +0.000 OA
ATOM     21  H   UNL     1      46.833   6.948  14.728  0.00  0.00    +0.000 HD
BRANCH  19  22
ATOM     22  C   UNL     1      48.821   8.351  15.685  0.00  0.00    +0.000 A 
ATOM     23  C   UNL     1      49.293   9.192  14.680  0.00  0.00    +0.000 A 
ATOM     24  S   UNL     1      49.250  10.846  15.081  0.00  0.00    +0.000 S 
ATOM     25  C   UNL     1      48.617  10.510  16.623  0.00  0.00    +0.000 A 
ATOM     26  N   UNL     1      48.353  11.516  17.496  0.00  0.00    +0.000 NA
ATOM     27  C   UNL     1      47.888  11.130  18.636  0.00  0.00    +0.000 A 
ATOM     28  N   UNL     1      47.659   9.822  18.978  0.00  0.00    +0.000 N 
ATOM     29  C   UNL     1      47.911   8.769  18.128  0.00  0.00    +0.000 A 
ATOM     30  O   UNL     1      47.713   7.610  18.475  0.00  0.00    +0.000 OA
ATOM     31  C   UNL     1      48.438   9.151  16.829  0.00  0.00    +0.000 A 
ATOM     32  H   UNL     1      47.303   9.583  19.891  0.00  0.00    +0.000 HD
ENDBRANCH  19  22
ENDBRANCH   2  18
TORSDOF 5
ENDMDL
MODEL 3
REMARK VINA RESULT:    -7.632      2.442      4.483
REMARK INTER + INTRA:         -10.319
REMARK INTER:                  -9.441
REMARK INTRA:                  -0.878
REMARK UNBOUND:                -0.455
REMARK  Name = 
REMARK  6 active torsions:
REMARK  status: ('A' for Active; 'I' for Inactive)
REMARK    1  A    between atoms: C_1  and  C_2
REMARK    2  A    between atoms: C_2  and  N_3
REMARK    3  A    between atoms: C_2  and  C_16
REMARK    4  A    between atoms: C_4  and  C_6
REMARK    5  A    between atoms: C_19  and  C_20
REMARK    6  A    between atoms: C_20  and  N_21
REMARK                            x       y       z     vdW  Elec       q    Type
REMARK                         _______ _______ _______ _____ _____    ______ ____
ROOT
ATOM      1  C   UNL     1      46.776   4.627  15.705  0.00  0.00    +0.000 C 
ATOM      2  C   UNL     1      47.380   5.038  14.358  0.00  0.00    +0.000 C 
ENDROOT
BRANCH   2   3
ATOM      3  C   UNL     1      46.468   4.756  13.182  0.00  0.00    +0.000 A 
ATOM      4  C   UNL     1      45.872   3.499  13.029  0.00  0.00    +0.000 A 
ATOM      5  C   UNL     1      45.075   3.233  11.915  0.00  0.00    +0.000 A 
ATOM      6  C   UNL     1      44.905   4.229  10.957  0.00  0.00    +0.000 A 
ATOM      7  N   UNL     1      45.439   5.467  11.098  0.00  0.00    +0.000 NA
ATOM      8  C   UNL     1      46.211   5.694  12.186  0.00  0.00    +0.000 A 
BRANCH   6   9
ATOM      9  C   UNL     1      44.168   3.943   9.665  0.00  0.00    +0.000 C 
BRANCH   9  10
ATOM     10  N   UNL     1      44.938   4.358   8.491  0.00  0.00    +0.000 N 
ATOM     11  C   UNL     1      45.718   3.300   7.976  0.00  0.00    +0.000 A 
ATOM     12  C   UNL     1      46.501   3.530   6.861  0.00  0.00    +0.000 A 
ATOM     13  C   UNL     1      47.231   2.463   6.387  0.00  0.00    +0.000 A 
ATOM     14  N   UNL     1      47.220   1.242   6.954  0.00  0.00    +0.000 NA
ATOM     15  C   UNL     1      46.424   1.120   8.022  0.00  0.00    +0.000 A 
ATOM     16  N   UNL     1      45.664   2.086   8.552  0.00  0.00    +0.000 NA
ATOM     17  H   UNL     1      45.552   5.136   8.735  0.00  0.00    +0.000 HD
ENDBRANCH   9  10
ENDBRANCH   6   9
ENDBRANCH   2   3
BRANCH   2  18
ATOM     18  N   UNL     1      47.777   6.440  14.363  0.00  0.00    +0.000 N 
ATOM     19  C   UNL     1      48.889   6.881  15.037  0.00  0.00    +0.000 C 
ATOM     20  O   UNL     1      49.583   6.103  15.693  0.00  0.00    +0.000 OA
ATOM     21  H   UNL     1      47.181   7.104  13.877  0.00  0.00    +0.000 HD
BRANCH  19  22
ATOM     22  C   UNL     1      49.247   8.306  14.936  0.00  0.00    +0.000 A 
ATOM     23  C   UNL     1      49.481   9.027  16.104  0.00  0.00    +0.000 A 
ATOM     24  S   UNL     1      49.917  10.652  15.842  0.00  0.00    +0.000 S 
ATOM     25  C   UNL     1      49.793  10.469  14.156  0.00  0.00    +0.000 A 
ATOM     26  N   UNL     1      50.035  11.516  13.327  0.00  0.00    +0.000 NA
ATOM     27  C   UNL     1      49.895  11.252  12.072  0.00  0.00    +0.000 A 
ATOM     28  N   UNL     1      49.538  10.026  11.572  0.00  0.00    +0.000 N 
ATOM     29  C   UNL     1      49.283   8.936  12.372  0.00  0.00    +0.000 A 
ATOM     30  O   UNL     1      48.946   7.859  11.891  0.00  0.00    +0.000 OA
ATOM     31  C   UNL     1      49.425   9.181  13.797  0.00  0.00    +0.000 A 
ATOM     32  H   UNL     1      49.435   9.885  10.579  0.00  0.00    +0.000 HD
ENDBRANCH  19  22
ENDBRANCH   2  18
TORSDOF 5
ENDMDL
MODEL 4
REMARK VINA RESULT:    -7.597      1.654      2.348
REMARK INTER + INTRA:         -10.273
REMARK INTER:                  -9.601
REMARK INTRA:                  -0.672
REMARK UNBOUND:                -0.455
REMARK  Name = 
REMARK  6 active torsions:
REMARK  status: ('A' for Active; 'I' for Inactive)
REMARK    1  A    between atoms: C_1  and  C_2
REMARK    2  A    between atoms: C_2  and  N_3
REMARK    3  A    between atoms: C_2  and  C_16
REMARK    4  A    between atoms: C_4  and  C_6
REMARK    5  A    between atoms: C_19  and  C_20
REMARK    6  A    between atoms: C_20  and  N_21
REMARK                            x       y       z     vdW  Elec       q    Type
REMARK                         _______ _______ _______ _____ _____    ______ ____
ROOT
ATOM      1  C   UNL     1      48.458   7.866  12.858  0.00  0.00    +0.000 C 
ATOM      2  C   UNL     1      47.419   7.053  13.636  0.00  0.00    +0.000 C 
ENDROOT
BRANCH   2   3
ATOM      3  C   UNL     1      46.480   6.269  12.744  0.00  0.00    +0.000 A 
ATOM      4  C   UNL     1      46.177   4.933  13.028  0.00  0.00    +0.000 A 
ATOM      5  C   UNL     1      45.351   4.204  12.171  0.00  0.00    +0.000 A 
ATOM      6  C   UNL     1      44.857   4.822  11.027  0.00  0.00    +0.000 A 
ATOM      7  N   UNL     1      45.103   6.126  10.746  0.00  0.00    +0.000 NA
ATOM      8  C   UNL     1      45.911   6.806  11.593  0.00  0.00    +0.000 A 
BRANCH   6   9
ATOM      9  C   UNL     1      44.075   4.035   9.997  0.00  0.00    +0.000 C 
BRANCH   9  10
ATOM     10  N   UNL     1      44.621   2.690   9.804  0.00  0.00    +0.000 N 
ATOM     11  C   UNL     1      45.488   2.632   8.691  0.00  0.00    +0.000 A 
ATOM     12  C   UNL     1      46.091   1.428   8.378  0.00  0.00    +0.000 A 
ATOM     13  C   UNL     1      46.940   1.426   7.293  0.00  0.00    +0.000 A 
ATOM     14  N   UNL     1      47.192   2.514   6.542  0.00  0.00    +0.000 NA
ATOM     15  C   UNL     1      46.567   3.629   6.933  0.00  0.00    +0.000 A 
ATOM     16  N   UNL     1      45.737   3.743   7.978  0.00  0.00    +0.000 NA
ATOM     17  H   UNL     1      43.862   2.022   9.670  0.00  0.00    +0.000 HD
ENDBRANCH   9  10
ENDBRANCH   6   9
ENDBRANCH   2   3
BRANCH   2  18
ATOM     18  N   UNL     1      48.056   6.165  14.600  0.00  0.00    +0.000 N 
ATOM     19  C   UNL     1      48.589   6.628  15.779  0.00  0.00    +0.000 C 
ATOM     20  O   UNL     1      48.571   7.828  16.053  0.00  0.00    +0.000 OA
ATOM     21  H   UNL     1      48.132   5.181  14.360  0.00  0.00    +0.000 HD
BRANCH  19  22
ATOM     22  C   UNL     1      49.159   5.649  16.718  0.00  0.00    +0.000 A 
ATOM     23  C   UNL     1      48.301   4.791  17.402  0.00  0.00    +0.000 A 
ATOM     24  S   UNL     1      49.093   3.689  18.430  0.00  0.00    +0.000 S 
ATOM     25  C   UNL     1      50.617   4.322  18.021  0.00  0.00    +0.000 A 
ATOM     26  N   UNL     1      51.748   3.816  18.576  0.00  0.00    +0.000 NA
ATOM     27  C   UNL     1      52.839   4.391  18.195  0.00  0.00    +0.000 A 
ATOM     28  N   UNL     1      52.897   5.427  17.300  0.00  0.00    +0.000 N 
ATOM     29  C   UNL     1      51.779   5.974  16.711  0.00  0.00    +0.000 A 
ATOM     30  O   UNL     1      51.868   6.915  15.930  0.00  0.00    +0.000 OA
ATOM     31  C   UNL     1      50.523   5.362  17.109  0.00  0.00    +0.000 A 
ATOM     32  H   UNL     1      53.782   5.842  17.049  0.00  0.00    +0.000 HD
ENDBRANCH  19  22
ENDBRANCH   2  18
TORSDOF 5
ENDMDL
MODEL 5
REMARK VINA RESULT:    -7.218      4.470      7.446
REMARK INTER + INTRA:          -9.783
REMARK INTER:                  -8.905
REMARK INTRA:                  -0.878
REMARK UNBOUND:                -0.455
REMARK  Name = 
REMARK  6 active torsions:
REMARK  status: ('A' for Active; 'I' for Inactive)
REMARK    1  A    between atoms: C_1  and  C_2
REMARK    2  A    between atoms: C_2  and  N_3
REMARK    3  A    between atoms: C_2  and  C_16
REMARK    4  A    between atoms: C_4  and  C_6
REMARK    5  A    between atoms: C_19  and  C_20
REMARK    6  A    between atoms: C_20  and  N_21
REMARK                            x       y       z     vdW  Elec       q    Type
REMARK                         _______ _______ _______ _____ _____    ______ ____
ROOT
ATOM      1  C   UNL     1      46.409   8.866  13.606  0.00  0.00    +0.000 C 
ATOM      2  C   UNL     1      46.762   8.322  12.219  0.00  0.00    +0.000 C 
ENDROOT
BRANCH   2   3
ATOM      3  C   UNL     1      48.242   8.394  11.905  0.00  0.00    +0.000 A 
ATOM      4  C   UNL     1      48.872   9.631  11.730  0.00  0.00    +0.000 A 
ATOM      5  C   UNL     1      50.225   9.686  11.390  0.00  0.00    +0.000 A 
ATOM      6  C   UNL     1      50.921   8.494  11.210  0.00  0.00    +0.000 A 
ATOM      7  N   UNL     1      50.346   7.283  11.409  0.00  0.00    +0.000 NA
ATOM      8  C   UNL     1      49.032   7.261  11.734  0.00  0.00    +0.000 A 
BRANCH   6   9
ATOM      9  C   UNL     1      52.349   8.500  10.705  0.00  0.00    +0.000 C 
BRANCH   9  10
ATOM     10  N   UNL     1      52.890   7.146  10.574  0.00  0.00    +0.000 N 
ATOM     11  C   UNL     1      53.040   6.771   9.221  0.00  0.00    +0.000 A 
ATOM     12  C   UNL     1      53.546   5.519   8.929  0.00  0.00    +0.000 A 
ATOM     13  C   UNL     1      53.689   5.205   7.595  0.00  0.00    +0.000 A 
ATOM     14  N   UNL     1      53.357   6.042   6.593  0.00  0.00    +0.000 NA
ATOM     15  C   UNL     1      52.885   7.231   6.981  0.00  0.00    +0.000 A 
ATOM     16  N   UNL     1      52.723   7.640   8.246  0.00  0.00    +0.000 NA
ATOM     17  H   UNL     1      52.273   6.478  11.038  0.00  0.00    +0.000 HD
ENDBRANCH   9  10
ENDBRANCH   6   9
ENDBRANCH   2   3
BRANCH   2  18
ATOM     18  N   UNL     1      46.276   6.959  12.046  0.00  0.00    +0.000 N 
ATOM     19  C   UNL     1      45.021   6.687  11.558  0.00  0.00    +0.000 C 
ATOM     20  O   UNL     1      44.243   7.597  11.271  0.00  0.00    +0.000 OA
ATOM     21  H   UNL     1      46.885   6.198  12.335  0.00  0.00    +0.000 HD
BRANCH  19  22
ATOM     22  C   UNL     1      44.639   5.279  11.361  0.00  0.00    +0.000 A 
ATOM     23  C   UNL     1      43.908   4.634  12.355  0.00  0.00    +0.000 A 
ATOM     24  S   UNL     1      43.505   3.021  11.986  0.00  0.00    +0.000 S 
ATOM     25  C   UNL     1      44.308   3.108  10.489  0.00  0.00    +0.000 A 
ATOM     26  N   UNL     1      44.348   2.032   9.663  0.00  0.00    +0.000 NA
ATOM     27  C   UNL     1      44.998   2.221   8.564  0.00  0.00    +0.000 A 
ATOM     28  N   UNL     1      45.608   3.399   8.217  0.00  0.00    +0.000 N 
ATOM     29  C   UNL     1      45.594   4.516   9.021  0.00  0.00    +0.000 A 
ATOM     30  O   UNL     1      46.168   5.547   8.686  0.00  0.00    +0.000 OA
ATOM     31  C   UNL     1      44.875   4.355  10.272  0.00  0.00    +0.000 A 
ATOM     32  H   UNL     1      46.110   3.481   7.346  0.00  0.00    +0.000 HD
ENDBRANCH  19  22
ENDBRANCH   2  18
TORSDOF 5
ENDMDL
MODEL 6
REMARK VINA RESULT:    -7.167      3.563      5.596
REMARK INTER + INTRA:          -9.717
REMARK INTER:                  -9.228
REMARK INTRA:                  -0.490
REMARK UNBOUND:                -0.455
REMARK  Name = 
REMARK  6 active torsions:
REMARK  status: ('A' for Active; 'I' for Inactive)
REMARK    1  A    between atoms: C_1  and  C_2
REMARK    2  A    between atoms: C_2  and  N_3
REMARK    3  A    between atoms: C_2  and  C_16
REMARK    4  A    between atoms: C_4  and  C_6
REMARK    5  A    between atoms: C_19  and  C_20
REMARK    6  A    between atoms: C_20  and  N_21
REMARK                            x       y       z     vdW  Elec       q    Type
REMARK                         _______ _______ _______ _____ _____    ______ ____
ROOT
ATOM      1  C   UNL     1      48.784   6.064  18.720  0.00  0.00    +0.000 C 
ATOM      2  C   UNL     1      48.730   4.585  18.325  0.00  0.00    +0.000 C 
ENDROOT
BRANCH   2   3
ATOM      3  C   UNL     1      48.258   4.361  16.904  0.00  0.00    +0.000 A 
ATOM      4  C   UNL     1      47.950   5.447  16.076  0.00  0.00    +0.000 A 
ATOM      5  C   UNL     1      47.467   5.229  14.786  0.00  0.00    +0.000 A 
ATOM      6  C   UNL     1      47.280   3.921  14.350  0.00  0.00    +0.000 A 
ATOM      7  N   UNL     1      47.604   2.850  15.116  0.00  0.00    +0.000 NA
ATOM      8  C   UNL     1      48.067   3.092  16.365  0.00  0.00    +0.000 A 
BRANCH   6   9
ATOM      9  C   UNL     1      46.626   3.635  13.014  0.00  0.00    +0.000 C 
BRANCH   9  10
ATOM     10  N   UNL     1      45.182   3.432  13.142  0.00  0.00    +0.000 N 
ATOM     11  C   UNL     1      44.451   4.462  12.511  0.00  0.00    +0.000 A 
ATOM     12  C   UNL     1      43.070   4.413  12.539  0.00  0.00    +0.000 A 
ATOM     13  C   UNL     1      42.402   5.432  11.896  0.00  0.00    +0.000 A 
ATOM     14  N   UNL     1      43.021   6.449  11.268  0.00  0.00    +0.000 NA
ATOM     15  C   UNL     1      44.357   6.400  11.292  0.00  0.00    +0.000 A 
ATOM     16  N   UNL     1      45.101   5.450  11.872  0.00  0.00    +0.000 NA
ATOM     17  H   UNL     1      44.922   3.394  14.128  0.00  0.00    +0.000 HD
ENDBRANCH   9  10
ENDBRANCH   6   9
ENDBRANCH   2   3
BRANCH   2  18
ATOM     18  N   UNL     1      50.017   3.935  18.537  0.00  0.00    +0.000 N 
ATOM     19  C   UNL     1      51.140   4.289  17.829  0.00  0.00    +0.000 C 
ATOM     20  O   UNL     1      51.092   5.160  16.960  0.00  0.00    +0.000 OA
ATOM     21  H   UNL     1      50.058   3.173  19.208  0.00  0.00    +0.000 HD
BRANCH  19  22
ATOM     22  C   UNL     1      52.409   3.618  18.154  0.00  0.00    +0.000 A 
ATOM     23  C   UNL     1      53.495   4.389  18.561  0.00  0.00    +0.000 A 
ATOM     24  S   UNL     1      54.888   3.485  18.937  0.00  0.00    +0.000 S 
ATOM     25  C   UNL     1      54.107   2.024  18.553  0.00  0.00    +0.000 A 
ATOM     26  N   UNL     1      54.765   0.841  18.655  0.00  0.00    +0.000 NA
ATOM     27  C   UNL     1      54.068  -0.193  18.323  0.00  0.00    +0.000 A 
ATOM     28  N   UNL     1      52.764  -0.146  17.904  0.00  0.00    +0.000 N 
ATOM     29  C   UNL     1      52.055   1.028  17.785  0.00  0.00    +0.000 A 
ATOM     30  O   UNL     1      50.896   1.032  17.387  0.00  0.00    +0.000 OA
ATOM     31  C   UNL     1      52.797   2.223  18.145  0.00  0.00    +0.000 A 
ATOM     32  H   UNL     1      52.275  -0.991  17.649  0.00  0.00    +0.000 HD
ENDBRANCH  19  22
ENDBRANCH   2  18
TORSDOF 5
ENDMDL
MODEL 7
REMARK VINA RESULT:    -7.104      1.785      2.825
REMARK INTER + INTRA:          -9.636
REMARK INTER:                  -8.451
REMARK INTRA:                  -1.184
REMARK UNBOUND:                -0.455
REMARK  Name = 
REMARK  6 active torsions:
REMARK  status: ('A' for Active; 'I' for Inactive)
REMARK    1  A    between atoms: C_1  and  C_2
REMARK    2  A    between atoms: C_2  and  N_3
REMARK    3  A    between atoms: C_2  and  C_16
REMARK    4  A    between atoms: C_4  and  C_6
REMARK    5  A    between atoms: C_19  and  C_20
REMARK    6  A    between atoms: C_20  and  N_21
REMARK                            x       y       z     vdW  Elec       q    Type
REMARK                         _______ _______ _______ _____ _____    ______ ____
ROOT
ATOM      1  C   UNL     1      50.561   8.957  13.682  0.00  0.00    +0.000 C 
ATOM      2  C   UNL     1      49.202   8.785  14.368  0.00  0.00    +0.000 C 
ENDROOT
BRANCH   2   3
ATOM      3  C   UNL     1      48.129   8.246  13.447  0.00  0.00    +0.000 A 
ATOM      4  C   UNL     1      46.826   8.755  13.496  0.00  0.00    +0.000 A 
ATOM      5  C   UNL     1      45.832   8.217  12.679  0.00  0.00    +0.000 A 
ATOM      6  C   UNL     1      46.155   7.157  11.837  0.00  0.00    +0.000 A 
ATOM      7  N   UNL     1      47.416   6.668  11.740  0.00  0.00    +0.000 NA
ATOM      8  C   UNL     1      48.359   7.208  12.549  0.00  0.00    +0.000 A 
BRANCH   6   9
ATOM      9  C   UNL     1      45.082   6.448  11.037  0.00  0.00    +0.000 C 
BRANCH   9  10
ATOM     10  N   UNL     1      45.580   5.986   9.739  0.00  0.00    +0.000 N 
ATOM     11  C   UNL     1      45.265   4.629   9.512  0.00  0.00    +0.000 A 
ATOM     12  C   UNL     1      45.663   4.043   8.324  0.00  0.00    +0.000 A 
ATOM     13  C   UNL     1      45.319   2.722   8.141  0.00  0.00    +0.000 A 
ATOM     14  N   UNL     1      44.638   1.996   9.049  0.00  0.00    +0.000 NA
ATOM     15  C   UNL     1      44.293   2.657  10.159  0.00  0.00    +0.000 A 
ATOM     16  N   UNL     1      44.563   3.941  10.428  0.00  0.00    +0.000 NA
ATOM     17  H   UNL     1      46.592   6.106   9.693  0.00  0.00    +0.000 HD
ENDBRANCH   9  10
ENDBRANCH   6   9
ENDBRANCH   2   3
BRANCH   2  18
ATOM     18  N   UNL     1      49.312   7.950  15.557  0.00  0.00    +0.000 N 
ATOM     19  C   UNL     1      48.649   8.248  16.723  0.00  0.00    +0.000 C 
ATOM     20  O   UNL     1      47.952   9.259  16.814  0.00  0.00    +0.000 OA
ATOM     21  H   UNL     1      49.931   7.145  15.516  0.00  0.00    +0.000 HD
BRANCH  19  22
ATOM     22  C   UNL     1      48.773   7.313  17.854  0.00  0.00    +0.000 A 
ATOM     23  C   UNL     1      49.051   7.821  19.121  0.00  0.00    +0.000 A 
ATOM     24  S   UNL     1      49.134   6.636  20.341  0.00  0.00    +0.000 S 
ATOM     25  C   UNL     1      48.821   5.390  19.226  0.00  0.00    +0.000 A 
ATOM     26  N   UNL     1      48.767   4.096  19.633  0.00  0.00    +0.000 NA
ATOM     27  C   UNL     1      48.535   3.246  18.690  0.00  0.00    +0.000 A 
ATOM     28  N   UNL     1      48.347   3.579  17.374  0.00  0.00    +0.000 N 
ATOM     29  C   UNL     1      48.393   4.875  16.915  0.00  0.00    +0.000 A 
ATOM     30  O   UNL     1      48.240   5.134  15.725  0.00  0.00    +0.000 OA
ATOM     31  C   UNL     1      48.653   5.873  17.937  0.00  0.00    +0.000 A 
ATOM     32  H   UNL     1      48.180   2.865  16.681  0.00  0.00    +0.000 HD
ENDBRANCH  19  22
ENDBRANCH   2  18
TORSDOF 5
ENDMDL
MODEL 8
REMARK VINA RESULT:    -6.407      2.495      4.070
REMARK INTER + INTRA:          -8.735
REMARK INTER:                  -7.824
REMARK INTRA:                  -0.912
REMARK UNBOUND:                -0.455
REMARK  Name = 
REMARK  6 active torsions:
REMARK  status: ('A' for Active; 'I' for Inactive)
REMARK    1  A    between atoms: C_1  and  C_2
REMARK    2  A    between atoms: C_2  and  N_3
REMARK    3  A    between atoms: C_2  and  C_16
REMARK    4  A    between atoms: C_4  and  C_6
REMARK    5  A    between atoms: C_19  and  C_20
REMARK    6  A    between atoms: C_20  and  N_21
REMARK                            x       y       z     vdW  Elec       q    Type
REMARK                         _______ _______ _______ _____ _____    ______ ____
ROOT
ATOM      1  C   UNL     1      47.253   3.471  16.801  0.00  0.00    +0.000 C 
ATOM      2  C   UNL     1      47.847   4.470  15.803  0.00  0.00    +0.000 C 
ENDROOT
BRANCH   2   3
ATOM      3  C   UNL     1      47.022   4.618  14.541  0.00  0.00    +0.000 A 
ATOM      4  C   UNL     1      46.791   5.881  13.987  0.00  0.00    +0.000 A 
ATOM      5  C   UNL     1      45.988   6.012  12.853  0.00  0.00    +0.000 A 
ATOM      6  C   UNL     1      45.410   4.871  12.304  0.00  0.00    +0.000 A 
ATOM      7  N   UNL     1      45.647   3.631  12.797  0.00  0.00    +0.000 NA
ATOM      8  C   UNL     1      46.426   3.536  13.900  0.00  0.00    +0.000 A 
BRANCH   6   9
ATOM      9  C   UNL     1      44.420   4.977  11.162  0.00  0.00    +0.000 C 
BRANCH   9  10
ATOM     10  N   UNL     1      44.299   3.720  10.422  0.00  0.00    +0.000 N 
ATOM     11  C   UNL     1      45.056   3.740   9.230  0.00  0.00    +0.000 A 
ATOM     12  C   UNL     1      45.051   2.621   8.418  0.00  0.00    +0.000 A 
ATOM     13  C   UNL     1      45.817   2.684   7.275  0.00  0.00    +0.000 A 
ATOM     14  N   UNL     1      46.542   3.762   6.922  0.00  0.00    +0.000 NA
ATOM     15  C   UNL     1      46.486   4.788   7.778  0.00  0.00    +0.000 A 
ATOM     16  N   UNL     1      45.788   4.824   8.920  0.00  0.00    +0.000 NA
ATOM     17  H   UNL     1      43.321   3.543  10.193  0.00  0.00    +0.000 HD
ENDBRANCH   9  10
ENDBRANCH   6   9
ENDBRANCH   2   3
BRANCH   2  18
ATOM     18  N   UNL     1      48.060   5.772  16.421  0.00  0.00    +0.000 N 
ATOM     19  C   UNL     1      49.282   6.152  16.921  0.00  0.00    +0.000 C 
ATOM     20  O   UNL     1      50.245   5.385  16.890  0.00  0.00    +0.000 OA
ATOM     21  H   UNL     1      47.260   6.392  16.508  0.00  0.00    +0.000 HD
BRANCH  19  22
ATOM     22  C   UNL     1      49.418   7.510  17.473  0.00  0.00    +0.000 A 
ATOM     23  C   UNL     1      49.833   7.662  18.794  0.00  0.00    +0.000 A 
ATOM     24  S   UNL     1      49.980   9.283  19.294  0.00  0.00    +0.000 S 
ATOM     25  C   UNL     1      49.476   9.853  17.773  0.00  0.00    +0.000 A 
ATOM     26  N   UNL     1      49.374  11.185  17.533  0.00  0.00    +0.000 NA
ATOM     27  C   UNL     1      48.969  11.488  16.345  0.00  0.00    +0.000 A 
ATOM     28  N   UNL     1      48.662  10.571  15.373  0.00  0.00    +0.000 N 
ATOM     29  C   UNL     1      48.750   9.212  15.569  0.00  0.00    +0.000 A 
ATOM     30  O   UNL     1      48.448   8.421  14.682  0.00  0.00    +0.000 OA
ATOM     31  C   UNL     1      49.201   8.818  16.892  0.00  0.00    +0.000 A 
ATOM     32  H   UNL     1      48.341  10.872  14.466  0.00  0.00    +0.000 HD
ENDBRANCH  19  22
ENDBRANCH   2  18
TORSDOF 5
ENDMDL
MODEL 9
REMARK VINA RESULT:    -6.398      2.954      4.112
REMARK INTER + INTRA:          -8.723
REMARK INTER:                  -7.685
REMARK INTRA:                  -1.038
REMARK UNBOUND:                -0.455
REMARK  Name = 
REMARK  6 active torsions:
REMARK  status: ('A' for Active; 'I' for Inactive)
REMARK    1  A    between atoms: C_1  and  C_2
REMARK    2  A    between atoms: C_2  and  N_3
REMARK    3  A    between atoms: C_2  and  C_16
REMARK    4  A    between atoms: C_4  and  C_6
REMARK    5  A    between atoms: C_19  and  C_20
REMARK    6  A    between atoms: C_20  and  N_21
REMARK                            x       y       z     vdW  Elec       q    Type
REMARK                         _______ _______ _______ _____ _____    ______ ____
ROOT
ATOM      1  C   UNL     1      51.100   9.206  11.884  0.00  0.00    +0.000 C 
ATOM      2  C   UNL     1      50.253   8.895  13.122  0.00  0.00    +0.000 C 
ENDROOT
BRANCH   2   3
ATOM      3  C   UNL     1      48.843   8.455  12.788  0.00  0.00    +0.000 A 
ATOM      4  C   UNL     1      48.593   7.160  12.321  0.00  0.00    +0.000 A 
ATOM      5  C   UNL     1      47.298   6.780  11.968  0.00  0.00    +0.000 A 
ATOM      6  C   UNL     1      46.272   7.715  12.068  0.00  0.00    +0.000 A 
ATOM      7  N   UNL     1      46.478   8.965  12.552  0.00  0.00    +0.000 NA
ATOM      8  C   UNL     1      47.745   9.306  12.883  0.00  0.00    +0.000 A 
BRANCH   6   9
ATOM      9  C   UNL     1      44.880   7.395  11.565  0.00  0.00    +0.000 C 
BRANCH   9  10
ATOM     10  N   UNL     1      44.895   6.352  10.537  0.00  0.00    +0.000 N 
ATOM     11  C   UNL     1      44.408   5.123  11.032  0.00  0.00    +0.000 A 
ATOM     12  C   UNL     1      44.353   4.036  10.180  0.00  0.00    +0.000 A 
ATOM     13  C   UNL     1      43.856   2.864  10.705  0.00  0.00    +0.000 A 
ATOM     14  N   UNL     1      43.442   2.734  11.980  0.00  0.00    +0.000 NA
ATOM     15  C   UNL     1      43.528   3.845  12.719  0.00  0.00    +0.000 A 
ATOM     16  N   UNL     1      43.979   5.035  12.303  0.00  0.00    +0.000 NA
ATOM     17  H   UNL     1      45.845   6.219  10.190  0.00  0.00    +0.000 HD
ENDBRANCH   9  10
ENDBRANCH   6   9
ENDBRANCH   2   3
BRANCH   2  18
ATOM     18  N   UNL     1      50.902   7.905  13.971  0.00  0.00    +0.000 N 
ATOM     19  C   UNL     1      51.584   8.256  15.111  0.00  0.00    +0.000 C 
ATOM     20  O   UNL     1      51.697   9.436  15.443  0.00  0.00    +0.000 OA
ATOM     21  H   UNL     1      50.869   6.933  13.677  0.00  0.00    +0.000 HD
BRANCH  19  22
ATOM     22  C   UNL     1      52.157   7.182  15.939  0.00  0.00    +0.000 A 
ATOM     23  C   UNL     1      53.532   7.160  16.159  0.00  0.00    +0.000 A 
ATOM     24  S   UNL     1      54.056   5.886  17.159  0.00  0.00    +0.000 S 
ATOM     25  C   UNL     1      52.470   5.295  17.327  0.00  0.00    +0.000 A 
ATOM     26  N   UNL     1      52.220   4.188  18.071  0.00  0.00    +0.000 NA
ATOM     27  C   UNL     1      50.979   3.834  18.109  0.00  0.00    +0.000 A 
ATOM     28  N   UNL     1      49.964   4.498  17.471  0.00  0.00    +0.000 N 
ATOM     29  C   UNL     1      50.168   5.624  16.706  0.00  0.00    +0.000 A 
ATOM     30  O   UNL     1      49.238   6.180  16.133  0.00  0.00    +0.000 OA
ATOM     31  C   UNL     1      51.550   6.063  16.629  0.00  0.00    +0.000 A 
ATOM     32  H   UNL     1      49.013   4.165  17.531  0.00  0.00    +0.000 HD
ENDBRANCH  19  22
ENDBRANCH   2  18
TORSDOF 5
ENDMDL
