MODEL 1
REMARK VINA RESULT:    -8.196      0.000      0.000
REMARK INTER + INTRA:         -11.409
REMARK INTER:                 -10.592
REMARK INTRA:                  -0.817
REMARK UNBOUND:                -0.817
REMARK  Name = 
REMARK  5 active torsions:
REMARK  status: ('A' for Active; 'I' for Inactive)
REMARK    1  A    between atoms: C_2  and  C_4
REMARK    2  A    between atoms: C_7  and  N_8
REMARK    3  A    between atoms: N_8  and  C_9
REMARK    4  A    between atoms: C_9  and  C_10
REMARK    5  A    between atoms: C_13  and  C_14
REMARK                            x       y       z     vdW  Elec       q    Type
REMARK                         _______ _______ _______ _____ _____    ______ ____
ROOT
ATOM      1  N   UNL     1      43.731   4.881   9.734  0.00  0.00    +0.000 N 
ATOM      2  H   UNL     1      42.917   5.087   9.163  0.00  0.00    +0.000 HD
ENDROOT
BRANCH   1   6
ATOM      3  C   UNL     1      46.240   2.032   8.010  0.00  0.00    +0.000 A 
ATOM      4  C   UNL     1      46.428   3.359   7.664  0.00  0.00    +0.000 A 
ATOM      5  C   UNL     1      45.620   4.325   8.264  0.00  0.00    +0.000 A 
ATOM      6  C   UNL     1      44.651   3.972   9.210  0.00  0.00    +0.000 A 
ATOM      7  C   UNL     1      44.548   2.601   9.477  0.00  0.00    +0.000 A 
ATOM      8  N   UNL     1      45.309   1.622   8.913  0.00  0.00    +0.000 NA
BRANCH   3  10
ATOM      9  N   UNL     1      46.770  -0.330   7.650  0.00  0.00    +0.000 N 
ATOM     10  C   UNL     1      47.068   0.973   7.356  0.00  0.00    +0.000 C 
ATOM     11  O   UNL     1      47.968   1.243   6.559  0.00  0.00    +0.000 OA
ATOM     12  H   UNL     1      47.272  -1.047   7.146  0.00  0.00    +0.000 HD
ATOM     13  H   UNL     1      45.897  -0.558   8.117  0.00  0.00    +0.000 HD
ENDBRANCH   3  10
ENDBRANCH   1   6
BRANCH   1  14
ATOM     14  C   UNL     1      43.553   4.982  11.173  0.00  0.00    +0.000 C 
BRANCH  14  15
ATOM     15  C   UNL     1      44.785   5.508  11.866  0.00  0.00    +0.000 A 
ATOM     16  C   UNL     1      45.350   4.803  12.938  0.00  0.00    +0.000 A 
ATOM     17  C   UNL     1      46.537   5.241  13.530  0.00  0.00    +0.000 A 
ATOM     18  C   UNL     1      47.163   6.405  13.076  0.00  0.00    +0.000 A 
ATOM     19  C   UNL     1      46.604   7.111  12.005  0.00  0.00    +0.000 A 
ATOM     20  C   UNL     1      45.415   6.675  11.414  0.00  0.00    +0.000 A 
BRANCH  18  21
ATOM     21  C   UNL     1      48.387   6.897  13.720  0.00  0.00    +0.000 C 
ATOM     22  C   UNL     1      48.577   6.746  15.037  0.00  0.00    +0.000 C 
ATOM     23  C   UNL     1      49.866   7.119  15.712  0.00  0.00    +0.000 C 
ATOM     24  O   UNL     1      50.924   7.342  14.776  0.00  0.00    +0.000 OA
ATOM     25  C   UNL     1      50.521   8.202  13.708  0.00  0.00    +0.000 C 
ATOM     26  C   UNL     1      49.446   7.527  12.853  0.00  0.00    +0.000 C 
ENDBRANCH  18  21
ENDBRANCH  14  15
ENDBRANCH   1  14
TORSDOF 5
ENDMDL
MODEL 2
REMARK VINA RESULT:    -7.993      2.558      7.078
REMARK INTER + INTRA:         -11.146
REMARK INTER:                 -10.554
REMARK INTRA:                  -0.592
REMARK UNBOUND:                -0.817
REMARK  Name = 
REMARK  5 active torsions:
REMARK  status: ('A' for Active; 'I' for Inactive)
REMARK    1  A    between atoms: C_2  and  C_4
REMARK    2  A    between atoms: C_7  and  N_8
REMARK    3  A    between atoms: N_8  and  C_9
REMARK    4  A    between atoms: C_9  and  C_10
REMARK    5  A    between atoms: C_13  and  C_14
REMARK                            x       y       z     vdW  Elec       q    Type
REMARK                         _______ _______ _______ _____ _____    ______ ____
ROOT
ATOM      1  N   UNL     1      43.306   5.466  13.046  0.00  0.00    +0.000 N 
ATOM      2  H   UNL     1      42.749   5.947  13.747  0.00  0.00    +0.000 HD
ENDROOT
BRANCH   1   6
ATOM      3  C   UNL     1      47.352   6.442  13.293  0.00  0.00    +0.000 A 
ATOM      4  C   UNL     1      46.975   5.148  13.605  0.00  0.00    +0.000 A 
ATOM      5  C   UNL     1      45.628   4.799  13.489  0.00  0.00    +0.000 A 
ATOM      6  C   UNL     1      44.676   5.726  13.049  0.00  0.00    +0.000 A 
ATOM      7  C   UNL     1      45.174   7.005  12.767  0.00  0.00    +0.000 A 
ATOM      8  N   UNL     1      46.475   7.393  12.871  0.00  0.00    +0.000 NA
BRANCH   3  10
ATOM      9  N   UNL     1      49.367   7.493  12.384  0.00  0.00    +0.000 N 
ATOM     10  C   UNL     1      48.782   6.853  13.442  0.00  0.00    +0.000 C 
ATOM     11  O   UNL     1      49.414   6.656  14.481  0.00  0.00    +0.000 OA
ATOM     12  H   UNL     1      50.305   7.845  12.515  0.00  0.00    +0.000 HD
ATOM     13  H   UNL     1      48.792   7.855  11.629  0.00  0.00    +0.000 HD
ENDBRANCH   3  10
ENDBRANCH   1   6
BRANCH   1  14
ATOM     14  C   UNL     1      42.633   5.139  11.799  0.00  0.00    +0.000 C 
BRANCH  14  15
ATOM     15  C   UNL     1      43.552   4.459  10.816  0.00  0.00    +0.000 A 
ATOM     16  C   UNL     1      43.709   3.066  10.840  0.00  0.00    +0.000 A 
ATOM     17  C   UNL     1      44.495   2.422   9.880  0.00  0.00    +0.000 A 
ATOM     18  C   UNL     1      45.156   3.165   8.898  0.00  0.00    +0.000 A 
ATOM     19  C   UNL     1      45.000   4.556   8.869  0.00  0.00    +0.000 A 
ATOM     20  C   UNL     1      44.218   5.201   9.830  0.00  0.00    +0.000 A 
BRANCH  18  21
ATOM     21  C   UNL     1      46.018   2.502   7.912  0.00  0.00    +0.000 C 
ATOM     22  C   UNL     1      46.512   3.179   6.869  0.00  0.00    +0.000 C 
ATOM     23  C   UNL     1      47.498   2.575   5.911  0.00  0.00    +0.000 C 
ATOM     24  O   UNL     1      48.061   1.357   6.407  0.00  0.00    +0.000 OA
ATOM     25  C   UNL     1      47.058   0.465   6.898  0.00  0.00    +0.000 C 
ATOM     26  C   UNL     1      46.375   1.055   8.135  0.00  0.00    +0.000 C 
ENDBRANCH  18  21
ENDBRANCH  14  15
ENDBRANCH   1  14
TORSDOF 5
ENDMDL
MODEL 3
REMARK VINA RESULT:    -7.876      1.262      1.792
REMARK INTER + INTRA:         -10.994
REMARK INTER:                 -10.199
REMARK INTRA:                  -0.796
REMARK UNBOUND:                -0.817
REMARK  Name = 
REMARK  5 active torsions:
REMARK  status: ('A' for Active; 'I' for Inactive)
REMARK    1  A    between atoms: C_2  and  C_4
REMARK    2  A    between atoms: C_7  and  N_8
REMARK    3  A    between atoms: N_8  and  C_9
REMARK    4  A    between atoms: C_9  and  C_10
REMARK    5  A    between atoms: C_13  and  C_14
REMARK                            x       y       z     vdW  Elec       q    Type
REMARK                         _______ _______ _______ _____ _____    ______ ____
ROOT
ATOM      1  N   UNL     1      43.663   4.155  10.199  0.00  0.00    +0.000 N 
ATOM      2  H   UNL     1      42.705   4.302   9.896  0.00  0.00    +0.000 HD
ENDROOT
BRANCH   1   6
ATOM      3  C   UNL     1      46.521   2.688   7.542  0.00  0.00    +0.000 A 
ATOM      4  C   UNL     1      45.892   1.787   8.384  0.00  0.00    +0.000 A 
ATOM      5  C   UNL     1      44.906   2.261   9.250  0.00  0.00    +0.000 A 
ATOM      6  C   UNL     1      44.542   3.612   9.261  0.00  0.00    +0.000 A 
ATOM      7  C   UNL     1      45.249   4.429   8.371  0.00  0.00    +0.000 A 
ATOM      8  N   UNL     1      46.221   4.014   7.512  0.00  0.00    +0.000 NA
BRANCH   3  10
ATOM      9  N   UNL     1      47.866   2.966   5.516  0.00  0.00    +0.000 N 
ATOM     10  C   UNL     1      47.606   2.214   6.628  0.00  0.00    +0.000 C 
ATOM     11  O   UNL     1      48.270   1.204   6.868  0.00  0.00    +0.000 OA
ATOM     12  H   UNL     1      48.652   2.694   4.944  0.00  0.00    +0.000 HD
ATOM     13  H   UNL     1      47.485   3.905   5.438  0.00  0.00    +0.000 HD
ENDBRANCH   3  10
ENDBRANCH   1   6
BRANCH   1  14
ATOM     14  C   UNL     1      43.858   3.885  11.615  0.00  0.00    +0.000 C 
BRANCH  14  15
ATOM     15  C   UNL     1      45.036   4.635  12.182  0.00  0.00    +0.000 A 
ATOM     16  C   UNL     1      45.914   4.004  13.075  0.00  0.00    +0.000 A 
ATOM     17  C   UNL     1      47.053   4.668  13.540  0.00  0.00    +0.000 A 
ATOM     18  C   UNL     1      47.316   5.980  13.141  0.00  0.00    +0.000 A 
ATOM     19  C   UNL     1      46.443   6.614  12.248  0.00  0.00    +0.000 A 
ATOM     20  C   UNL     1      45.302   5.952  11.784  0.00  0.00    +0.000 A 
BRANCH  18  21
ATOM     21  C   UNL     1      48.486   6.701  13.658  0.00  0.00    +0.000 C 
ATOM     22  C   UNL     1      49.318   7.340  12.829  0.00  0.00    +0.000 C 
ATOM     23  C   UNL     1      50.451   8.194  13.324  0.00  0.00    +0.000 C 
ATOM     24  O   UNL     1      50.341   8.483  14.721  0.00  0.00    +0.000 OA
ATOM     25  C   UNL     1      50.075   7.310  15.491  0.00  0.00    +0.000 C 
ATOM     26  C   UNL     1      48.693   6.746  15.150  0.00  0.00    +0.000 C 
ENDBRANCH  18  21
ENDBRANCH  14  15
ENDBRANCH   1  14
TORSDOF 5
ENDMDL
MODEL 4
REMARK VINA RESULT:    -7.827      1.723      2.335
REMARK INTER + INTRA:         -10.932
REMARK INTER:                 -10.142
REMARK INTRA:                  -0.790
REMARK UNBOUND:                -0.817
REMARK  Name = 
REMARK  5 active torsions:
REMARK  status: ('A' for Active; 'I' for Inactive)
REMARK    1  A    between atoms: C_2  and  C_4
REMARK    2  A    between atoms: C_7  and  N_8
REMARK    3  A    between atoms: N_8  and  C_9
REMARK    4  A    between atoms: C_9  and  C_10
REMARK    5  A    between atoms: C_13  and  C_14
REMARK                            x       y       z     vdW  Elec       q    Type
REMARK                         _______ _______ _______ _____ _____    ______ ____
ROOT
ATOM      1  N   UNL     1      43.775   4.763   9.949  0.00  0.00    +0.000 N 
ATOM      2  H   UNL     1      42.956   4.268  10.290  0.00  0.00    +0.000 HD
ENDROOT
BRANCH   1   6
ATOM      3  C   UNL     1      46.439   2.342   7.846  0.00  0.00    +0.000 A 
ATOM      4  C   UNL     1      46.488   3.707   7.625  0.00  0.00    +0.000 A 
ATOM      5  C   UNL     1      45.627   4.531   8.352  0.00  0.00    +0.000 A 
ATOM      6  C   UNL     1      44.744   3.999   9.299  0.00  0.00    +0.000 A 
ATOM      7  C   UNL     1      44.780   2.605   9.432  0.00  0.00    +0.000 A 
ATOM      8  N   UNL     1      45.597   1.761   8.743  0.00  0.00    +0.000 NA
BRANCH   3  10
ATOM      9  N   UNL     1      48.341   2.005   6.342  0.00  0.00    +0.000 N 
ATOM     10  C   UNL     1      47.324   1.432   7.056  0.00  0.00    +0.000 C 
ATOM     11  O   UNL     1      47.177   0.209   7.059  0.00  0.00    +0.000 OA
ATOM     12  H   UNL     1      48.989   1.387   5.877  0.00  0.00    +0.000 HD
ATOM     13  H   UNL     1      48.602   2.972   6.518  0.00  0.00    +0.000 HD
ENDBRANCH   3  10
ENDBRANCH   1   6
BRANCH   1  14
ATOM     14  C   UNL     1      44.166   5.951  10.689  0.00  0.00    +0.000 C 
BRANCH  14  15
ATOM     15  C   UNL     1      45.079   5.629  11.845  0.00  0.00    +0.000 A 
ATOM     16  C   UNL     1      46.261   6.357  12.039  0.00  0.00    +0.000 A 
ATOM     17  C   UNL     1      47.070   6.118  13.154  0.00  0.00    +0.000 A 
ATOM     18  C   UNL     1      46.721   5.129  14.077  0.00  0.00    +0.000 A 
ATOM     19  C   UNL     1      45.541   4.400  13.889  0.00  0.00    +0.000 A 
ATOM     20  C   UNL     1      44.733   4.636  12.773  0.00  0.00    +0.000 A 
BRANCH  18  21
ATOM     21  C   UNL     1      47.586   4.841  15.228  0.00  0.00    +0.000 C 
ATOM     22  C   UNL     1      47.527   3.657  15.849  0.00  0.00    +0.000 C 
ATOM     23  C   UNL     1      48.480   3.275  16.945  0.00  0.00    +0.000 C 
ATOM     24  O   UNL     1      49.603   4.158  17.021  0.00  0.00    +0.000 OA
ATOM     25  C   UNL     1      49.206   5.530  17.005  0.00  0.00    +0.000 C 
ATOM     26  C   UNL     1      48.577   5.891  15.656  0.00  0.00    +0.000 C 
ENDBRANCH  18  21
ENDBRANCH  14  15
ENDBRANCH   1  14
TORSDOF 5
ENDMDL
MODEL 5
REMARK VINA RESULT:    -6.732      4.883      6.659
REMARK INTER + INTRA:          -9.516
REMARK INTER:                  -8.932
REMARK INTRA:                  -0.584
REMARK UNBOUND:                -0.817
REMARK  Name = 
REMARK  5 active torsions:
REMARK  status: ('A' for Active; 'I' for Inactive)
REMARK    1  A    between atoms: C_2  and  C_4
REMARK    2  A    between atoms: C_7  and  N_8
REMARK    3  A    between atoms: N_8  and  C_9
REMARK    4  A    between atoms: C_9  and  C_10
REMARK    5  A    between atoms: C_13  and  C_14
REMARK                            x       y       z     vdW  Elec       q    Type
REMARK                         _______ _______ _______ _____ _____    ______ ____
ROOT
ATOM      1  N   UNL     1      47.469   5.256  15.118  0.00  0.00    +0.000 N 
ATOM      2  H   UNL     1      47.748   6.224  15.242  0.00  0.00    +0.000 HD
ENDROOT
BRANCH   1   6
ATOM      3  C   UNL     1      44.972   4.258  11.931  0.00  0.00    +0.000 A 
ATOM      4  C   UNL     1      45.183   5.600  12.197  0.00  0.00    +0.000 A 
ATOM      5  C   UNL     1      46.047   5.946  13.237  0.00  0.00    +0.000 A 
ATOM      6  C   UNL     1      46.705   4.964  13.987  0.00  0.00    +0.000 A 
ATOM      7  C   UNL     1      46.410   3.642  13.631  0.00  0.00    +0.000 A 
ATOM      8  N   UNL     1      45.571   3.257  12.630  0.00  0.00    +0.000 NA
BRANCH   3  10
ATOM      9  N   UNL     1      43.892   4.706   9.781  0.00  0.00    +0.000 N 
ATOM     10  C   UNL     1      44.023   3.859  10.847  0.00  0.00    +0.000 C 
ATOM     11  O   UNL     1      43.398   2.798  10.881  0.00  0.00    +0.000 OA
ATOM     12  H   UNL     1      43.317   4.398   9.010  0.00  0.00    +0.000 HD
ATOM     13  H   UNL     1      44.565   5.455   9.641  0.00  0.00    +0.000 HD
ENDBRANCH   3  10
ENDBRANCH   1   6
BRANCH   1  14
ATOM     14  C   UNL     1      47.294   4.472  16.330  0.00  0.00    +0.000 C 
BRANCH  14  15
ATOM     15  C   UNL     1      48.589   3.866  16.810  0.00  0.00    +0.000 A 
ATOM     16  C   UNL     1      48.841   2.499  16.629  0.00  0.00    +0.000 A 
ATOM     17  C   UNL     1      50.071   1.948  16.998  0.00  0.00    +0.000 A 
ATOM     18  C   UNL     1      51.058   2.751  17.576  0.00  0.00    +0.000 A 
ATOM     19  C   UNL     1      50.811   4.117  17.756  0.00  0.00    +0.000 A 
ATOM     20  C   UNL     1      49.580   4.669  17.391  0.00  0.00    +0.000 A 
BRANCH  18  21
ATOM     21  C   UNL     1      52.337   2.173  18.006  0.00  0.00    +0.000 C 
ATOM     22  C   UNL     1      53.228   2.908  18.682  0.00  0.00    +0.000 C 
ATOM     23  C   UNL     1      54.489   2.323  19.250  0.00  0.00    +0.000 C 
ATOM     24  O   UNL     1      54.467   0.892  19.259  0.00  0.00    +0.000 OA
ATOM     25  C   UNL     1      54.056   0.356  17.999  0.00  0.00    +0.000 C 
ATOM     26  C   UNL     1      52.596   0.718  17.714  0.00  0.00    +0.000 C 
ENDBRANCH  18  21
ENDBRANCH  14  15
ENDBRANCH   1  14
TORSDOF 5
ENDMDL
MODEL 6
REMARK VINA RESULT:    -5.912      4.808      8.279
REMARK INTER + INTRA:          -8.457
REMARK INTER:                  -8.082
REMARK INTRA:                  -0.375
REMARK UNBOUND:                -0.817
REMARK  Name = 
REMARK  5 active torsions:
REMARK  status: ('A' for Active; 'I' for Inactive)
REMARK    1  A    between atoms: C_2  and  C_4
REMARK    2  A    between atoms: C_7  and  N_8
REMARK    3  A    between atoms: N_8  and  C_9
REMARK    4  A    between atoms: C_9  and  C_10
REMARK    5  A    between atoms: C_13  and  C_14
REMARK                            x       y       z     vdW  Elec       q    Type
REMARK                         _______ _______ _______ _____ _____    ______ ____
ROOT
ATOM      1  N   UNL     1      49.134   6.181  17.017  0.00  0.00    +0.000 N 
ATOM      2  H   UNL     1      48.870   6.786  17.789  0.00  0.00    +0.000 HD
ENDROOT
BRANCH   1   6
ATOM      3  C   UNL     1      51.516   2.818  17.654  0.00  0.00    +0.000 A 
ATOM      4  C   UNL     1      52.143   4.045  17.529  0.00  0.00    +0.000 A 
ATOM      5  C   UNL     1      51.354   5.183  17.354  0.00  0.00    +0.000 A 
ATOM      6  C   UNL     1      49.957   5.097  17.324  0.00  0.00    +0.000 A 
ATOM      7  C   UNL     1      49.436   3.804  17.455  0.00  0.00    +0.000 A 
ATOM      8  N   UNL     1      50.164   2.665  17.622  0.00  0.00    +0.000 NA
BRANCH   3  10
ATOM      9  N   UNL     1      51.673   0.408  18.052  0.00  0.00    +0.000 N 
ATOM     10  C   UNL     1      52.338   1.579  17.807  0.00  0.00    +0.000 C 
ATOM     11  O   UNL     1      53.564   1.587  17.690  0.00  0.00    +0.000 OA
ATOM     12  H   UNL     1      52.219  -0.441  18.071  0.00  0.00    +0.000 HD
ATOM     13  H   UNL     1      50.667   0.359  17.921  0.00  0.00    +0.000 HD
ENDBRANCH   3  10
ENDBRANCH   1   6
BRANCH   1  14
ATOM     14  C   UNL     1      49.219   6.805  15.707  0.00  0.00    +0.000 C 
BRANCH  14  15
ATOM     15  C   UNL     1      48.256   6.196  14.721  0.00  0.00    +0.000 A 
ATOM     16  C   UNL     1      47.441   5.119  15.098  0.00  0.00    +0.000 A 
ATOM     17  C   UNL     1      46.489   4.603  14.215  0.00  0.00    +0.000 A 
ATOM     18  C   UNL     1      46.355   5.140  12.932  0.00  0.00    +0.000 A 
ATOM     19  C   UNL     1      47.164   6.217  12.551  0.00  0.00    +0.000 A 
ATOM     20  C   UNL     1      48.119   6.731  13.432  0.00  0.00    +0.000 A 
BRANCH  18  21
ATOM     21  C   UNL     1      45.388   4.577  11.982  0.00  0.00    +0.000 C 
ATOM     22  C   UNL     1      44.544   3.608  12.357  0.00  0.00    +0.000 C 
ATOM     23  C   UNL     1      43.456   3.095  11.456  0.00  0.00    +0.000 C 
ATOM     24  O   UNL     1      43.239   3.947  10.328  0.00  0.00    +0.000 OA
ATOM     25  C   UNL     1      44.463   4.293   9.675  0.00  0.00    +0.000 C 
ATOM     26  C   UNL     1      45.334   5.156  10.592  0.00  0.00    +0.000 C 
ENDBRANCH  18  21
ENDBRANCH  14  15
ENDBRANCH   1  14
TORSDOF 5
ENDMDL
MODEL 7
REMARK VINA RESULT:    -5.785      3.392      4.980
REMARK INTER + INTRA:          -8.293
REMARK INTER:                  -7.769
REMARK INTRA:                  -0.524
REMARK UNBOUND:                -0.817
REMARK  Name = 
REMARK  5 active torsions:
REMARK  status: ('A' for Active; 'I' for Inactive)
REMARK    1  A    between atoms: C_2  and  C_4
REMARK    2  A    between atoms: C_7  and  N_8
REMARK    3  A    between atoms: N_8  and  C_9
REMARK    4  A    between atoms: C_9  and  C_10
REMARK    5  A    between atoms: C_13  and  C_14
REMARK                            x       y       z     vdW  Elec       q    Type
REMARK                         _______ _______ _______ _____ _____    ______ ____
ROOT
ATOM      1  N   UNL     1      46.007   7.506  13.269  0.00  0.00    +0.000 N 
ATOM      2  H   UNL     1      46.532   7.397  14.132  0.00  0.00    +0.000 HD
ENDROOT
BRANCH   1   6
ATOM      3  C   UNL     1      44.484   3.998  11.608  0.00  0.00    +0.000 A 
ATOM      4  C   UNL     1      44.454   5.149  10.839  0.00  0.00    +0.000 A 
ATOM      5  C   UNL     1      44.997   6.320  11.370  0.00  0.00    +0.000 A 
ATOM      6  C   UNL     1      45.577   6.336  12.644  0.00  0.00    +0.000 A 
ATOM      7  C   UNL     1      45.544   5.116  13.330  0.00  0.00    +0.000 A 
ATOM      8  N   UNL     1      45.022   3.950  12.857  0.00  0.00    +0.000 NA
BRANCH   3  10
ATOM      9  N   UNL     1      44.431   2.199   9.949  0.00  0.00    +0.000 N 
ATOM     10  C   UNL     1      43.879   2.738  11.079  0.00  0.00    +0.000 C 
ATOM     11  O   UNL     1      42.937   2.177  11.642  0.00  0.00    +0.000 OA
ATOM     12  H   UNL     1      44.078   1.305   9.640  0.00  0.00    +0.000 HD
ATOM     13  H   UNL     1      45.336   2.526   9.621  0.00  0.00    +0.000 HD
ENDBRANCH   3  10
ENDBRANCH   1   6
BRANCH   1  14
ATOM     14  C   UNL     1      46.314   8.682  12.471  0.00  0.00    +0.000 C 
BRANCH  14  15
ATOM     15  C   UNL     1      47.777   8.763  12.113  0.00  0.00    +0.000 A 
ATOM     16  C   UNL     1      48.565   7.604  12.088  0.00  0.00    +0.000 A 
ATOM     17  C   UNL     1      49.900   7.661  11.678  0.00  0.00    +0.000 A 
ATOM     18  C   UNL     1      50.473   8.881  11.311  0.00  0.00    +0.000 A 
ATOM     19  C   UNL     1      49.689  10.041  11.332  0.00  0.00    +0.000 A 
ATOM     20  C   UNL     1      48.355   9.986  11.745  0.00  0.00    +0.000 A 
BRANCH  18  21
ATOM     21  C   UNL     1      51.886   8.958  10.920  0.00  0.00    +0.000 C 
ATOM     22  C   UNL     1      52.643   7.856  10.868  0.00  0.00    +0.000 C 
ATOM     23  C   UNL     1      54.053   7.872  10.351  0.00  0.00    +0.000 C 
ATOM     24  O   UNL     1      54.364   9.084   9.658  0.00  0.00    +0.000 OA
ATOM     25  C   UNL     1      53.970  10.240  10.400  0.00  0.00    +0.000 C 
ATOM     26  C   UNL     1      52.445  10.301  10.528  0.00  0.00    +0.000 C 
ENDBRANCH  18  21
ENDBRANCH  14  15
ENDBRANCH   1  14
TORSDOF 5
ENDMDL
MODEL 8
REMARK VINA RESULT:    -5.603      5.678      8.762
REMARK INTER + INTRA:          -8.057
REMARK INTER:                  -7.393
REMARK INTRA:                  -0.664
REMARK UNBOUND:                -0.817
REMARK  Name = 
REMARK  5 active torsions:
REMARK  status: ('A' for Active; 'I' for Inactive)
REMARK    1  A    between atoms: C_2  and  C_4
REMARK    2  A    between atoms: C_7  and  N_8
REMARK    3  A    between atoms: N_8  and  C_9
REMARK    4  A    between atoms: C_9  and  C_10
REMARK    5  A    between atoms: C_13  and  C_14
REMARK                            x       y       z     vdW  Elec       q    Type
REMARK                         _______ _______ _______ _____ _____    ______ ____
ROOT
ATOM      1  N   UNL     1      49.328   4.442  17.886  0.00  0.00    +0.000 N 
ATOM      2  H   UNL     1      48.877   4.507  18.794  0.00  0.00    +0.000 HD
ENDROOT
BRANCH   1   6
ATOM      3  C   UNL     1      52.603   1.862  17.916  0.00  0.00    +0.000 A 
ATOM      4  C   UNL     1      51.431   1.418  17.329  0.00  0.00    +0.000 A 
ATOM      5  C   UNL     1      50.340   2.287  17.279  0.00  0.00    +0.000 A 
ATOM      6  C   UNL     1      50.426   3.587  17.791  0.00  0.00    +0.000 A 
ATOM      7  C   UNL     1      51.659   3.922  18.364  0.00  0.00    +0.000 A 
ATOM      8  N   UNL     1      52.749   3.108  18.441  0.00  0.00    +0.000 NA
BRANCH   3  10
ATOM      9  N   UNL     1      54.565   0.802  16.906  0.00  0.00    +0.000 N 
ATOM     10  C   UNL     1      53.776   0.941  18.015  0.00  0.00    +0.000 C 
ATOM     11  O   UNL     1      54.054   0.344  19.057  0.00  0.00    +0.000 OA
ATOM     12  H   UNL     1      55.403   0.247  16.998  0.00  0.00    +0.000 HD
ATOM     13  H   UNL     1      54.474   1.457  16.134  0.00  0.00    +0.000 HD
ENDBRANCH   3  10
ENDBRANCH   1   6
BRANCH   1  14
ATOM     14  C   UNL     1      49.256   5.624  17.043  0.00  0.00    +0.000 C 
BRANCH  14  15
ATOM     15  C   UNL     1      48.321   5.437  15.875  0.00  0.00    +0.000 A 
ATOM     16  C   UNL     1      48.313   6.360  14.819  0.00  0.00    +0.000 A 
ATOM     17  C   UNL     1      47.508   6.149  13.697  0.00  0.00    +0.000 A 
ATOM     18  C   UNL     1      46.682   5.025  13.624  0.00  0.00    +0.000 A 
ATOM     19  C   UNL     1      46.688   4.100  14.675  0.00  0.00    +0.000 A 
ATOM     20  C   UNL     1      47.489   4.312  15.800  0.00  0.00    +0.000 A 
BRANCH  18  21
ATOM     21  C   UNL     1      45.801   4.817  12.468  0.00  0.00    +0.000 C 
ATOM     22  C   UNL     1      44.893   3.833  12.467  0.00  0.00    +0.000 C 
ATOM     23  C   UNL     1      43.889   3.666  11.363  0.00  0.00    +0.000 C 
ATOM     24  O   UNL     1      43.816   4.817  10.516  0.00  0.00    +0.000 OA
ATOM     25  C   UNL     1      45.110   5.261  10.105  0.00  0.00    +0.000 C 
ATOM     26  C   UNL     1      45.908   5.772  11.308  0.00  0.00    +0.000 C 
ENDBRANCH  18  21
ENDBRANCH  14  15
ENDBRANCH   1  14
TORSDOF 5
ENDMDL
MODEL 9
REMARK VINA RESULT:    -5.472      3.901      6.053
REMARK INTER + INTRA:          -7.889
REMARK INTER:                  -7.362
REMARK INTRA:                  -0.527
REMARK UNBOUND:                -0.817
REMARK  Name = 
REMARK  5 active torsions:
REMARK  status: ('A' for Active; 'I' for Inactive)
REMARK    1  A    between atoms: C_2  and  C_4
REMARK    2  A    between atoms: C_7  and  N_8
REMARK    3  A    between atoms: N_8  and  C_9
REMARK    4  A    between atoms: C_9  and  C_10
REMARK    5  A    between atoms: C_13  and  C_14
REMARK                            x       y       z     vdW  Elec       q    Type
REMARK                         _______ _______ _______ _____ _____    ______ ____
ROOT
ATOM      1  N   UNL     1      48.343   6.672  13.360  0.00  0.00    +0.000 N 
ATOM      2  H   UNL     1      48.877   7.182  12.664  0.00  0.00    +0.000 HD
ENDROOT
BRANCH   1   6
ATOM      3  C   UNL     1      45.078   4.347  12.209  0.00  0.00    +0.000 A 
ATOM      4  C   UNL     1      45.397   5.449  11.436  0.00  0.00    +0.000 A 
ATOM      5  C   UNL     1      46.510   6.213  11.789  0.00  0.00    +0.000 A 
ATOM      6  C   UNL     1      47.305   5.867  12.889  0.00  0.00    +0.000 A 
ATOM      7  C   UNL     1      46.883   4.736  13.598  0.00  0.00    +0.000 A 
ATOM      8  N   UNL     1      45.802   3.964  13.296  0.00  0.00    +0.000 NA
BRANCH   3  10
ATOM      9  N   UNL     1      43.710   2.343  12.532  0.00  0.00    +0.000 N 
ATOM     10  C   UNL     1      43.870   3.532  11.875  0.00  0.00    +0.000 C 
ATOM     11  O   UNL     1      43.026   3.915  11.063  0.00  0.00    +0.000 OA
ATOM     12  H   UNL     1      42.854   1.833  12.369  0.00  0.00    +0.000 HD
ATOM     13  H   UNL     1      44.272   2.138  13.354  0.00  0.00    +0.000 HD
ENDBRANCH   3  10
ENDBRANCH   1   6
BRANCH   1  14
ATOM     14  C   UNL     1      48.242   7.285  14.674  0.00  0.00    +0.000 C 
BRANCH  14  15
ATOM     15  C   UNL     1      49.151   6.628  15.682  0.00  0.00    +0.000 A 
ATOM     16  C   UNL     1      48.645   5.672  16.575  0.00  0.00    +0.000 A 
ATOM     17  C   UNL     1      49.497   5.001  17.456  0.00  0.00    +0.000 A 
ATOM     18  C   UNL     1      50.863   5.292  17.474  0.00  0.00    +0.000 A 
ATOM     19  C   UNL     1      51.373   6.244  16.583  0.00  0.00    +0.000 A 
ATOM     20  C   UNL     1      50.522   6.918  15.704  0.00  0.00    +0.000 A 
BRANCH  18  21
ATOM     21  C   UNL     1      51.759   4.623  18.426  0.00  0.00    +0.000 C 
ATOM     22  C   UNL     1      52.375   3.481  18.099  0.00  0.00    +0.000 C 
ATOM     23  C   UNL     1      53.395   2.833  18.991  0.00  0.00    +0.000 C 
ATOM     24  O   UNL     1      53.842   3.709  20.031  0.00  0.00    +0.000 OA
ATOM     25  C   UNL     1      52.750   4.339  20.705  0.00  0.00    +0.000 C 
ATOM     26  C   UNL     1      52.008   5.284  19.756  0.00  0.00    +0.000 C 
ENDBRANCH  18  21
ENDBRANCH  14  15
ENDBRANCH   1  14
TORSDOF 5
ENDMDL
