MODEL 1
REMARK VINA RESULT:    -7.786      0.000      0.000
REMARK INTER + INTRA:         -11.237
REMARK INTER:                 -10.517
REMARK INTRA:                  -0.720
REMARK UNBOUND:                -0.720
REMARK  Name = 
REMARK  7 active torsions:
REMARK  status: ('A' for Active; 'I' for Inactive)
REMARK    1  A    between atoms: C_1  and  C_2
REMARK    2  A    between atoms: C_2  and  C_3
REMARK    3  A    between atoms: C_2  and  C_14
REMARK    4  A    between atoms: C_3  and  O_4
REMARK    5  A    between atoms: O_4  and  C_5
REMARK    6  A    between atoms: C_8  and  C_9
REMARK    7  A    between atoms: C_18  and  C_19
REMARK                            x       y       z     vdW  Elec       q    Type
REMARK                         _______ _______ _______ _____ _____    ______ ____
ROOT
ATOM      1  O   UNL     1      43.887   3.742  10.475  0.00  0.00    +0.000 OA
ENDROOT
BRANCH   1   2
ATOM      2  C   UNL     1      44.714   3.335   9.450  0.00  0.00    +0.000 A 
ATOM      3  C   UNL     1      45.205   4.306   8.581  0.00  0.00    +0.000 A 
ATOM      4  N   UNL     1      46.088   4.033   7.582  0.00  0.00    +0.000 NA
ATOM      5  C   UNL     1      46.446   2.718   7.497  0.00  0.00    +0.000 A 
ATOM      6  C   UNL     1      45.935   1.749   8.344  0.00  0.00    +0.000 A 
ATOM      7  N   UNL     1      45.058   2.034   9.340  0.00  0.00    +0.000 NA
BRANCH   5   8
ATOM      8  C   UNL     1      47.464   2.333   6.480  0.00  0.00    +0.000 C 
ATOM      9  N   UNL     1      47.495   3.088   5.340  0.00  0.00    +0.000 N 
ATOM     10  O   UNL     1      48.240   1.402   6.662  0.00  0.00    +0.000 OA
ATOM     11  H   UNL     1      46.860   3.866   5.220  0.00  0.00    +0.000 HD
ATOM     12  H   UNL     1      48.193   2.885   4.639  0.00  0.00    +0.000 HD
ENDBRANCH   5   8
ENDBRANCH   1   2
BRANCH   1  13
ATOM     13  C   UNL     1      43.526   5.129  10.390  0.00  0.00    +0.000 C 
BRANCH  13  15
ATOM     14  C   UNL     1      42.687   5.108  12.789  0.00  0.00    +0.000 C 
ATOM     15  C   UNL     1      43.634   5.777  11.786  0.00  0.00    +0.000 C 
BRANCH  15  16
ATOM     16  C   UNL     1      45.072   5.796  12.290  0.00  0.00    +0.000 A 
ATOM     17  C   UNL     1      46.000   6.689  11.733  0.00  0.00    +0.000 A 
ATOM     18  C   UNL     1      47.332   6.697  12.156  0.00  0.00    +0.000 A 
ATOM     19  C   UNL     1      47.758   5.814  13.148  0.00  0.00    +0.000 A 
ATOM     20  C   UNL     1      46.850   4.928  13.728  0.00  0.00    +0.000 A 
ATOM     21  C   UNL     1      45.513   4.922  13.302  0.00  0.00    +0.000 A 
BRANCH  20  22
ATOM     22  C   UNL     1      47.284   4.024  14.759  0.00  0.00    +0.000 C 
ATOM     23  N   UNL     1      47.632   3.299  15.593  0.00  0.00    +0.000 NA
ENDBRANCH  20  22
ENDBRANCH  15  16
ENDBRANCH  13  15
ENDBRANCH   1  13
TORSDOF 6
ENDMDL
MODEL 2
REMARK VINA RESULT:    -7.156      1.699      2.500
REMARK INTER + INTRA:         -10.386
REMARK INTER:                  -9.762
REMARK INTRA:                  -0.624
REMARK UNBOUND:                -0.720
REMARK  Name = 
REMARK  7 active torsions:
REMARK  status: ('A' for Active; 'I' for Inactive)
REMARK    1  A    between atoms: C_1  and  C_2
REMARK    2  A    between atoms: C_2  and  C_3
REMARK    3  A    between atoms: C_2  and  C_14
REMARK    4  A    between atoms: C_3  and  O_4
REMARK    5  A    between atoms: O_4  and  C_5
REMARK    6  A    between atoms: C_8  and  C_9
REMARK    7  A    between atoms: C_18  and  C_19
REMARK                            x       y       z     vdW  Elec       q    Type
REMARK                         _______ _______ _______ _____ _____    ______ ____
ROOT
ATOM      1  O   UNL     1      43.690   4.854   9.602  0.00  0.00    +0.000 OA
ENDROOT
BRANCH   1   2
ATOM      2  C   UNL     1      44.601   3.964   9.074  0.00  0.00    +0.000 A 
ATOM      3  C   UNL     1      44.608   2.663   9.573  0.00  0.00    +0.000 A 
ATOM      4  N   UNL     1      45.408   1.680   9.076  0.00  0.00    +0.000 NA
ATOM      5  C   UNL     1      46.213   2.081   8.049  0.00  0.00    +0.000 A 
ATOM      6  C   UNL     1      46.224   3.381   7.572  0.00  0.00    +0.000 A 
ATOM      7  N   UNL     1      45.419   4.353   8.073  0.00  0.00    +0.000 NA
BRANCH   5   8
ATOM      8  C   UNL     1      47.072   1.057   7.391  0.00  0.00    +0.000 C 
ATOM      9  N   UNL     1      46.787  -0.249   7.682  0.00  0.00    +0.000 N 
ATOM     10  O   UNL     1      47.974   1.367   6.622  0.00  0.00    +0.000 OA
ATOM     11  H   UNL     1      46.023  -0.483   8.302  0.00  0.00    +0.000 HD
ATOM     12  H   UNL     1      47.321  -0.977   7.230  0.00  0.00    +0.000 HD
ENDBRANCH   5   8
ENDBRANCH   1   2
BRANCH   1  13
ATOM     13  C   UNL     1      43.919   5.135  10.991  0.00  0.00    +0.000 C 
BRANCH  13  15
ATOM     14  C   UNL     1      44.444   7.610  11.235  0.00  0.00    +0.000 C 
ATOM     15  C   UNL     1      45.030   6.197  11.128  0.00  0.00    +0.000 C 
BRANCH  15  16
ATOM     16  C   UNL     1      45.971   5.885  12.286  0.00  0.00    +0.000 A 
ATOM     17  C   UNL     1      45.686   4.820  13.154  0.00  0.00    +0.000 A 
ATOM     18  C   UNL     1      46.516   4.540  14.242  0.00  0.00    +0.000 A 
ATOM     19  C   UNL     1      47.649   5.318  14.479  0.00  0.00    +0.000 A 
ATOM     20  C   UNL     1      47.961   6.372  13.620  0.00  0.00    +0.000 A 
ATOM     21  C   UNL     1      47.127   6.652  12.527  0.00  0.00    +0.000 A 
BRANCH  20  22
ATOM     22  C   UNL     1      49.135   7.170  13.855  0.00  0.00    +0.000 C 
ATOM     23  N   UNL     1      50.082   7.809  14.045  0.00  0.00    +0.000 NA
ENDBRANCH  20  22
ENDBRANCH  15  16
ENDBRANCH  13  15
ENDBRANCH   1  13
TORSDOF 6
ENDMDL
MODEL 3
REMARK VINA RESULT:    -7.045      2.116      2.941
REMARK INTER + INTRA:         -10.236
REMARK INTER:                  -9.585
REMARK INTRA:                  -0.650
REMARK UNBOUND:                -0.720
REMARK  Name = 
REMARK  7 active torsions:
REMARK  status: ('A' for Active; 'I' for Inactive)
REMARK    1  A    between atoms: C_1  and  C_2
REMARK    2  A    between atoms: C_2  and  C_3
REMARK    3  A    between atoms: C_2  and  C_14
REMARK    4  A    between atoms: C_3  and  O_4
REMARK    5  A    between atoms: O_4  and  C_5
REMARK    6  A    between atoms: C_8  and  C_9
REMARK    7  A    between atoms: C_18  and  C_19
REMARK                            x       y       z     vdW  Elec       q    Type
REMARK                         _______ _______ _______ _____ _____    ______ ____
ROOT
ATOM      1  O   UNL     1      43.705   4.418   9.619  0.00  0.00    +0.000 OA
ENDROOT
BRANCH   1   2
ATOM      2  C   UNL     1      44.773   3.916   8.907  0.00  0.00    +0.000 A 
ATOM      3  C   UNL     1      44.942   2.534   8.871  0.00  0.00    +0.000 A 
ATOM      4  N   UNL     1      45.914   1.922   8.139  0.00  0.00    +0.000 NA
ATOM      5  C   UNL     1      46.717   2.782   7.447  0.00  0.00    +0.000 A 
ATOM      6  C   UNL     1      46.565   4.157   7.507  0.00  0.00    +0.000 A 
ATOM      7  N   UNL     1      45.590   4.757   8.237  0.00  0.00    +0.000 NA
BRANCH   5   8
ATOM      8  C   UNL     1      47.764   2.203   6.560  0.00  0.00    +0.000 C 
ATOM      9  N   UNL     1      48.009   2.877   5.395  0.00  0.00    +0.000 N 
ATOM     10  O   UNL     1      48.381   1.189   6.863  0.00  0.00    +0.000 OA
ATOM     11  H   UNL     1      47.504   3.725   5.175  0.00  0.00    +0.000 HD
ATOM     12  H   UNL     1      48.736   2.541   4.780  0.00  0.00    +0.000 HD
ENDBRANCH   5   8
ENDBRANCH   1   2
BRANCH   1  13
ATOM     13  C   UNL     1      43.675   3.968  10.982  0.00  0.00    +0.000 C 
BRANCH  13  15
ATOM     14  C   UNL     1      43.001   4.721  13.314  0.00  0.00    +0.000 C 
ATOM     15  C   UNL     1      43.448   5.173  11.919  0.00  0.00    +0.000 C 
BRANCH  15  16
ATOM     16  C   UNL     1      44.673   6.078  11.983  0.00  0.00    +0.000 A 
ATOM     17  C   UNL     1      45.949   5.521  12.160  0.00  0.00    +0.000 A 
ATOM     18  C   UNL     1      47.080   6.335  12.258  0.00  0.00    +0.000 A 
ATOM     19  C   UNL     1      46.956   7.721  12.176  0.00  0.00    +0.000 A 
ATOM     20  C   UNL     1      45.700   8.297  11.984  0.00  0.00    +0.000 A 
ATOM     21  C   UNL     1      44.565   7.478  11.885  0.00  0.00    +0.000 A 
BRANCH  20  22
ATOM     22  C   UNL     1      45.570   9.726  11.887  0.00  0.00    +0.000 C 
ATOM     23  N   UNL     1      45.468  10.878  11.806  0.00  0.00    +0.000 NA
ENDBRANCH  20  22
ENDBRANCH  15  16
ENDBRANCH  13  15
ENDBRANCH   1  13
TORSDOF 6
ENDMDL
MODEL 4
REMARK VINA RESULT:    -6.507      2.794      5.983
REMARK INTER + INTRA:          -9.509
REMARK INTER:                  -8.889
REMARK INTRA:                  -0.620
REMARK UNBOUND:                -0.720
REMARK  Name = 
REMARK  7 active torsions:
REMARK  status: ('A' for Active; 'I' for Inactive)
REMARK    1  A    between atoms: C_1  and  C_2
REMARK    2  A    between atoms: C_2  and  C_3
REMARK    3  A    between atoms: C_2  and  C_14
REMARK    4  A    between atoms: C_3  and  O_4
REMARK    5  A    between atoms: O_4  and  C_5
REMARK    6  A    between atoms: C_8  and  C_9
REMARK    7  A    between atoms: C_18  and  C_19
REMARK                            x       y       z     vdW  Elec       q    Type
REMARK                         _______ _______ _______ _____ _____    ______ ____
ROOT
ATOM      1  O   UNL     1      44.143   5.866  12.560  0.00  0.00    +0.000 OA
ENDROOT
BRANCH   1   2
ATOM      2  C   UNL     1      45.452   6.297  12.595  0.00  0.00    +0.000 A 
ATOM      3  C   UNL     1      46.344   5.612  13.417  0.00  0.00    +0.000 A 
ATOM      4  N   UNL     1      47.674   5.899  13.473  0.00  0.00    +0.000 NA
ATOM      5  C   UNL     1      48.059   6.926  12.660  0.00  0.00    +0.000 A 
ATOM      6  C   UNL     1      47.166   7.624  11.865  0.00  0.00    +0.000 A 
ATOM      7  N   UNL     1      45.842   7.327  11.812  0.00  0.00    +0.000 NA
BRANCH   5   8
ATOM      8  C   UNL     1      49.508   7.266  12.599  0.00  0.00    +0.000 C 
ATOM      9  N   UNL     1      50.176   7.281  13.792  0.00  0.00    +0.000 N 
ATOM     10  O   UNL     1      50.072   7.505  11.538  0.00  0.00    +0.000 OA
ATOM     11  H   UNL     1      49.696   7.059  14.654  0.00  0.00    +0.000 HD
ATOM     12  H   UNL     1      51.168   7.471  13.794  0.00  0.00    +0.000 HD
ENDBRANCH   5   8
ENDBRANCH   1   2
BRANCH   1  13
ATOM     13  C   UNL     1      43.784   5.259  11.310  0.00  0.00    +0.000 C 
BRANCH  13  15
ATOM     14  C   UNL     1      43.294   2.774  11.521  0.00  0.00    +0.000 C 
ATOM     15  C   UNL     1      44.368   3.832  11.242  0.00  0.00    +0.000 C 
BRANCH  15  16
ATOM     16  C   UNL     1      45.085   3.577   9.921  0.00  0.00    +0.000 A 
ATOM     17  C   UNL     1      45.381   4.649   9.065  0.00  0.00    +0.000 A 
ATOM     18  C   UNL     1      46.004   4.432   7.833  0.00  0.00    +0.000 A 
ATOM     19  C   UNL     1      46.347   3.140   7.438  0.00  0.00    +0.000 A 
ATOM     20  C   UNL     1      46.077   2.060   8.280  0.00  0.00    +0.000 A 
ATOM     21  C   UNL     1      45.451   2.279   9.517  0.00  0.00    +0.000 A 
BRANCH  20  22
ATOM     22  C   UNL     1      46.440   0.727   7.881  0.00  0.00    +0.000 C 
ATOM     23  N   UNL     1      46.735  -0.347   7.562  0.00  0.00    +0.000 NA
ENDBRANCH  20  22
ENDBRANCH  15  16
ENDBRANCH  13  15
ENDBRANCH   1  13
TORSDOF 6
ENDMDL
MODEL 5
REMARK VINA RESULT:    -6.357      2.588      6.890
REMARK INTER + INTRA:          -9.307
REMARK INTER:                  -8.900
REMARK INTRA:                  -0.407
REMARK UNBOUND:                -0.720
REMARK  Name = 
REMARK  7 active torsions:
REMARK  status: ('A' for Active; 'I' for Inactive)
REMARK    1  A    between atoms: C_1  and  C_2
REMARK    2  A    between atoms: C_2  and  C_3
REMARK    3  A    between atoms: C_2  and  C_14
REMARK    4  A    between atoms: C_3  and  O_4
REMARK    5  A    between atoms: O_4  and  C_5
REMARK    6  A    between atoms: C_8  and  C_9
REMARK    7  A    between atoms: C_18  and  C_19
REMARK                            x       y       z     vdW  Elec       q    Type
REMARK                         _______ _______ _______ _____ _____    ______ ____
ROOT
ATOM      1  O   UNL     1      46.044   3.950  12.211  0.00  0.00    +0.000 OA
ENDROOT
BRANCH   1   2
ATOM      2  C   UNL     1      46.698   4.221  13.394  0.00  0.00    +0.000 A 
ATOM      3  C   UNL     1      47.083   5.537  13.640  0.00  0.00    +0.000 A 
ATOM      4  N   UNL     1      47.665   5.935  14.805  0.00  0.00    +0.000 NA
ATOM      5  C   UNL     1      47.849   4.930  15.710  0.00  0.00    +0.000 A 
ATOM      6  C   UNL     1      47.491   3.618  15.452  0.00  0.00    +0.000 A 
ATOM      7  N   UNL     1      46.907   3.232  14.289  0.00  0.00    +0.000 NA
BRANCH   5   8
ATOM      8  C   UNL     1      48.414   5.282  17.043  0.00  0.00    +0.000 C 
ATOM      9  N   UNL     1      49.682   5.794  17.047  0.00  0.00    +0.000 N 
ATOM     10  O   UNL     1      47.772   5.135  18.077  0.00  0.00    +0.000 OA
ATOM     11  H   UNL     1      50.185   5.929  16.180  0.00  0.00    +0.000 HD
ATOM     12  H   UNL     1      50.091   6.080  17.925  0.00  0.00    +0.000 HD
ENDBRANCH   5   8
ENDBRANCH   1   2
BRANCH   1  13
ATOM     13  C   UNL     1      44.711   3.455  12.405  0.00  0.00    +0.000 C 
BRANCH  13  15
ATOM     14  C   UNL     1      43.154   4.954  11.067  0.00  0.00    +0.000 C 
ATOM     15  C   UNL     1      43.904   3.617  11.100  0.00  0.00    +0.000 C 
BRANCH  15  16
ATOM     16  C   UNL     1      44.781   3.429   9.867  0.00  0.00    +0.000 A 
ATOM     17  C   UNL     1      45.155   4.541   9.097  0.00  0.00    +0.000 A 
ATOM     18  C   UNL     1      45.927   4.387   7.943  0.00  0.00    +0.000 A 
ATOM     19  C   UNL     1      46.343   3.118   7.541  0.00  0.00    +0.000 A 
ATOM     20  C   UNL     1      45.997   2.000   8.300  0.00  0.00    +0.000 A 
ATOM     21  C   UNL     1      45.221   2.156   9.459  0.00  0.00    +0.000 A 
BRANCH  20  22
ATOM     22  C   UNL     1      46.434   0.691   7.895  0.00  0.00    +0.000 C 
ATOM     23  N   UNL     1      46.790  -0.364   7.571  0.00  0.00    +0.000 NA
ENDBRANCH  20  22
ENDBRANCH  15  16
ENDBRANCH  13  15
ENDBRANCH   1  13
TORSDOF 6
ENDMDL
MODEL 6
REMARK VINA RESULT:    -6.120      2.761      7.209
REMARK INTER + INTRA:          -8.987
REMARK INTER:                  -8.512
REMARK INTRA:                  -0.475
REMARK UNBOUND:                -0.720
REMARK  Name = 
REMARK  7 active torsions:
REMARK  status: ('A' for Active; 'I' for Inactive)
REMARK    1  A    between atoms: C_1  and  C_2
REMARK    2  A    between atoms: C_2  and  C_3
REMARK    3  A    between atoms: C_2  and  C_14
REMARK    4  A    between atoms: C_3  and  O_4
REMARK    5  A    between atoms: O_4  and  C_5
REMARK    6  A    between atoms: C_8  and  C_9
REMARK    7  A    between atoms: C_18  and  C_19
REMARK                            x       y       z     vdW  Elec       q    Type
REMARK                         _______ _______ _______ _____ _____    ______ ____
ROOT
ATOM      1  O   UNL     1      47.627   5.757  12.538  0.00  0.00    +0.000 OA
ENDROOT
BRANCH   1   2
ATOM      2  C   UNL     1      47.609   5.457  13.883  0.00  0.00    +0.000 A 
ATOM      3  C   UNL     1      46.846   4.368  14.300  0.00  0.00    +0.000 A 
ATOM      4  N   UNL     1      46.815   3.932  15.589  0.00  0.00    +0.000 NA
ATOM      5  C   UNL     1      47.590   4.661  16.445  0.00  0.00    +0.000 A 
ATOM      6  C   UNL     1      48.326   5.759  16.033  0.00  0.00    +0.000 A 
ATOM      7  N   UNL     1      48.354   6.183  14.744  0.00  0.00    +0.000 NA
BRANCH   5   8
ATOM      8  C   UNL     1      47.677   4.216  17.864  0.00  0.00    +0.000 C 
ATOM      9  N   UNL     1      47.026   4.993  18.782  0.00  0.00    +0.000 N 
ATOM     10  O   UNL     1      48.284   3.202  18.188  0.00  0.00    +0.000 OA
ATOM     11  H   UNL     1      46.512   5.814  18.490  0.00  0.00    +0.000 HD
ATOM     12  H   UNL     1      47.028   4.709  19.751  0.00  0.00    +0.000 HD
ENDBRANCH   5   8
ENDBRANCH   1   2
BRANCH   1  13
ATOM     13  C   UNL     1      47.058   7.042  12.241  0.00  0.00    +0.000 C 
BRANCH  13  15
ATOM     14  C   UNL     1      44.878   8.239  11.717  0.00  0.00    +0.000 C 
ATOM     15  C   UNL     1      45.522   6.920  12.162  0.00  0.00    +0.000 C 
BRANCH  15  16
ATOM     16  C   UNL     1      45.091   5.754  11.279  0.00  0.00    +0.000 A 
ATOM     17  C   UNL     1      44.091   4.873  11.718  0.00  0.00    +0.000 A 
ATOM     18  C   UNL     1      43.709   3.778  10.940  0.00  0.00    +0.000 A 
ATOM     19  C   UNL     1      44.316   3.547   9.706  0.00  0.00    +0.000 A 
ATOM     20  C   UNL     1      45.301   4.419   9.242  0.00  0.00    +0.000 A 
ATOM     21  C   UNL     1      45.684   5.519  10.024  0.00  0.00    +0.000 A 
BRANCH  20  22
ATOM     22  C   UNL     1      45.921   4.190   7.964  0.00  0.00    +0.000 C 
ATOM     23  N   UNL     1      46.421   4.010   6.935  0.00  0.00    +0.000 NA
ENDBRANCH  20  22
ENDBRANCH  15  16
ENDBRANCH  13  15
ENDBRANCH   1  13
TORSDOF 6
ENDMDL
MODEL 7
REMARK VINA RESULT:    -6.116      2.923      7.448
REMARK INTER + INTRA:          -8.981
REMARK INTER:                  -8.463
REMARK INTRA:                  -0.518
REMARK UNBOUND:                -0.720
REMARK  Name = 
REMARK  7 active torsions:
REMARK  status: ('A' for Active; 'I' for Inactive)
REMARK    1  A    between atoms: C_1  and  C_2
REMARK    2  A    between atoms: C_2  and  C_3
REMARK    3  A    between atoms: C_2  and  C_14
REMARK    4  A    between atoms: C_3  and  O_4
REMARK    5  A    between atoms: O_4  and  C_5
REMARK    6  A    between atoms: C_8  and  C_9
REMARK    7  A    between atoms: C_18  and  C_19
REMARK                            x       y       z     vdW  Elec       q    Type
REMARK                         _______ _______ _______ _____ _____    ______ ____
ROOT
ATOM      1  O   UNL     1      46.660   5.126  13.179  0.00  0.00    +0.000 OA
ENDROOT
BRANCH   1   2
ATOM      2  C   UNL     1      47.233   4.836  14.399  0.00  0.00    +0.000 A 
ATOM      3  C   UNL     1      48.060   5.796  14.978  0.00  0.00    +0.000 A 
ATOM      4  N   UNL     1      48.617   5.651  16.211  0.00  0.00    +0.000 NA
ATOM      5  C   UNL     1      48.303   4.477  16.832  0.00  0.00    +0.000 A 
ATOM      6  C   UNL     1      47.503   3.512  16.244  0.00  0.00    +0.000 A 
ATOM      7  N   UNL     1      46.949   3.668  15.015  0.00  0.00    +0.000 NA
BRANCH   5   8
ATOM      8  C   UNL     1      48.808   4.259  18.217  0.00  0.00    +0.000 C 
ATOM      9  N   UNL     1      48.260   3.209  18.901  0.00  0.00    +0.000 N 
ATOM     10  O   UNL     1      49.674   4.971  18.709  0.00  0.00    +0.000 OA
ATOM     11  H   UNL     1      47.562   2.619  18.468  0.00  0.00    +0.000 HD
ATOM     12  H   UNL     1      48.599   3.002  19.830  0.00  0.00    +0.000 HD
ENDBRANCH   5   8
ENDBRANCH   1   2
BRANCH   1  13
ATOM     13  C   UNL     1      45.280   5.510  13.283  0.00  0.00    +0.000 C 
BRANCH  13  15
ATOM     14  C   UNL     1      45.572   7.095  11.317  0.00  0.00    +0.000 C 
ATOM     15  C   UNL     1      44.756   5.931  11.894  0.00  0.00    +0.000 C 
BRANCH  15  16
ATOM     16  C   UNL     1      44.695   4.751  10.931  0.00  0.00    +0.000 A 
ATOM     17  C   UNL     1      44.013   3.581  11.298  0.00  0.00    +0.000 A 
ATOM     18  C   UNL     1      43.976   2.475  10.445  0.00  0.00    +0.000 A 
ATOM     19  C   UNL     1      44.616   2.521   9.207  0.00  0.00    +0.000 A 
ATOM     20  C   UNL     1      45.287   3.680   8.814  0.00  0.00    +0.000 A 
ATOM     21  C   UNL     1      45.323   4.790   9.671  0.00  0.00    +0.000 A 
BRANCH  20  22
ATOM     22  C   UNL     1      45.938   3.736   7.533  0.00  0.00    +0.000 C 
ATOM     23  N   UNL     1      46.466   3.780   6.502  0.00  0.00    +0.000 NA
ENDBRANCH  20  22
ENDBRANCH  15  16
ENDBRANCH  13  15
ENDBRANCH   1  13
TORSDOF 6
ENDMDL
MODEL 8
REMARK VINA RESULT:    -6.015      3.912      6.218
REMARK INTER + INTRA:          -8.845
REMARK INTER:                  -8.322
REMARK INTRA:                  -0.523
REMARK UNBOUND:                -0.720
REMARK  Name = 
REMARK  7 active torsions:
REMARK  status: ('A' for Active; 'I' for Inactive)
REMARK    1  A    between atoms: C_1  and  C_2
REMARK    2  A    between atoms: C_2  and  C_3
REMARK    3  A    between atoms: C_2  and  C_14
REMARK    4  A    between atoms: C_3  and  O_4
REMARK    5  A    between atoms: O_4  and  C_5
REMARK    6  A    between atoms: C_8  and  C_9
REMARK    7  A    between atoms: C_18  and  C_19
REMARK                            x       y       z     vdW  Elec       q    Type
REMARK                         _______ _______ _______ _____ _____    ______ ____
ROOT
ATOM      1  O   UNL     1      47.696   4.087  14.835  0.00  0.00    +0.000 OA
ENDROOT
BRANCH   1   2
ATOM      2  C   UNL     1      46.719   4.277  13.881  0.00  0.00    +0.000 A 
ATOM      3  C   UNL     1      46.382   5.586  13.542  0.00  0.00    +0.000 A 
ATOM      4  N   UNL     1      45.489   5.894  12.562  0.00  0.00    +0.000 NA
ATOM      5  C   UNL     1      44.941   4.807  11.943  0.00  0.00    +0.000 A 
ATOM      6  C   UNL     1      45.256   3.507  12.301  0.00  0.00    +0.000 A 
ATOM      7  N   UNL     1      46.152   3.211  13.277  0.00  0.00    +0.000 NA
BRANCH   5   8
ATOM      8  C   UNL     1      44.006   5.043  10.808  0.00  0.00    +0.000 C 
ATOM      9  N   UNL     1      43.256   6.185  10.871  0.00  0.00    +0.000 N 
ATOM     10  O   UNL     1      43.926   4.267   9.864  0.00  0.00    +0.000 OA
ATOM     11  H   UNL     1      43.355   6.824  11.648  0.00  0.00    +0.000 HD
ATOM     12  H   UNL     1      42.635   6.404  10.105  0.00  0.00    +0.000 HD
ENDBRANCH   5   8
ENDBRANCH   1   2
BRANCH   1  13
ATOM     13  C   UNL     1      47.624   5.035  15.911  0.00  0.00    +0.000 C 
BRANCH  13  15
ATOM     14  C   UNL     1      47.276   2.999  17.392  0.00  0.00    +0.000 C 
ATOM     15  C   UNL     1      48.002   4.341  17.236  0.00  0.00    +0.000 C 
BRANCH  15  16
ATOM     16  C   UNL     1      49.511   4.188  17.384  0.00  0.00    +0.000 A 
ATOM     17  C   UNL     1      50.340   5.319  17.325  0.00  0.00    +0.000 A 
ATOM     18  C   UNL     1      51.729   5.196  17.421  0.00  0.00    +0.000 A 
ATOM     19  C   UNL     1      52.313   3.940  17.583  0.00  0.00    +0.000 A 
ATOM     20  C   UNL     1      51.508   2.803  17.662  0.00  0.00    +0.000 A 
ATOM     21  C   UNL     1      50.113   2.928  17.565  0.00  0.00    +0.000 A 
BRANCH  20  22
ATOM     22  C   UNL     1      52.106   1.508  17.841  0.00  0.00    +0.000 C 
ATOM     23  N   UNL     1      52.591   0.465  17.984  0.00  0.00    +0.000 NA
ENDBRANCH  20  22
ENDBRANCH  15  16
ENDBRANCH  13  15
ENDBRANCH   1  13
TORSDOF 6
ENDMDL
MODEL 9
REMARK VINA RESULT:    -5.803      3.102      5.070
REMARK INTER + INTRA:          -8.558
REMARK INTER:                  -7.923
REMARK INTRA:                  -0.635
REMARK UNBOUND:                -0.720
REMARK  Name = 
REMARK  7 active torsions:
REMARK  status: ('A' for Active; 'I' for Inactive)
REMARK    1  A    between atoms: C_1  and  C_2
REMARK    2  A    between atoms: C_2  and  C_3
REMARK    3  A    between atoms: C_2  and  C_14
REMARK    4  A    between atoms: C_3  and  O_4
REMARK    5  A    between atoms: O_4  and  C_5
REMARK    6  A    between atoms: C_8  and  C_9
REMARK    7  A    between atoms: C_18  and  C_19
REMARK                            x       y       z     vdW  Elec       q    Type
REMARK                         _______ _______ _______ _____ _____    ______ ____
ROOT
ATOM      1  O   UNL     1      47.112   7.261  12.754  0.00  0.00    +0.000 OA
ENDROOT
BRANCH   1   2
ATOM      2  C   UNL     1      46.288   6.227  12.362  0.00  0.00    +0.000 A 
ATOM      3  C   UNL     1      46.033   6.075  11.001  0.00  0.00    +0.000 A 
ATOM      4  N   UNL     1      45.299   5.047  10.492  0.00  0.00    +0.000 NA
ATOM      5  C   UNL     1      44.825   4.179  11.433  0.00  0.00    +0.000 A 
ATOM      6  C   UNL     1      45.057   4.348  12.788  0.00  0.00    +0.000 A 
ATOM      7  N   UNL     1      45.794   5.374  13.285  0.00  0.00    +0.000 NA
BRANCH   5   8
ATOM      8  C   UNL     1      44.071   2.982  10.967  0.00  0.00    +0.000 C 
ATOM      9  N   UNL     1      44.675   2.227   9.999  0.00  0.00    +0.000 N 
ATOM     10  O   UNL     1      42.979   2.682  11.434  0.00  0.00    +0.000 OA
ATOM     11  H   UNL     1      45.588   2.480   9.643  0.00  0.00    +0.000 HD
ATOM     12  H   UNL     1      44.217   1.386   9.679  0.00  0.00    +0.000 HD
ENDBRANCH   5   8
ENDBRANCH   1   2
BRANCH   1  13
ATOM     13  C   UNL     1      48.467   6.846  12.978  0.00  0.00    +0.000 C 
BRANCH  13  15
ATOM     14  C   UNL     1      48.187   8.811  14.566  0.00  0.00    +0.000 C 
ATOM     15  C   UNL     1      49.038   7.587  14.206  0.00  0.00    +0.000 C 
BRANCH  15  16
ATOM     16  C   UNL     1      49.217   6.652  15.396  0.00  0.00    +0.000 A 
ATOM     17  C   UNL     1      50.389   6.713  16.166  0.00  0.00    +0.000 A 
ATOM     18  C   UNL     1      50.589   5.841  17.239  0.00  0.00    +0.000 A 
ATOM     19  C   UNL     1      49.618   4.895  17.564  0.00  0.00    +0.000 A 
ATOM     20  C   UNL     1      48.437   4.827  16.824  0.00  0.00    +0.000 A 
ATOM     21  C   UNL     1      48.238   5.704  15.747  0.00  0.00    +0.000 A 
BRANCH  20  22
ATOM     22  C   UNL     1      47.428   3.860  17.164  0.00  0.00    +0.000 C 
ATOM     23  N   UNL     1      46.617   3.079  17.436  0.00  0.00    +0.000 NA
ENDBRANCH  20  22
ENDBRANCH  15  16
ENDBRANCH  13  15
ENDBRANCH   1  13
TORSDOF 6
ENDMDL
