MODEL 1
REMARK VINA RESULT:    -9.218      0.000      0.000
REMARK INTER + INTRA:         -13.369
REMARK INTER:                 -12.451
REMARK INTRA:                  -0.918
REMARK UNBOUND:                -0.918
REMARK  Name = 
REMARK  6 active torsions:
REMARK  status: ('A' for Active; 'I' for Inactive)
REMARK    1  A    between atoms: C_2  and  C_4
REMARK    2  A    between atoms: C_7  and  N_8
REMARK    3  A    between atoms: N_8  and  C_9
REMARK    4  A    between atoms: C_9  and  C_10
REMARK    5  A    between atoms: C_10  and  C_13
REMARK    6  A    between atoms: C_15  and  C_16
REMARK                            x       y       z     vdW  Elec       q    Type
REMARK                         _______ _______ _______ _____ _____    ______ ____
ROOT
ATOM      1  C   UNL     1      43.320   5.086  12.518  0.00  0.00    +0.000 C 
ATOM      2  F   UNL     1      42.707   6.264  12.202  0.00  0.00    +0.000 F 
ATOM      3  F   UNL     1      42.595   4.581  13.572  0.00  0.00    +0.000 F 
ENDROOT
BRANCH   1   4
ATOM      4  C   UNL     1      44.786   5.289  12.882  0.00  0.00    +0.000 A 
ATOM      5  C   UNL     1      45.446   6.434  12.437  0.00  0.00    +0.000 A 
ATOM      6  C   UNL     1      46.795   6.649  12.762  0.00  0.00    +0.000 A 
ATOM      7  C   UNL     1      47.431   5.658  13.523  0.00  0.00    +0.000 A 
ATOM      8  C   UNL     1      46.720   4.537  13.910  0.00  0.00    +0.000 A 
ATOM      9  N   UNL     1      45.423   4.335  13.614  0.00  0.00    +0.000 NA
BRANCH   6  10
ATOM     10  C   UNL     1      47.506   7.866  12.316  0.00  0.00    +0.000 A 
ATOM     11  C   UNL     1      48.856   7.845  11.931  0.00  0.00    +0.000 A 
ATOM     12  C   UNL     1      49.504   9.015  11.535  0.00  0.00    +0.000 A 
ATOM     13  C   UNL     1      48.780  10.192  11.518  0.00  0.00    +0.000 A 
ATOM     14  N   UNL     1      47.482  10.271  11.866  0.00  0.00    +0.000 NA
ATOM     15  C   UNL     1      46.886   9.118  12.259  0.00  0.00    +0.000 A 
ENDBRANCH   6  10
ENDBRANCH   1   4
BRANCH   1  16
ATOM     16  C   UNL     1      43.181   4.094  11.341  0.00  0.00    +0.000 C 
BRANCH  16  17
ATOM     17  N   UNL     1      43.691   4.620  10.061  0.00  0.00    +0.000 N 
ATOM     18  H   UNL     1      42.998   5.096   9.486  0.00  0.00    +0.000 HD
BRANCH  17  22
ATOM     19  C   UNL     1      46.428   2.371   7.780  0.00  0.00    +0.000 A 
ATOM     20  C   UNL     1      46.390   3.759   7.632  0.00  0.00    +0.000 A 
ATOM     21  C   UNL     1      45.500   4.518   8.397  0.00  0.00    +0.000 A 
ATOM     22  C   UNL     1      44.655   3.921   9.342  0.00  0.00    +0.000 A 
ATOM     23  C   UNL     1      44.691   2.525   9.459  0.00  0.00    +0.000 A 
ATOM     24  C   UNL     1      45.564   1.752   8.685  0.00  0.00    +0.000 A 
BRANCH  19  26
ATOM     25  N   UNL     1      48.452   2.130   6.454  0.00  0.00    +0.000 N 
ATOM     26  C   UNL     1      47.340   1.526   6.969  0.00  0.00    +0.000 C 
ATOM     27  O   UNL     1      47.133   0.333   6.796  0.00  0.00    +0.000 OA
ATOM     28  H   UNL     1      49.120   1.521   5.998  0.00  0.00    +0.000 HD
ATOM     29  H   UNL     1      48.782   3.028   6.780  0.00  0.00    +0.000 HD
ENDBRANCH  19  26
ENDBRANCH  17  22
ENDBRANCH  16  17
ENDBRANCH   1  16
TORSDOF 6
ENDMDL
MODEL 2
REMARK VINA RESULT:    -8.678      1.896      3.499
REMARK INTER + INTRA:         -12.640
REMARK INTER:                 -11.707
REMARK INTRA:                  -0.933
REMARK UNBOUND:                -0.918
REMARK  Name = 
REMARK  6 active torsions:
REMARK  status: ('A' for Active; 'I' for Inactive)
REMARK    1  A    between atoms: C_2  and  C_4
REMARK    2  A    between atoms: C_7  and  N_8
REMARK    3  A    between atoms: N_8  and  C_9
REMARK    4  A    between atoms: C_9  and  C_10
REMARK    5  A    between atoms: C_10  and  C_13
REMARK    6  A    between atoms: C_15  and  C_16
REMARK                            x       y       z     vdW  Elec       q    Type
REMARK                         _______ _______ _______ _____ _____    ______ ____
ROOT
ATOM      1  C   UNL     1      43.683   5.257  12.189  0.00  0.00    +0.000 C 
ATOM      2  F   UNL     1      43.154   6.189  11.341  0.00  0.00    +0.000 F 
ATOM      3  F   UNL     1      42.875   5.290  13.300  0.00  0.00    +0.000 F 
ENDROOT
BRANCH   1   4
ATOM      4  C   UNL     1      45.136   5.563  12.532  0.00  0.00    +0.000 A 
ATOM      5  C   UNL     1      45.674   5.067  13.720  0.00  0.00    +0.000 A 
ATOM      6  C   UNL     1      47.012   5.328  14.058  0.00  0.00    +0.000 A 
ATOM      7  C   UNL     1      47.751   6.117  13.166  0.00  0.00    +0.000 A 
ATOM      8  C   UNL     1      47.144   6.595  12.018  0.00  0.00    +0.000 A 
ATOM      9  N   UNL     1      45.868   6.333  11.682  0.00  0.00    +0.000 NA
BRANCH   6  10
ATOM     10  C   UNL     1      47.606   4.793  15.302  0.00  0.00    +0.000 A 
ATOM     11  C   UNL     1      47.501   3.440  15.660  0.00  0.00    +0.000 A 
ATOM     12  C   UNL     1      48.055   2.971  16.851  0.00  0.00    +0.000 A 
ATOM     13  C   UNL     1      48.724   3.870  17.662  0.00  0.00    +0.000 A 
ATOM     14  N   UNL     1      48.866   5.175  17.365  0.00  0.00    +0.000 NA
ATOM     15  C   UNL     1      48.303   5.601  16.206  0.00  0.00    +0.000 A 
ENDBRANCH   6  10
ENDBRANCH   1   4
BRANCH   1  16
ATOM     16  C   UNL     1      43.554   3.851  11.561  0.00  0.00    +0.000 C 
BRANCH  16  17
ATOM     17  N   UNL     1      43.450   3.866  10.090  0.00  0.00    +0.000 N 
ATOM     18  H   UNL     1      42.550   3.565   9.720  0.00  0.00    +0.000 HD
BRANCH  17  22
ATOM     19  C   UNL     1      46.607   2.682   7.562  0.00  0.00    +0.000 A 
ATOM     20  C   UNL     1      46.287   4.037   7.671  0.00  0.00    +0.000 A 
ATOM     21  C   UNL     1      45.254   4.444   8.520  0.00  0.00    +0.000 A 
ATOM     22  C   UNL     1      44.542   3.523   9.300  0.00  0.00    +0.000 A 
ATOM     23  C   UNL     1      44.863   2.166   9.159  0.00  0.00    +0.000 A 
ATOM     24  C   UNL     1      45.882   1.744   8.298  0.00  0.00    +0.000 A 
BRANCH  19  26
ATOM     25  N   UNL     1      47.939   2.966   5.547  0.00  0.00    +0.000 N 
ATOM     26  C   UNL     1      47.679   2.206   6.653  0.00  0.00    +0.000 C 
ATOM     27  O   UNL     1      48.331   1.199   6.895  0.00  0.00    +0.000 OA
ATOM     28  H   UNL     1      48.743   2.691   4.997  0.00  0.00    +0.000 HD
ATOM     29  H   UNL     1      47.606   3.915   5.452  0.00  0.00    +0.000 HD
ENDBRANCH  19  26
ENDBRANCH  17  22
ENDBRANCH  16  17
ENDBRANCH   1  16
TORSDOF 6
ENDMDL
MODEL 3
REMARK VINA RESULT:    -8.656      1.533      2.276
REMARK INTER + INTRA:         -12.609
REMARK INTER:                 -11.351
REMARK INTRA:                  -1.259
REMARK UNBOUND:                -0.918
REMARK  Name = 
REMARK  6 active torsions:
REMARK  status: ('A' for Active; 'I' for Inactive)
REMARK    1  A    between atoms: C_2  and  C_4
REMARK    2  A    between atoms: C_7  and  N_8
REMARK    3  A    between atoms: N_8  and  C_9
REMARK    4  A    between atoms: C_9  and  C_10
REMARK    5  A    between atoms: C_10  and  C_13
REMARK    6  A    between atoms: C_15  and  C_16
REMARK                            x       y       z     vdW  Elec       q    Type
REMARK                         _______ _______ _______ _____ _____    ______ ____
ROOT
ATOM      1  C   UNL     1      44.501   4.461  12.476  0.00  0.00    +0.000 C 
ATOM      2  F   UNL     1      44.000   4.314  13.738  0.00  0.00    +0.000 F 
ATOM      3  F   UNL     1      45.463   3.486  12.360  0.00  0.00    +0.000 F 
ENDROOT
BRANCH   1   4
ATOM      4  C   UNL     1      45.075   5.856  12.253  0.00  0.00    +0.000 A 
ATOM      5  C   UNL     1      46.428   6.084  12.503  0.00  0.00    +0.000 A 
ATOM      6  C   UNL     1      46.984   7.357  12.301  0.00  0.00    +0.000 A 
ATOM      7  C   UNL     1      46.116   8.368  11.866  0.00  0.00    +0.000 A 
ATOM      8  C   UNL     1      44.780   8.074  11.660  0.00  0.00    +0.000 A 
ATOM      9  N   UNL     1      44.246   6.852  11.838  0.00  0.00    +0.000 NA
BRANCH   6  10
ATOM     10  C   UNL     1      48.421   7.613  12.540  0.00  0.00    +0.000 A 
ATOM     11  C   UNL     1      49.322   7.859  11.493  0.00  0.00    +0.000 A 
ATOM     12  C   UNL     1      50.675   8.077  11.751  0.00  0.00    +0.000 A 
ATOM     13  C   UNL     1      51.104   8.059  13.065  0.00  0.00    +0.000 A 
ATOM     14  N   UNL     1      50.284   7.839  14.111  0.00  0.00    +0.000 NA
ATOM     15  C   UNL     1      48.977   7.617  13.823  0.00  0.00    +0.000 A 
ENDBRANCH   6  10
ENDBRANCH   1   4
BRANCH   1  16
ATOM     16  C   UNL     1      43.398   4.153  11.439  0.00  0.00    +0.000 C 
BRANCH  16  17
ATOM     17  N   UNL     1      43.722   4.611  10.075  0.00  0.00    +0.000 N 
ATOM     18  H   UNL     1      42.960   5.075   9.585  0.00  0.00    +0.000 HD
BRANCH  17  22
ATOM     19  C   UNL     1      46.452   2.461   7.692  0.00  0.00    +0.000 A 
ATOM     20  C   UNL     1      45.634   1.771   8.589  0.00  0.00    +0.000 A 
ATOM     21  C   UNL     1      44.711   2.471   9.372  0.00  0.00    +0.000 A 
ATOM     22  C   UNL     1      44.560   3.860   9.258  0.00  0.00    +0.000 A 
ATOM     23  C   UNL     1      45.406   4.536   8.370  0.00  0.00    +0.000 A 
ATOM     24  C   UNL     1      46.348   3.849   7.594  0.00  0.00    +0.000 A 
BRANCH  19  26
ATOM     25  N   UNL     1      48.572   2.469   6.500  0.00  0.00    +0.000 N 
ATOM     26  C   UNL     1      47.462   1.759   6.861  0.00  0.00    +0.000 C 
ATOM     27  O   UNL     1      47.333   0.585   6.542  0.00  0.00    +0.000 OA
ATOM     28  H   UNL     1      49.301   1.948   6.029  0.00  0.00    +0.000 HD
ATOM     29  H   UNL     1      48.829   3.338   6.948  0.00  0.00    +0.000 HD
ENDBRANCH  19  26
ENDBRANCH  17  22
ENDBRANCH  16  17
ENDBRANCH   1  16
TORSDOF 6
ENDMDL
MODEL 4
REMARK VINA RESULT:    -8.008      2.047      2.368
REMARK INTER + INTRA:         -11.734
REMARK INTER:                 -10.989
REMARK INTRA:                  -0.745
REMARK UNBOUND:                -0.918
REMARK  Name = 
REMARK  6 active torsions:
REMARK  status: ('A' for Active; 'I' for Inactive)
REMARK    1  A    between atoms: C_2  and  C_4
REMARK    2  A    between atoms: C_7  and  N_8
REMARK    3  A    between atoms: N_8  and  C_9
REMARK    4  A    between atoms: C_9  and  C_10
REMARK    5  A    between atoms: C_10  and  C_13
REMARK    6  A    between atoms: C_15  and  C_16
REMARK                            x       y       z     vdW  Elec       q    Type
REMARK                         _______ _______ _______ _____ _____    ______ ____
ROOT
ATOM      1  C   UNL     1      44.911   6.372  11.451  0.00  0.00    +0.000 C 
ATOM      2  F   UNL     1      45.611   6.659  10.314  0.00  0.00    +0.000 F 
ATOM      3  F   UNL     1      44.253   7.537  11.766  0.00  0.00    +0.000 F 
ENDROOT
BRANCH   1   4
ATOM      4  C   UNL     1      45.826   5.912  12.581  0.00  0.00    +0.000 A 
ATOM      5  C   UNL     1      46.941   6.682  12.910  0.00  0.00    +0.000 A 
ATOM      6  C   UNL     1      47.797   6.286  13.950  0.00  0.00    +0.000 A 
ATOM      7  C   UNL     1      47.487   5.086  14.606  0.00  0.00    +0.000 A 
ATOM      8  C   UNL     1      46.377   4.362  14.210  0.00  0.00    +0.000 A 
ATOM      9  N   UNL     1      45.545   4.747  13.225  0.00  0.00    +0.000 NA
BRANCH   6  10
ATOM     10  C   UNL     1      48.973   7.099  14.328  0.00  0.00    +0.000 A 
ATOM     11  C   UNL     1      49.835   7.657  13.371  0.00  0.00    +0.000 A 
ATOM     12  C   UNL     1      50.948   8.403  13.761  0.00  0.00    +0.000 A 
ATOM     13  C   UNL     1      51.171   8.591  15.112  0.00  0.00    +0.000 A 
ATOM     14  N   UNL     1      50.372   8.090  16.074  0.00  0.00    +0.000 NA
ATOM     15  C   UNL     1      49.307   7.358  15.660  0.00  0.00    +0.000 A 
ENDBRANCH   6  10
ENDBRANCH   1   4
BRANCH   1  16
ATOM     16  C   UNL     1      43.839   5.301  11.146  0.00  0.00    +0.000 C 
BRANCH  16  17
ATOM     17  N   UNL     1      43.752   4.941   9.719  0.00  0.00    +0.000 N 
ATOM     18  H   UNL     1      42.805   4.892   9.345  0.00  0.00    +0.000 HD
BRANCH  17  22
ATOM     19  C   UNL     1      46.240   2.041   7.941  0.00  0.00    +0.000 A 
ATOM     20  C   UNL     1      46.426   3.389   7.629  0.00  0.00    +0.000 A 
ATOM     21  C   UNL     1      45.619   4.362   8.226  0.00  0.00    +0.000 A 
ATOM     22  C   UNL     1      44.637   4.021   9.166  0.00  0.00    +0.000 A 
ATOM     23  C   UNL     1      44.450   2.662   9.448  0.00  0.00    +0.000 A 
ATOM     24  C   UNL     1      45.238   1.677   8.842  0.00  0.00    +0.000 A 
BRANCH  19  26
ATOM     25  N   UNL     1      46.799  -0.312   7.689  0.00  0.00    +0.000 N 
ATOM     26  C   UNL     1      47.057   0.975   7.310  0.00  0.00    +0.000 C 
ATOM     27  O   UNL     1      47.900   1.226   6.459  0.00  0.00    +0.000 OA
ATOM     28  H   UNL     1      47.284  -1.035   7.172  0.00  0.00    +0.000 HD
ATOM     29  H   UNL     1      45.958  -0.573   8.184  0.00  0.00    +0.000 HD
ENDBRANCH  19  26
ENDBRANCH  17  22
ENDBRANCH  16  17
ENDBRANCH   1  16
TORSDOF 6
ENDMDL
MODEL 5
REMARK VINA RESULT:    -7.933      2.091      2.768
REMARK INTER + INTRA:         -11.633
REMARK INTER:                 -10.947
REMARK INTRA:                  -0.686
REMARK UNBOUND:                -0.918
REMARK  Name = 
REMARK  6 active torsions:
REMARK  status: ('A' for Active; 'I' for Inactive)
REMARK    1  A    between atoms: C_2  and  C_4
REMARK    2  A    between atoms: C_7  and  N_8
REMARK    3  A    between atoms: N_8  and  C_9
REMARK    4  A    between atoms: C_9  and  C_10
REMARK    5  A    between atoms: C_10  and  C_13
REMARK    6  A    between atoms: C_15  and  C_16
REMARK                            x       y       z     vdW  Elec       q    Type
REMARK                         _______ _______ _______ _____ _____    ______ ____
ROOT
ATOM      1  C   UNL     1      44.663   5.513  12.359  0.00  0.00    +0.000 C 
ATOM      2  F   UNL     1      43.728   5.314  13.335  0.00  0.00    +0.000 F 
ATOM      3  F   UNL     1      45.382   4.342  12.313  0.00  0.00    +0.000 F 
ENDROOT
BRANCH   1   4
ATOM      4  C   UNL     1      45.551   6.715  12.661  0.00  0.00    +0.000 A 
ATOM      5  C   UNL     1      46.729   6.527  13.385  0.00  0.00    +0.000 A 
ATOM      6  C   UNL     1      47.568   7.615  13.671  0.00  0.00    +0.000 A 
ATOM      7  C   UNL     1      47.153   8.875  13.221  0.00  0.00    +0.000 A 
ATOM      8  C   UNL     1      45.960   8.990  12.529  0.00  0.00    +0.000 A 
ATOM      9  N   UNL     1      45.161   7.948  12.238  0.00  0.00    +0.000 NA
BRANCH   6  10
ATOM     10  C   UNL     1      48.831   7.432  14.419  0.00  0.00    +0.000 A 
ATOM     11  C   UNL     1      48.902   6.666  15.593  0.00  0.00    +0.000 A 
ATOM     12  C   UNL     1      50.104   6.530  16.286  0.00  0.00    +0.000 A 
ATOM     13  C   UNL     1      51.228   7.157  15.780  0.00  0.00    +0.000 A 
ATOM     14  N   UNL     1      51.223   7.895  14.654  0.00  0.00    +0.000 NA
ATOM     15  C   UNL     1      50.034   8.018  14.012  0.00  0.00    +0.000 A 
ENDBRANCH   6  10
ENDBRANCH   1   4
BRANCH   1  16
ATOM     16  C   UNL     1      43.961   5.683  10.993  0.00  0.00    +0.000 C 
BRANCH  16  17
ATOM     17  N   UNL     1      43.696   4.408  10.301  0.00  0.00    +0.000 N 
ATOM     18  H   UNL     1      43.123   3.747  10.824  0.00  0.00    +0.000 HD
BRANCH  17  22
ATOM     19  C   UNL     1      46.471   2.496   7.773  0.00  0.00    +0.000 A 
ATOM     20  C   UNL     1      46.357   3.887   7.738  0.00  0.00    +0.000 A 
ATOM     21  C   UNL     1      45.453   4.534   8.585  0.00  0.00    +0.000 A 
ATOM     22  C   UNL     1      44.671   3.820   9.502  0.00  0.00    +0.000 A 
ATOM     23  C   UNL     1      44.783   2.424   9.506  0.00  0.00    +0.000 A 
ATOM     24  C   UNL     1      45.670   1.762   8.649  0.00  0.00    +0.000 A 
BRANCH  19  26
ATOM     25  N   UNL     1      48.465   2.468   6.380  0.00  0.00    +0.000 N 
ATOM     26  C   UNL     1      47.400   1.768   6.872  0.00  0.00    +0.000 C 
ATOM     27  O   UNL     1      47.246   0.583   6.608  0.00  0.00    +0.000 OA
ATOM     28  H   UNL     1      49.148   1.933   5.859  0.00  0.00    +0.000 HD
ATOM     29  H   UNL     1      48.759   3.352   6.771  0.00  0.00    +0.000 HD
ENDBRANCH  19  26
ENDBRANCH  17  22
ENDBRANCH  16  17
ENDBRANCH   1  16
TORSDOF 6
ENDMDL
MODEL 6
REMARK VINA RESULT:    -7.698      2.499      6.629
REMARK INTER + INTRA:         -11.315
REMARK INTER:                 -10.517
REMARK INTRA:                  -0.798
REMARK UNBOUND:                -0.918
REMARK  Name = 
REMARK  6 active torsions:
REMARK  status: ('A' for Active; 'I' for Inactive)
REMARK    1  A    between atoms: C_2  and  C_4
REMARK    2  A    between atoms: C_7  and  N_8
REMARK    3  A    between atoms: N_8  and  C_9
REMARK    4  A    between atoms: C_9  and  C_10
REMARK    5  A    between atoms: C_10  and  C_13
REMARK    6  A    between atoms: C_15  and  C_16
REMARK                            x       y       z     vdW  Elec       q    Type
REMARK                         _______ _______ _______ _____ _____    ______ ____
ROOT
ATOM      1  C   UNL     1      44.212   6.167  11.399  0.00  0.00    +0.000 C 
ATOM      2  F   UNL     1      42.969   6.725  11.303  0.00  0.00    +0.000 F 
ATOM      3  F   UNL     1      45.022   6.972  10.633  0.00  0.00    +0.000 F 
ENDROOT
BRANCH   1   4
ATOM      4  C   UNL     1      44.224   4.722  10.913  0.00  0.00    +0.000 A 
ATOM      5  C   UNL     1      44.993   4.384   9.800  0.00  0.00    +0.000 A 
ATOM      6  C   UNL     1      45.027   3.059   9.335  0.00  0.00    +0.000 A 
ATOM      7  C   UNL     1      44.243   2.123  10.024  0.00  0.00    +0.000 A 
ATOM      8  C   UNL     1      43.487   2.535  11.107  0.00  0.00    +0.000 A 
ATOM      9  N   UNL     1      43.464   3.800  11.565  0.00  0.00    +0.000 NA
BRANCH   6  10
ATOM     10  C   UNL     1      45.852   2.677   8.169  0.00  0.00    +0.000 A 
ATOM     11  C   UNL     1      46.095   3.558   7.103  0.00  0.00    +0.000 A 
ATOM     12  C   UNL     1      46.860   3.159   6.007  0.00  0.00    +0.000 A 
ATOM     13  C   UNL     1      47.386   1.881   6.004  0.00  0.00    +0.000 A 
ATOM     14  N   UNL     1      47.196   0.997   7.002  0.00  0.00    +0.000 NA
ATOM     15  C   UNL     1      46.435   1.412   8.046  0.00  0.00    +0.000 A 
ENDBRANCH   6  10
ENDBRANCH   1   4
BRANCH   1  16
ATOM     16  C   UNL     1      44.712   6.257  12.858  0.00  0.00    +0.000 C 
BRANCH  16  17
ATOM     17  N   UNL     1      45.374   7.535  13.179  0.00  0.00    +0.000 N 
ATOM     18  H   UNL     1      44.795   8.363  13.053  0.00  0.00    +0.000 HD
BRANCH  17  22
ATOM     19  C   UNL     1      49.445   7.914  12.158  0.00  0.00    +0.000 A 
ATOM     20  C   UNL     1      48.568   8.964  11.880  0.00  0.00    +0.000 A 
ATOM     21  C   UNL     1      47.219   8.858  12.231  0.00  0.00    +0.000 A 
ATOM     22  C   UNL     1      46.722   7.726  12.890  0.00  0.00    +0.000 A 
ATOM     23  C   UNL     1      47.612   6.674  13.139  0.00  0.00    +0.000 A 
ATOM     24  C   UNL     1      48.961   6.760  12.776  0.00  0.00    +0.000 A 
BRANCH  19  26
ATOM     25  N   UNL     1      51.785   8.100  12.794  0.00  0.00    +0.000 N 
ATOM     26  C   UNL     1      50.878   7.976  11.779  0.00  0.00    +0.000 C 
ATOM     27  O   UNL     1      51.243   7.885  10.615  0.00  0.00    +0.000 OA
ATOM     28  H   UNL     1      52.760   8.030  12.532  0.00  0.00    +0.000 HD
ATOM     29  H   UNL     1      51.544   7.925  13.760  0.00  0.00    +0.000 HD
ENDBRANCH  19  26
ENDBRANCH  17  22
ENDBRANCH  16  17
ENDBRANCH   1  16
TORSDOF 6
ENDMDL
MODEL 7
REMARK VINA RESULT:    -7.034      3.851      7.571
REMARK INTER + INTRA:         -10.419
REMARK INTER:                  -9.084
REMARK INTRA:                  -1.335
REMARK UNBOUND:                -0.918
REMARK  Name = 
REMARK  6 active torsions:
REMARK  status: ('A' for Active; 'I' for Inactive)
REMARK    1  A    between atoms: C_2  and  C_4
REMARK    2  A    between atoms: C_7  and  N_8
REMARK    3  A    between atoms: N_8  and  C_9
REMARK    4  A    between atoms: C_9  and  C_10
REMARK    5  A    between atoms: C_10  and  C_13
REMARK    6  A    between atoms: C_15  and  C_16
REMARK                            x       y       z     vdW  Elec       q    Type
REMARK                         _______ _______ _______ _____ _____    ______ ____
ROOT
ATOM      1  C   UNL     1      49.154   8.179  12.139  0.00  0.00    +0.000 C 
ATOM      2  F   UNL     1      49.378   9.526  12.104  0.00  0.00    +0.000 F 
ATOM      3  F   UNL     1      49.801   7.683  11.032  0.00  0.00    +0.000 F 
ENDROOT
BRANCH   1   4
ATOM      4  C   UNL     1      47.665   7.851  12.123  0.00  0.00    +0.000 A 
ATOM      5  C   UNL     1      47.218   6.749  11.394  0.00  0.00    +0.000 A 
ATOM      6  C   UNL     1      45.854   6.420  11.367  0.00  0.00    +0.000 A 
ATOM      7  C   UNL     1      44.983   7.258  12.077  0.00  0.00    +0.000 A 
ATOM      8  C   UNL     1      45.495   8.348  12.759  0.00  0.00    +0.000 A 
ATOM      9  N   UNL     1      46.804   8.657  12.801  0.00  0.00    +0.000 NA
BRANCH   6  10
ATOM     10  C   UNL     1      45.363   5.243  10.617  0.00  0.00    +0.000 A 
ATOM     11  C   UNL     1      45.642   5.056   9.255  0.00  0.00    +0.000 A 
ATOM     12  C   UNL     1      45.147   3.945   8.571  0.00  0.00    +0.000 A 
ATOM     13  C   UNL     1      44.388   3.027   9.273  0.00  0.00    +0.000 A 
ATOM     14  N   UNL     1      44.098   3.149  10.582  0.00  0.00    +0.000 NA
ATOM     15  C   UNL     1      44.583   4.248  11.213  0.00  0.00    +0.000 A 
ENDBRANCH   6  10
ENDBRANCH   1   4
BRANCH   1  16
ATOM     16  C   UNL     1      49.833   7.571  13.387  0.00  0.00    +0.000 C 
BRANCH  16  17
ATOM     17  N   UNL     1      49.125   7.863  14.648  0.00  0.00    +0.000 N 
ATOM     18  H   UNL     1      49.432   8.708  15.127  0.00  0.00    +0.000 HD
BRANCH  17  22
ATOM     19  C   UNL     1      48.032   4.577  17.048  0.00  0.00    +0.000 A 
ATOM     20  C   UNL     1      48.890   5.548  17.566  0.00  0.00    +0.000 A 
ATOM     21  C   UNL     1      49.245   6.653  16.786  0.00  0.00    +0.000 A 
ATOM     22  C   UNL     1      48.733   6.831  15.494  0.00  0.00    +0.000 A 
ATOM     23  C   UNL     1      47.892   5.833  14.984  0.00  0.00    +0.000 A 
ATOM     24  C   UNL     1      47.544   4.713  15.747  0.00  0.00    +0.000 A 
BRANCH  19  26
ATOM     25  N   UNL     1      48.384   3.109  18.954  0.00  0.00    +0.000 N 
ATOM     26  C   UNL     1      47.650   3.377  17.833  0.00  0.00    +0.000 C 
ATOM     27  O   UNL     1      46.699   2.675  17.519  0.00  0.00    +0.000 OA
ATOM     28  H   UNL     1      48.046   2.354  19.539  0.00  0.00    +0.000 HD
ATOM     29  H   UNL     1      48.998   3.791  19.376  0.00  0.00    +0.000 HD
ENDBRANCH  19  26
ENDBRANCH  17  22
ENDBRANCH  16  17
ENDBRANCH   1  16
TORSDOF 6
ENDMDL
MODEL 8
REMARK VINA RESULT:    -6.932      2.250      2.943
REMARK INTER + INTRA:         -10.282
REMARK INTER:                  -9.585
REMARK INTRA:                  -0.696
REMARK UNBOUND:                -0.918
REMARK  Name = 
REMARK  6 active torsions:
REMARK  status: ('A' for Active; 'I' for Inactive)
REMARK    1  A    between atoms: C_2  and  C_4
REMARK    2  A    between atoms: C_7  and  N_8
REMARK    3  A    between atoms: N_8  and  C_9
REMARK    4  A    between atoms: C_9  and  C_10
REMARK    5  A    between atoms: C_10  and  C_13
REMARK    6  A    between atoms: C_15  and  C_16
REMARK                            x       y       z     vdW  Elec       q    Type
REMARK                         _______ _______ _______ _____ _____    ______ ____
ROOT
ATOM      1  C   UNL     1      45.066   4.306  13.014  0.00  0.00    +0.000 C 
ATOM      2  F   UNL     1      45.054   4.108  14.365  0.00  0.00    +0.000 F 
ATOM      3  F   UNL     1      45.733   3.218  12.502  0.00  0.00    +0.000 F 
ENDROOT
BRANCH   1   4
ATOM      4  C   UNL     1      45.747   5.618  12.639  0.00  0.00    +0.000 A 
ATOM      5  C   UNL     1      44.963   6.709  12.265  0.00  0.00    +0.000 A 
ATOM      6  C   UNL     1      45.563   7.931  11.922  0.00  0.00    +0.000 A 
ATOM      7  C   UNL     1      46.964   7.982  11.952  0.00  0.00    +0.000 A 
ATOM      8  C   UNL     1      47.678   6.852  12.310  0.00  0.00    +0.000 A 
ATOM      9  N   UNL     1      47.106   5.685  12.656  0.00  0.00    +0.000 NA
BRANCH   6  10
ATOM     10  C   UNL     1      44.749   9.105  11.543  0.00  0.00    +0.000 A 
ATOM     11  C   UNL     1      43.638   9.002  10.691  0.00  0.00    +0.000 A 
ATOM     12  C   UNL     1      42.902  10.132  10.335  0.00  0.00    +0.000 A 
ATOM     13  C   UNL     1      43.286  11.355  10.855  0.00  0.00    +0.000 A 
ATOM     14  N   UNL     1      44.334  11.513  11.685  0.00  0.00    +0.000 NA
ATOM     15  C   UNL     1      45.036  10.395  11.999  0.00  0.00    +0.000 A 
ENDBRANCH   6  10
ENDBRANCH   1   4
BRANCH   1  16
ATOM     16  C   UNL     1      43.621   4.265  12.468  0.00  0.00    +0.000 C 
BRANCH  16  17
ATOM     17  N   UNL     1      43.422   3.277  11.392  0.00  0.00    +0.000 N 
ATOM     18  H   UNL     1      43.135   2.351  11.706  0.00  0.00    +0.000 HD
BRANCH  17  22
ATOM     19  C   UNL     1      45.761   3.115   7.891  0.00  0.00    +0.000 A 
ATOM     20  C   UNL     1      45.259   4.343   8.324  0.00  0.00    +0.000 A 
ATOM     21  C   UNL     1      44.497   4.413   9.494  0.00  0.00    +0.000 A 
ATOM     22  C   UNL     1      44.247   3.275  10.272  0.00  0.00    +0.000 A 
ATOM     23  C   UNL     1      44.739   2.048   9.809  0.00  0.00    +0.000 A 
ATOM     24  C   UNL     1      45.486   1.962   8.629  0.00  0.00    +0.000 A 
BRANCH  19  26
ATOM     25  N   UNL     1      47.123   1.779   6.383  0.00  0.00    +0.000 N 
ATOM     26  C   UNL     1      46.552   2.993   6.642  0.00  0.00    +0.000 C 
ATOM     27  O   UNL     1      46.663   3.923   5.854  0.00  0.00    +0.000 OA
ATOM     28  H   UNL     1      47.565   1.678   5.477  0.00  0.00    +0.000 HD
ATOM     29  H   UNL     1      46.847   0.937   6.868  0.00  0.00    +0.000 HD
ENDBRANCH  19  26
ENDBRANCH  17  22
ENDBRANCH  16  17
ENDBRANCH   1  16
TORSDOF 6
ENDMDL
MODEL 9
REMARK VINA RESULT:    -6.857      5.771      7.804
REMARK INTER + INTRA:         -10.180
REMARK INTER:                  -9.358
REMARK INTRA:                  -0.821
REMARK UNBOUND:                -0.918
REMARK  Name = 
REMARK  6 active torsions:
REMARK  status: ('A' for Active; 'I' for Inactive)
REMARK    1  A    between atoms: C_2  and  C_4
REMARK    2  A    between atoms: C_7  and  N_8
REMARK    3  A    between atoms: N_8  and  C_9
REMARK    4  A    between atoms: C_9  and  C_10
REMARK    5  A    between atoms: C_10  and  C_13
REMARK    6  A    between atoms: C_15  and  C_16
REMARK                            x       y       z     vdW  Elec       q    Type
REMARK                         _______ _______ _______ _____ _____    ______ ____
ROOT
ATOM      1  C   UNL     1      48.039   3.206  16.749  0.00  0.00    +0.000 C 
ATOM      2  F   UNL     1      47.470   2.527  17.789  0.00  0.00    +0.000 F 
ATOM      3  F   UNL     1      48.035   2.317  15.700  0.00  0.00    +0.000 F 
ENDROOT
BRANCH   1   4
ATOM      4  C   UNL     1      49.448   3.682  17.087  0.00  0.00    +0.000 A 
ATOM      5  C   UNL     1      50.412   2.746  17.458  0.00  0.00    +0.000 A 
ATOM      6  C   UNL     1      51.719   3.156  17.768  0.00  0.00    +0.000 A 
ATOM      7  C   UNL     1      51.985   4.531  17.708  0.00  0.00    +0.000 A 
ATOM      8  C   UNL     1      50.972   5.404  17.354  0.00  0.00    +0.000 A 
ATOM      9  N   UNL     1      49.723   5.014  17.040  0.00  0.00    +0.000 NA
BRANCH   6  10
ATOM     10  C   UNL     1      52.761   2.176  18.144  0.00  0.00    +0.000 A 
ATOM     11  C   UNL     1      52.831   0.899  17.565  0.00  0.00    +0.000 A 
ATOM     12  C   UNL     1      53.814  -0.009  17.957  0.00  0.00    +0.000 A 
ATOM     13  C   UNL     1      54.727   0.385  18.918  0.00  0.00    +0.000 A 
ATOM     14  N   UNL     1      54.715   1.600  19.499  0.00  0.00    +0.000 NA
ATOM     15  C   UNL     1      53.737   2.454  19.106  0.00  0.00    +0.000 A 
ENDBRANCH   6  10
ENDBRANCH   1   4
BRANCH   1  16
ATOM     16  C   UNL     1      47.140   4.399  16.352  0.00  0.00    +0.000 C 
BRANCH  16  17
ATOM     17  N   UNL     1      47.524   5.030  15.076  0.00  0.00    +0.000 N 
ATOM     18  H   UNL     1      47.943   5.955  15.163  0.00  0.00    +0.000 HD
BRANCH  17  22
ATOM     19  C   UNL     1      45.001   4.376  11.766  0.00  0.00    +0.000 A 
ATOM     20  C   UNL     1      45.301   5.683  12.150  0.00  0.00    +0.000 A 
ATOM     21  C   UNL     1      46.153   5.913  13.235  0.00  0.00    +0.000 A 
ATOM     22  C   UNL     1      46.745   4.855  13.937  0.00  0.00    +0.000 A 
ATOM     23  C   UNL     1      46.412   3.551  13.551  0.00  0.00    +0.000 A 
ATOM     24  C   UNL     1      45.546   3.307  12.479  0.00  0.00    +0.000 A 
BRANCH  19  26
ATOM     25  N   UNL     1      43.647   5.155   9.902  0.00  0.00    +0.000 N 
ATOM     26  C   UNL     1      44.082   4.088  10.637  0.00  0.00    +0.000 C 
ATOM     27  O   UNL     1      43.753   2.946  10.346  0.00  0.00    +0.000 OA
ATOM     28  H   UNL     1      43.112   4.936   9.071  0.00  0.00    +0.000 HD
ATOM     29  H   UNL     1      44.088   6.063   9.951  0.00  0.00    +0.000 HD
ENDBRANCH  19  26
ENDBRANCH  17  22
ENDBRANCH  16  17
ENDBRANCH   1  16
TORSDOF 6
ENDMDL
