MODEL 1
REMARK VINA RESULT:    -9.214      0.000      0.000
REMARK INTER + INTRA:         -13.118
REMARK INTER:                 -11.907
REMARK INTRA:                  -1.211
REMARK UNBOUND:                -1.211
REMARK  Name = 
REMARK  5 active torsions:
REMARK  status: ('A' for Active; 'I' for Inactive)
REMARK    1  A    between atoms: C_2  and  C_4
REMARK    2  A    between atoms: C_7  and  N_8
REMARK    3  A    between atoms: N_8  and  C_9
REMARK    4  A    between atoms: C_9  and  C_10
REMARK    5  A    between atoms: C_14  and  C_15
REMARK                            x       y       z     vdW  Elec       q    Type
REMARK                         _______ _______ _______ _____ _____    ______ ____
ROOT
ATOM      1  C   UNL     1      43.801   4.855  11.423  0.00  0.00    +0.000 C 
ATOM      2  C   UNL     1      42.524   5.335  12.096  0.00  0.00    +0.000 C 
ATOM      3  C   UNL     1      43.114   6.141  10.991  0.00  0.00    +0.000 C 
ENDROOT
BRANCH   1   4
ATOM      4  C   UNL     1      45.148   5.037  12.113  0.00  0.00    +0.000 A 
ATOM      5  C   UNL     1      45.616   4.137  13.076  0.00  0.00    +0.000 A 
ATOM      6  C   UNL     1      46.867   4.335  13.639  0.00  0.00    +0.000 A 
ATOM      7  N   UNL     1      47.677   5.369  13.330  0.00  0.00    +0.000 NA
ATOM      8  C   UNL     1      47.219   6.271  12.430  0.00  0.00    +0.000 A 
ATOM      9  C   UNL     1      45.981   6.118  11.808  0.00  0.00    +0.000 A 
BRANCH   8  10
ATOM     10  C   UNL     1      48.110   7.407  12.123  0.00  0.00    +0.000 A 
ATOM     11  C   UNL     1      49.489   7.214  11.906  0.00  0.00    +0.000 A 
ATOM     12  C   UNL     1      50.333   8.279  11.574  0.00  0.00    +0.000 A 
ATOM     13  C   UNL     1      49.813   9.565  11.458  0.00  0.00    +0.000 A 
ATOM     14  C   UNL     1      48.461   9.773  11.687  0.00  0.00    +0.000 A 
ATOM     15  F   UNL     1      47.954  11.009  11.577  0.00  0.00    +0.000 F 
ATOM     16  C   UNL     1      47.618   8.718  12.021  0.00  0.00    +0.000 A 
ENDBRANCH   8  10
ENDBRANCH   1   4
BRANCH   1  17
ATOM     17  N   UNL     1      43.740   3.673  10.546  0.00  0.00    +0.000 N 
ATOM     18  H   UNL     1      43.202   2.871  10.855  0.00  0.00    +0.000 HD
BRANCH  17  22
ATOM     19  C   UNL     1      46.502   2.714   7.477  0.00  0.00    +0.000 A 
ATOM     20  C   UNL     1      46.071   4.031   7.632  0.00  0.00    +0.000 A 
ATOM     21  C   UNL     1      45.154   4.354   8.636  0.00  0.00    +0.000 A 
ATOM     22  C   UNL     1      44.671   3.386   9.527  0.00  0.00    +0.000 A 
ATOM     23  C   UNL     1      45.062   2.056   9.316  0.00  0.00    +0.000 A 
ATOM     24  C   UNL     1      45.968   1.718   8.301  0.00  0.00    +0.000 A 
BRANCH  19  26
ATOM     25  N   UNL     1      47.451   3.022   5.257  0.00  0.00    +0.000 N 
ATOM     26  C   UNL     1      47.500   2.338   6.443  0.00  0.00    +0.000 C 
ATOM     27  O   UNL     1      48.355   1.486   6.647  0.00  0.00    +0.000 OA
ATOM     28  H   UNL     1      48.202   2.838   4.605  0.00  0.00    +0.000 HD
ATOM     29  H   UNL     1      46.944   3.889   5.149  0.00  0.00    +0.000 HD
ENDBRANCH  19  26
ENDBRANCH  17  22
ENDBRANCH   1  17
TORSDOF 5
ENDMDL
MODEL 2
REMARK VINA RESULT:    -9.014      2.689      3.923
REMARK INTER + INTRA:         -12.859
REMARK INTER:                 -12.321
REMARK INTRA:                  -0.538
REMARK UNBOUND:                -1.211
REMARK  Name = 
REMARK  5 active torsions:
REMARK  status: ('A' for Active; 'I' for Inactive)
REMARK    1  A    between atoms: C_2  and  C_4
REMARK    2  A    between atoms: C_7  and  N_8
REMARK    3  A    between atoms: N_8  and  C_9
REMARK    4  A    between atoms: C_9  and  C_10
REMARK    5  A    between atoms: C_14  and  C_15
REMARK                            x       y       z     vdW  Elec       q    Type
REMARK                         _______ _______ _______ _____ _____    ______ ____
ROOT
ATOM      1  C   UNL     1      43.916   4.996  11.447  0.00  0.00    +0.000 C 
ATOM      2  C   UNL     1      43.071   4.072  12.311  0.00  0.00    +0.000 C 
ATOM      3  C   UNL     1      42.685   5.504  12.180  0.00  0.00    +0.000 C 
ENDROOT
BRANCH   1   4
ATOM      4  C   UNL     1      45.248   5.528  11.966  0.00  0.00    +0.000 A 
ATOM      5  C   UNL     1      46.015   6.442  11.238  0.00  0.00    +0.000 A 
ATOM      6  C   UNL     1      47.198   6.920  11.780  0.00  0.00    +0.000 A 
ATOM      7  N   UNL     1      47.681   6.543  12.982  0.00  0.00    +0.000 NA
ATOM      8  C   UNL     1      46.970   5.626  13.681  0.00  0.00    +0.000 A 
ATOM      9  C   UNL     1      45.760   5.124  13.204  0.00  0.00    +0.000 A 
BRANCH   8  10
ATOM     10  C   UNL     1      47.528   5.210  14.982  0.00  0.00    +0.000 A 
ATOM     11  C   UNL     1      48.477   6.003  15.655  0.00  0.00    +0.000 A 
ATOM     12  C   UNL     1      48.981   5.635  16.907  0.00  0.00    +0.000 A 
ATOM     13  C   UNL     1      48.545   4.459  17.512  0.00  0.00    +0.000 A 
ATOM     14  C   UNL     1      47.623   3.660  16.852  0.00  0.00    +0.000 A 
ATOM     15  F   UNL     1      47.200   2.525  17.428  0.00  0.00    +0.000 F 
ATOM     16  C   UNL     1      47.123   4.018  15.604  0.00  0.00    +0.000 A 
ENDBRANCH   8  10
ENDBRANCH   1   4
BRANCH   1  17
ATOM     17  N   UNL     1      43.873   4.836   9.984  0.00  0.00    +0.000 N 
ATOM     18  H   UNL     1      43.034   5.125   9.493  0.00  0.00    +0.000 HD
BRANCH  17  22
ATOM     19  C   UNL     1      46.423   2.275   7.768  0.00  0.00    +0.000 A 
ATOM     20  C   UNL     1      45.573   1.737   8.734  0.00  0.00    +0.000 A 
ATOM     21  C   UNL     1      44.736   2.576   9.474  0.00  0.00    +0.000 A 
ATOM     22  C   UNL     1      44.698   3.959   9.252  0.00  0.00    +0.000 A 
ATOM     23  C   UNL     1      45.607   4.492   8.325  0.00  0.00    +0.000 A 
ATOM     24  C   UNL     1      46.464   3.663   7.589  0.00  0.00    +0.000 A 
BRANCH  19  26
ATOM     25  N   UNL     1      48.359   2.025   6.315  0.00  0.00    +0.000 N 
ATOM     26  C   UNL     1      47.304   1.414   6.939  0.00  0.00    +0.000 C 
ATOM     27  O   UNL     1      47.127   0.206   6.846  0.00  0.00    +0.000 OA
ATOM     28  H   UNL     1      49.015   1.413   5.848  0.00  0.00    +0.000 HD
ATOM     29  H   UNL     1      48.685   2.946   6.572  0.00  0.00    +0.000 HD
ENDBRANCH  19  26
ENDBRANCH  17  22
ENDBRANCH   1  17
TORSDOF 5
ENDMDL
MODEL 3
REMARK VINA RESULT:    -8.169      3.876      7.453
REMARK INTER + INTRA:         -11.767
REMARK INTER:                 -10.697
REMARK INTRA:                  -1.070
REMARK UNBOUND:                -1.211
REMARK  Name = 
REMARK  5 active torsions:
REMARK  status: ('A' for Active; 'I' for Inactive)
REMARK    1  A    between atoms: C_2  and  C_4
REMARK    2  A    between atoms: C_7  and  N_8
REMARK    3  A    between atoms: N_8  and  C_9
REMARK    4  A    between atoms: C_9  and  C_10
REMARK    5  A    between atoms: C_14  and  C_15
REMARK                            x       y       z     vdW  Elec       q    Type
REMARK                         _______ _______ _______ _____ _____    ______ ____
ROOT
ATOM      1  C   UNL     1      46.125   7.203  12.061  0.00  0.00    +0.000 C 
ATOM      2  C   UNL     1      46.029   8.675  11.691  0.00  0.00    +0.000 C 
ATOM      3  C   UNL     1      45.326   8.181  12.908  0.00  0.00    +0.000 C 
ENDROOT
BRANCH   1   4
ATOM      4  C   UNL     1      45.297   6.166  11.310  0.00  0.00    +0.000 A 
ATOM      5  C   UNL     1      43.929   5.996  11.547  0.00  0.00    +0.000 A 
ATOM      6  C   UNL     1      43.222   5.064  10.805  0.00  0.00    +0.000 A 
ATOM      7  N   UNL     1      43.777   4.278   9.859  0.00  0.00    +0.000 NA
ATOM      8  C   UNL     1      45.109   4.402   9.647  0.00  0.00    +0.000 A 
ATOM      9  C   UNL     1      45.874   5.337  10.342  0.00  0.00    +0.000 A 
BRANCH   8  10
ATOM     10  C   UNL     1      45.700   3.517   8.624  0.00  0.00    +0.000 A 
ATOM     11  C   UNL     1      46.280   4.043   7.453  0.00  0.00    +0.000 A 
ATOM     12  C   UNL     1      46.879   3.214   6.498  0.00  0.00    +0.000 A 
ATOM     13  C   UNL     1      46.905   1.836   6.695  0.00  0.00    +0.000 A 
ATOM     14  C   UNL     1      46.322   1.303   7.835  0.00  0.00    +0.000 A 
ATOM     15  F   UNL     1      46.342  -0.023   8.030  0.00  0.00    +0.000 F 
ATOM     16  C   UNL     1      45.721   2.123   8.786  0.00  0.00    +0.000 A 
ENDBRANCH   8  10
ENDBRANCH   1   4
BRANCH   1  17
ATOM     17  N   UNL     1      47.404   6.682  12.572  0.00  0.00    +0.000 N 
ATOM     18  H   UNL     1      48.169   6.555  11.917  0.00  0.00    +0.000 HD
BRANCH  17  22
ATOM     19  C   UNL     1      47.861   4.614  16.244  0.00  0.00    +0.000 A 
ATOM     20  C   UNL     1      47.049   4.078  15.246  0.00  0.00    +0.000 A 
ATOM     21  C   UNL     1      46.886   4.758  14.036  0.00  0.00    +0.000 A 
ATOM     22  C   UNL     1      47.550   5.964  13.777  0.00  0.00    +0.000 A 
ATOM     23  C   UNL     1      48.309   6.523  14.815  0.00  0.00    +0.000 A 
ATOM     24  C   UNL     1      48.466   5.859  16.040  0.00  0.00    +0.000 A 
BRANCH  19  26
ATOM     25  N   UNL     1      47.156   2.964  17.888  0.00  0.00    +0.000 N 
ATOM     26  C   UNL     1      48.084   3.906  17.530  0.00  0.00    +0.000 C 
ATOM     27  O   UNL     1      49.070   4.119  18.225  0.00  0.00    +0.000 OA
ATOM     28  H   UNL     1      47.376   2.410  18.705  0.00  0.00    +0.000 HD
ATOM     29  H   UNL     1      46.488   2.582  17.234  0.00  0.00    +0.000 HD
ENDBRANCH  19  26
ENDBRANCH  17  22
ENDBRANCH   1  17
TORSDOF 5
ENDMDL
MODEL 4
REMARK VINA RESULT:    -8.062      1.769      2.334
REMARK INTER + INTRA:         -11.630
REMARK INTER:                 -10.949
REMARK INTRA:                  -0.681
REMARK UNBOUND:                -1.211
REMARK  Name = 
REMARK  5 active torsions:
REMARK  status: ('A' for Active; 'I' for Inactive)
REMARK    1  A    between atoms: C_2  and  C_4
REMARK    2  A    between atoms: C_7  and  N_8
REMARK    3  A    between atoms: N_8  and  C_9
REMARK    4  A    between atoms: C_9  and  C_10
REMARK    5  A    between atoms: C_14  and  C_15
REMARK                            x       y       z     vdW  Elec       q    Type
REMARK                         _______ _______ _______ _____ _____    ______ ____
ROOT
ATOM      1  C   UNL     1      44.148   5.176  11.573  0.00  0.00    +0.000 C 
ATOM      2  C   UNL     1      44.407   4.111  12.628  0.00  0.00    +0.000 C 
ATOM      3  C   UNL     1      43.135   4.886  12.670  0.00  0.00    +0.000 C 
ENDROOT
BRANCH   1   4
ATOM      4  C   UNL     1      44.836   6.533  11.665  0.00  0.00    +0.000 A 
ATOM      5  C   UNL     1      44.142   7.731  11.464  0.00  0.00    +0.000 A 
ATOM      6  C   UNL     1      44.814   8.936  11.600  0.00  0.00    +0.000 A 
ATOM      7  N   UNL     1      46.125   9.037  11.904  0.00  0.00    +0.000 NA
ATOM      8  C   UNL     1      46.819   7.884  12.061  0.00  0.00    +0.000 A 
ATOM      9  C   UNL     1      46.198   6.640  11.961  0.00  0.00    +0.000 A 
BRANCH   8  10
ATOM     10  C   UNL     1      48.256   8.016  12.369  0.00  0.00    +0.000 A 
ATOM     11  C   UNL     1      48.698   8.284  13.680  0.00  0.00    +0.000 A 
ATOM     12  C   UNL     1      50.060   8.370  13.988  0.00  0.00    +0.000 A 
ATOM     13  C   UNL     1      51.010   8.194  12.986  0.00  0.00    +0.000 A 
ATOM     14  C   UNL     1      50.589   7.947  11.688  0.00  0.00    +0.000 A 
ATOM     15  F   UNL     1      51.498   7.777  10.718  0.00  0.00    +0.000 F 
ATOM     16  C   UNL     1      49.235   7.865  11.375  0.00  0.00    +0.000 A 
ENDBRANCH   8  10
ENDBRANCH   1   4
BRANCH   1  17
ATOM     17  N   UNL     1      43.860   4.751  10.192  0.00  0.00    +0.000 N 
ATOM     18  H   UNL     1      42.891   4.675   9.904  0.00  0.00    +0.000 HD
BRANCH  17  22
ATOM     19  C   UNL     1      46.518   2.573   7.709  0.00  0.00    +0.000 A 
ATOM     20  C   UNL     1      46.498   3.966   7.647  0.00  0.00    +0.000 A 
ATOM     21  C   UNL     1      45.619   4.691   8.456  0.00  0.00    +0.000 A 
ATOM     22  C   UNL     1      44.765   4.054   9.366  0.00  0.00    +0.000 A 
ATOM     23  C   UNL     1      44.749   2.652   9.369  0.00  0.00    +0.000 A 
ATOM     24  C   UNL     1      45.614   1.913   8.550  0.00  0.00    +0.000 A 
BRANCH  19  26
ATOM     25  N   UNL     1      48.562   2.418   6.399  0.00  0.00    +0.000 N 
ATOM     26  C   UNL     1      47.460   1.770   6.889  0.00  0.00    +0.000 C 
ATOM     27  O   UNL     1      47.288   0.574   6.690  0.00  0.00    +0.000 OA
ATOM     28  H   UNL     1      49.252   1.838   5.939  0.00  0.00    +0.000 HD
ATOM     29  H   UNL     1      48.868   3.314   6.750  0.00  0.00    +0.000 HD
ENDBRANCH  19  26
ENDBRANCH  17  22
ENDBRANCH   1  17
TORSDOF 5
ENDMDL
MODEL 5
REMARK VINA RESULT:    -6.909      3.868      6.077
REMARK INTER + INTRA:         -10.139
REMARK INTER:                  -9.103
REMARK INTRA:                  -1.036
REMARK UNBOUND:                -1.211
REMARK  Name = 
REMARK  5 active torsions:
REMARK  status: ('A' for Active; 'I' for Inactive)
REMARK    1  A    between atoms: C_2  and  C_4
REMARK    2  A    between atoms: C_7  and  N_8
REMARK    3  A    between atoms: N_8  and  C_9
REMARK    4  A    between atoms: C_9  and  C_10
REMARK    5  A    between atoms: C_14  and  C_15
REMARK                            x       y       z     vdW  Elec       q    Type
REMARK                         _______ _______ _______ _____ _____    ______ ____
ROOT
ATOM      1  C   UNL     1      47.855   8.084  12.610  0.00  0.00    +0.000 C 
ATOM      2  C   UNL     1      48.695   8.976  11.710  0.00  0.00    +0.000 C 
ATOM      3  C   UNL     1      48.895   7.501  11.667  0.00  0.00    +0.000 C 
ENDROOT
BRANCH   1   4
ATOM      4  C   UNL     1      48.182   7.963  14.095  0.00  0.00    +0.000 A 
ATOM      5  C   UNL     1      48.336   9.086  14.914  0.00  0.00    +0.000 A 
ATOM      6  C   UNL     1      48.595   8.912  16.264  0.00  0.00    +0.000 A 
ATOM      7  N   UNL     1      48.730   7.706  16.855  0.00  0.00    +0.000 NA
ATOM      8  C   UNL     1      48.625   6.610  16.066  0.00  0.00    +0.000 A 
ATOM      9  C   UNL     1      48.341   6.715  14.705  0.00  0.00    +0.000 A 
BRANCH   8  10
ATOM     10  C   UNL     1      48.798   5.302  16.727  0.00  0.00    +0.000 A 
ATOM     11  C   UNL     1      50.050   4.903  17.236  0.00  0.00    +0.000 A 
ATOM     12  C   UNL     1      50.214   3.682  17.900  0.00  0.00    +0.000 A 
ATOM     13  C   UNL     1      49.125   2.831  18.064  0.00  0.00    +0.000 A 
ATOM     14  C   UNL     1      47.890   3.203  17.552  0.00  0.00    +0.000 A 
ATOM     15  F   UNL     1      46.837   2.387  17.706  0.00  0.00    +0.000 F 
ATOM     16  C   UNL     1      47.723   4.414  16.887  0.00  0.00    +0.000 A 
ENDBRANCH   8  10
ENDBRANCH   1   4
BRANCH   1  17
ATOM     17  N   UNL     1      46.424   7.913  12.304  0.00  0.00    +0.000 N 
ATOM     18  H   UNL     1      45.772   8.613  12.641  0.00  0.00    +0.000 HD
BRANCH  17  22
ATOM     19  C   UNL     1      44.557   4.234  11.328  0.00  0.00    +0.000 A 
ATOM     20  C   UNL     1      45.152   4.996  10.322  0.00  0.00    +0.000 A 
ATOM     21  C   UNL     1      45.761   6.214  10.635  0.00  0.00    +0.000 A 
ATOM     22  C   UNL     1      45.825   6.686  11.952  0.00  0.00    +0.000 A 
ATOM     23  C   UNL     1      45.165   5.942  12.941  0.00  0.00    +0.000 A 
ATOM     24  C   UNL     1      44.534   4.728  12.637  0.00  0.00    +0.000 A 
BRANCH  19  26
ATOM     25  N   UNL     1      44.495   2.166  10.048  0.00  0.00    +0.000 N 
ATOM     26  C   UNL     1      43.927   2.920  11.040  0.00  0.00    +0.000 C 
ATOM     27  O   UNL     1      42.971   2.505  11.682  0.00  0.00    +0.000 OA
ATOM     28  H   UNL     1      44.130   1.229   9.937  0.00  0.00    +0.000 HD
ATOM     29  H   UNL     1      45.418   2.351   9.683  0.00  0.00    +0.000 HD
ENDBRANCH  19  26
ENDBRANCH  17  22
ENDBRANCH   1  17
TORSDOF 5
ENDMDL
MODEL 6
REMARK VINA RESULT:    -6.729      3.760      7.621
REMARK INTER + INTRA:          -9.907
REMARK INTER:                  -9.765
REMARK INTRA:                  -0.142
REMARK UNBOUND:                -1.211
REMARK  Name = 
REMARK  5 active torsions:
REMARK  status: ('A' for Active; 'I' for Inactive)
REMARK    1  A    between atoms: C_2  and  C_4
REMARK    2  A    between atoms: C_7  and  N_8
REMARK    3  A    between atoms: N_8  and  C_9
REMARK    4  A    between atoms: C_9  and  C_10
REMARK    5  A    between atoms: C_14  and  C_15
REMARK                            x       y       z     vdW  Elec       q    Type
REMARK                         _______ _______ _______ _____ _____    ______ ____
ROOT
ATOM      1  C   UNL     1      48.808   8.034  12.609  0.00  0.00    +0.000 C 
ATOM      2  C   UNL     1      49.947   7.653  11.677  0.00  0.00    +0.000 C 
ATOM      3  C   UNL     1      49.564   9.086  11.813  0.00  0.00    +0.000 C 
ENDROOT
BRANCH   1   4
ATOM      4  C   UNL     1      47.360   7.812  12.184  0.00  0.00    +0.000 A 
ATOM      5  C   UNL     1      46.364   8.765  12.419  0.00  0.00    +0.000 A 
ATOM      6  C   UNL     1      45.074   8.524  11.974  0.00  0.00    +0.000 A 
ATOM      7  N   UNL     1      44.699   7.399  11.330  0.00  0.00    +0.000 NA
ATOM      8  C   UNL     1      45.643   6.449  11.132  0.00  0.00    +0.000 A 
ATOM      9  C   UNL     1      46.965   6.639  11.533  0.00  0.00    +0.000 A 
BRANCH   8  10
ATOM     10  C   UNL     1      45.207   5.217  10.446  0.00  0.00    +0.000 A 
ATOM     11  C   UNL     1      45.569   4.961   9.109  0.00  0.00    +0.000 A 
ATOM     12  C   UNL     1      45.193   3.777   8.465  0.00  0.00    +0.000 A 
ATOM     13  C   UNL     1      44.441   2.824   9.147  0.00  0.00    +0.000 A 
ATOM     14  C   UNL     1      44.063   3.072  10.458  0.00  0.00    +0.000 A 
ATOM     15  F   UNL     1      43.339   2.159  11.121  0.00  0.00    +0.000 F 
ATOM     16  C   UNL     1      44.430   4.249  11.102  0.00  0.00    +0.000 A 
ENDBRANCH   8  10
ENDBRANCH   1   4
BRANCH   1  17
ATOM     17  N   UNL     1      49.018   7.938  14.064  0.00  0.00    +0.000 N 
ATOM     18  H   UNL     1      49.725   8.529  14.488  0.00  0.00    +0.000 HD
BRANCH  17  22
ATOM     19  C   UNL     1      47.872   4.684  16.527  0.00  0.00    +0.000 A 
ATOM     20  C   UNL     1      47.466   4.718  15.194  0.00  0.00    +0.000 A 
ATOM     21  C   UNL     1      47.832   5.792  14.378  0.00  0.00    +0.000 A 
ATOM     22  C   UNL     1      48.635   6.836  14.855  0.00  0.00    +0.000 A 
ATOM     23  C   UNL     1      48.979   6.821  16.214  0.00  0.00    +0.000 A 
ATOM     24  C   UNL     1      48.603   5.758  17.048  0.00  0.00    +0.000 A 
BRANCH  19  26
ATOM     25  N   UNL     1      48.457   3.196  18.361  0.00  0.00    +0.000 N 
ATOM     26  C   UNL     1      47.529   3.545  17.417  0.00  0.00    +0.000 C 
ATOM     27  O   UNL     1      46.453   2.966  17.343  0.00  0.00    +0.000 OA
ATOM     28  H   UNL     1      48.168   2.497  19.033  0.00  0.00    +0.000 HD
ATOM     29  H   UNL     1      49.224   3.800  18.621  0.00  0.00    +0.000 HD
ENDBRANCH  19  26
ENDBRANCH  17  22
ENDBRANCH   1  17
TORSDOF 5
ENDMDL
MODEL 7
REMARK VINA RESULT:    -6.326      4.297      8.211
REMARK INTER + INTRA:          -9.386
REMARK INTER:                  -8.142
REMARK INTRA:                  -1.245
REMARK UNBOUND:                -1.211
REMARK  Name = 
REMARK  5 active torsions:
REMARK  status: ('A' for Active; 'I' for Inactive)
REMARK    1  A    between atoms: C_2  and  C_4
REMARK    2  A    between atoms: C_7  and  N_8
REMARK    3  A    between atoms: N_8  and  C_9
REMARK    4  A    between atoms: C_9  and  C_10
REMARK    5  A    between atoms: C_14  and  C_15
REMARK                            x       y       z     vdW  Elec       q    Type
REMARK                         _______ _______ _______ _____ _____    ______ ____
ROOT
ATOM      1  C   UNL     1      49.375   8.269  12.665  0.00  0.00    +0.000 C 
ATOM      2  C   UNL     1      50.267   8.772  11.541  0.00  0.00    +0.000 C 
ATOM      3  C   UNL     1      49.838   9.716  12.611  0.00  0.00    +0.000 C 
ENDROOT
BRANCH   1   4
ATOM      4  C   UNL     1      47.884   8.054  12.426  0.00  0.00    +0.000 A 
ATOM      5  C   UNL     1      46.927   8.996  12.816  0.00  0.00    +0.000 A 
ATOM      6  C   UNL     1      45.590   8.763  12.536  0.00  0.00    +0.000 A 
ATOM      7  N   UNL     1      45.134   7.655  11.913  0.00  0.00    +0.000 NA
ATOM      8  C   UNL     1      46.045   6.715  11.567  0.00  0.00    +0.000 A 
ATOM      9  C   UNL     1      47.408   6.899  11.798  0.00  0.00    +0.000 A 
BRANCH   8  10
ATOM     10  C   UNL     1      45.523   5.501  10.908  0.00  0.00    +0.000 A 
ATOM     11  C   UNL     1      44.839   4.512  11.641  0.00  0.00    +0.000 A 
ATOM     12  C   UNL     1      44.306   3.379  11.018  0.00  0.00    +0.000 A 
ATOM     13  C   UNL     1      44.453   3.209   9.644  0.00  0.00    +0.000 A 
ATOM     14  C   UNL     1      45.140   4.166   8.913  0.00  0.00    +0.000 A 
ATOM     15  F   UNL     1      45.286   4.009   7.590  0.00  0.00    +0.000 F 
ATOM     16  C   UNL     1      45.676   5.294   9.529  0.00  0.00    +0.000 A 
ENDBRANCH   8  10
ENDBRANCH   1   4
BRANCH   1  17
ATOM     17  N   UNL     1      49.948   7.364  13.676  0.00  0.00    +0.000 N 
ATOM     18  H   UNL     1      50.564   6.621  13.363  0.00  0.00    +0.000 HD
BRANCH  17  22
ATOM     19  C   UNL     1      48.349   6.671  17.541  0.00  0.00    +0.000 A 
ATOM     20  C   UNL     1      49.072   7.837  17.290  0.00  0.00    +0.000 A 
ATOM     21  C   UNL     1      49.610   8.069  16.021  0.00  0.00    +0.000 A 
ATOM     22  C   UNL     1      49.415   7.168  14.966  0.00  0.00    +0.000 A 
ATOM     23  C   UNL     1      48.744   5.970  15.251  0.00  0.00    +0.000 A 
ATOM     24  C   UNL     1      48.215   5.718  16.525  0.00  0.00    +0.000 A 
BRANCH  19  26
ATOM     25  N   UNL     1      46.667   5.549  18.894  0.00  0.00    +0.000 N 
ATOM     26  C   UNL     1      47.736   6.405  18.866  0.00  0.00    +0.000 C 
ATOM     27  O   UNL     1      48.183   6.892  19.897  0.00  0.00    +0.000 OA
ATOM     28  H   UNL     1      46.330   5.287  19.811  0.00  0.00    +0.000 HD
ATOM     29  H   UNL     1      46.439   4.938  18.123  0.00  0.00    +0.000 HD
ENDBRANCH  19  26
ENDBRANCH  17  22
ENDBRANCH   1  17
TORSDOF 5
ENDMDL
