MODEL 1
REMARK VINA RESULT:    -8.369      0.000      0.000
REMARK INTER + INTRA:         -13.154
REMARK INTER:                 -11.794
REMARK INTRA:                  -1.359
REMARK UNBOUND:                -1.359
REMARK  Name = 
REMARK  8 active torsions:
REMARK  status: ('A' for Active; 'I' for Inactive)
REMARK    1  A    between atoms: C_1  and  O_2
REMARK    2  A    between atoms: O_2  and  C_3
REMARK    3  A    between atoms: C_5  and  C_6
REMARK    4  A    between atoms: C_6  and  N_7
REMARK    5  A    between atoms: C_8  and  C_10
REMARK    6  A    between atoms: C_22  and  C_23
REMARK    7  A    between atoms: C_23  and  N_24
REMARK    8  A    between atoms: C_25  and  C_27
REMARK                            x       y       z     vdW  Elec       q    Type
REMARK                         _______ _______ _______ _____ _____    ______ ____
ROOT
ATOM      1  C   UNL     1      44.312   5.875  12.091  0.00  0.00    +0.000 A 
ATOM      2  C   UNL     1      45.031   6.734  12.947  0.00  0.00    +0.000 A 
ATOM      3  C   UNL     1      46.292   7.238  12.590  0.00  0.00    +0.000 A 
ATOM      4  C   UNL     1      46.844   6.834  11.373  0.00  0.00    +0.000 A 
ATOM      5  C   UNL     1      46.124   6.010  10.505  0.00  0.00    +0.000 A 
ATOM      6  C   UNL     1      44.835   5.547  10.827  0.00  0.00    +0.000 A 
ENDROOT
BRANCH   1   8
ATOM      7  C   UNL     1      42.995   4.325  13.327  0.00  0.00    +0.000 C 
ATOM      8  O   UNL     1      43.070   5.525  12.561  0.00  0.00    +0.000 OA
ENDBRANCH   1   8
BRANCH   3   9
ATOM      9  C   UNL     1      47.064   8.168  13.494  0.00  0.00    +0.000 C 
BRANCH   9  10
ATOM     10  N   UNL     1      47.545   7.477  14.663  0.00  0.00    +0.000 N 
ATOM     11  C   UNL     1      48.771   6.860  14.684  0.00  0.00    +0.000 C 
ATOM     12  O   UNL     1      49.536   6.895  13.724  0.00  0.00    +0.000 OA
ATOM     13  H   UNL     1      46.851   7.217  15.355  0.00  0.00    +0.000 HD
BRANCH  11  14
ATOM     14  C   UNL     1      49.149   6.205  15.944  0.00  0.00    +0.000 A 
ATOM     15  C   UNL     1      50.231   6.682  16.673  0.00  0.00    +0.000 A 
ATOM     16  S   UNL     1      50.484   5.855  18.143  0.00  0.00    +0.000 S 
ATOM     17  C   UNL     1      49.192   4.793  17.832  0.00  0.00    +0.000 A 
ATOM     18  N   UNL     1      48.873   3.802  18.708  0.00  0.00    +0.000 NA
ATOM     19  C   UNL     1      47.888   3.055  18.334  0.00  0.00    +0.000 A 
ATOM     20  N   UNL     1      47.190   3.211  17.165  0.00  0.00    +0.000 N 
ATOM     21  C   UNL     1      47.465   4.208  16.259  0.00  0.00    +0.000 A 
ATOM     22  O   UNL     1      46.804   4.335  15.233  0.00  0.00    +0.000 OA
ATOM     23  C   UNL     1      48.567   5.075  16.630  0.00  0.00    +0.000 A 
ATOM     24  H   UNL     1      46.425   2.595  16.933  0.00  0.00    +0.000 HD
ENDBRANCH  11  14
ENDBRANCH   9  10
ENDBRANCH   3   9
BRANCH   6  25
ATOM     25  C   UNL     1      44.079   4.789   9.760  0.00  0.00    +0.000 C 
BRANCH  25  26
ATOM     26  N   UNL     1      44.969   4.337   8.710  0.00  0.00    +0.000 N 
ATOM     27  C   UNL     1      45.451   3.045   8.686  0.00  0.00    +0.000 C 
ATOM     28  O   UNL     1      45.201   2.212   9.546  0.00  0.00    +0.000 OA
ATOM     29  H   UNL     1      44.953   4.877   7.853  0.00  0.00    +0.000 HD
BRANCH  27  30
ATOM     30  C   UNL     1      46.274   2.688   7.516  0.00  0.00    +0.000 A 
ATOM     31  C   UNL     1      46.326   3.448   6.367  0.00  0.00    +0.000 A 
ATOM     32  N   UNL     1      47.068   3.127   5.283  0.00  0.00    +0.000 NA
ATOM     33  C   UNL     1      47.790   2.000   5.387  0.00  0.00    +0.000 A 
ATOM     34  N   UNL     1      47.833   1.189   6.457  0.00  0.00    +0.000 NA
ATOM     35  C   UNL     1      47.071   1.562   7.513  0.00  0.00    +0.000 A 
ENDBRANCH  27  30
ENDBRANCH  25  26
ENDBRANCH   6  25
TORSDOF 7
ENDMDL
MODEL 2
REMARK VINA RESULT:    -7.753      1.912      2.152
REMARK INTER + INTRA:         -12.285
REMARK INTER:                 -11.181
REMARK INTRA:                  -1.104
REMARK UNBOUND:                -1.359
REMARK  Name = 
REMARK  8 active torsions:
REMARK  status: ('A' for Active; 'I' for Inactive)
REMARK    1  A    between atoms: C_1  and  O_2
REMARK    2  A    between atoms: O_2  and  C_3
REMARK    3  A    between atoms: C_5  and  C_6
REMARK    4  A    between atoms: C_6  and  N_7
REMARK    5  A    between atoms: C_8  and  C_10
REMARK    6  A    between atoms: C_22  and  C_23
REMARK    7  A    between atoms: C_23  and  N_24
REMARK    8  A    between atoms: C_25  and  C_27
REMARK                            x       y       z     vdW  Elec       q    Type
REMARK                         _______ _______ _______ _____ _____    ______ ____
ROOT
ATOM      1  C   UNL     1      44.710   5.336  12.153  0.00  0.00    +0.000 A 
ATOM      2  C   UNL     1      45.578   6.215  12.831  0.00  0.00    +0.000 A 
ATOM      3  C   UNL     1      46.660   5.738  13.589  0.00  0.00    +0.000 A 
ATOM      4  C   UNL     1      46.837   4.358  13.691  0.00  0.00    +0.000 A 
ATOM      5  C   UNL     1      46.001   3.480  12.995  0.00  0.00    +0.000 A 
ATOM      6  C   UNL     1      44.950   3.950  12.186  0.00  0.00    +0.000 A 
ENDROOT
BRANCH   1   8
ATOM      7  C   UNL     1      42.393   5.767  11.821  0.00  0.00    +0.000 C 
ATOM      8  O   UNL     1      43.743   5.964  11.407  0.00  0.00    +0.000 OA
ENDBRANCH   1   8
BRANCH   3   9
ATOM      9  C   UNL     1      47.603   6.672  14.308  0.00  0.00    +0.000 C 
BRANCH   9  10
ATOM     10  N   UNL     1      48.164   6.045  15.478  0.00  0.00    +0.000 N 
ATOM     11  C   UNL     1      49.294   6.530  16.086  0.00  0.00    +0.000 C 
ATOM     12  O   UNL     1      49.865   7.543  15.690  0.00  0.00    +0.000 OA
ATOM     13  H   UNL     1      47.875   5.090  15.664  0.00  0.00    +0.000 HD
BRANCH  11  14
ATOM     14  C   UNL     1      49.752   5.809  17.282  0.00  0.00    +0.000 A 
ATOM     15  C   UNL     1      50.996   5.194  17.284  0.00  0.00    +0.000 A 
ATOM     16  S   UNL     1      51.399   4.468  18.774  0.00  0.00    +0.000 S 
ATOM     17  C   UNL     1      49.901   4.901  19.453  0.00  0.00    +0.000 A 
ATOM     18  N   UNL     1      49.585   4.557  20.731  0.00  0.00    +0.000 NA
ATOM     19  C   UNL     1      48.407   4.927  21.108  0.00  0.00    +0.000 A 
ATOM     20  N   UNL     1      47.516   5.614  20.325  0.00  0.00    +0.000 N 
ATOM     21  C   UNL     1      47.797   5.997  19.035  0.00  0.00    +0.000 A 
ATOM     22  O   UNL     1      46.986   6.632  18.369  0.00  0.00    +0.000 OA
ATOM     23  C   UNL     1      49.110   5.602  18.560  0.00  0.00    +0.000 A 
ATOM     24  H   UNL     1      46.610   5.878  20.681  0.00  0.00    +0.000 HD
ENDBRANCH  11  14
ENDBRANCH   9  10
ENDBRANCH   3   9
BRANCH   6  25
ATOM     25  C   UNL     1      44.200   2.933  11.357  0.00  0.00    +0.000 C 
BRANCH  25  26
ATOM     26  N   UNL     1      44.999   2.480  10.236  0.00  0.00    +0.000 N 
ATOM     27  C   UNL     1      44.977   3.143   9.027  0.00  0.00    +0.000 C 
ATOM     28  O   UNL     1      44.274   4.117   8.801  0.00  0.00    +0.000 OA
ATOM     29  H   UNL     1      45.791   1.891  10.465  0.00  0.00    +0.000 HD
BRANCH  27  30
ATOM     30  C   UNL     1      45.902   2.634   7.998  0.00  0.00    +0.000 A 
ATOM     31  C   UNL     1      46.338   3.391   6.931  0.00  0.00    +0.000 A 
ATOM     32  N   UNL     1      47.178   2.933   5.975  0.00  0.00    +0.000 NA
ATOM     33  C   UNL     1      47.596   1.667   6.127  0.00  0.00    +0.000 A 
ATOM     34  N   UNL     1      47.254   0.841   7.130  0.00  0.00    +0.000 NA
ATOM     35  C   UNL     1      46.413   1.354   8.059  0.00  0.00    +0.000 A 
ENDBRANCH  27  30
ENDBRANCH  25  26
ENDBRANCH   6  25
TORSDOF 7
ENDMDL
MODEL 3
REMARK VINA RESULT:    -7.704      1.707      2.061
REMARK INTER + INTRA:         -12.216
REMARK INTER:                 -10.833
REMARK INTRA:                  -1.383
REMARK UNBOUND:                -1.359
REMARK  Name = 
REMARK  8 active torsions:
REMARK  status: ('A' for Active; 'I' for Inactive)
REMARK    1  A    between atoms: C_1  and  O_2
REMARK    2  A    between atoms: O_2  and  C_3
REMARK    3  A    between atoms: C_5  and  C_6
REMARK    4  A    between atoms: C_6  and  N_7
REMARK    5  A    between atoms: C_8  and  C_10
REMARK    6  A    between atoms: C_22  and  C_23
REMARK    7  A    between atoms: C_23  and  N_24
REMARK    8  A    between atoms: C_25  and  C_27
REMARK                            x       y       z     vdW  Elec       q    Type
REMARK                         _______ _______ _______ _____ _____    ______ ____
ROOT
ATOM      1  C   UNL     1      45.627   5.145  12.371  0.00  0.00    +0.000 A 
ATOM      2  C   UNL     1      46.410   5.948  13.225  0.00  0.00    +0.000 A 
ATOM      3  C   UNL     1      46.390   7.349  13.136  0.00  0.00    +0.000 A 
ATOM      4  C   UNL     1      45.599   7.937  12.148  0.00  0.00    +0.000 A 
ATOM      5  C   UNL     1      44.795   7.150  11.319  0.00  0.00    +0.000 A 
ATOM      6  C   UNL     1      44.764   5.748  11.438  0.00  0.00    +0.000 A 
ENDROOT
BRANCH   1   8
ATOM      7  C   UNL     1      46.768   3.385  13.495  0.00  0.00    +0.000 C 
ATOM      8  O   UNL     1      45.712   3.799  12.630  0.00  0.00    +0.000 OA
ENDBRANCH   1   8
BRANCH   3   9
ATOM      9  C   UNL     1      47.215   8.218  14.055  0.00  0.00    +0.000 C 
BRANCH   9  10
ATOM     10  N   UNL     1      48.272   7.461  14.675  0.00  0.00    +0.000 N 
ATOM     11  C   UNL     1      48.807   7.824  15.885  0.00  0.00    +0.000 C 
ATOM     12  O   UNL     1      48.390   8.789  16.520  0.00  0.00    +0.000 OA
ATOM     13  H   UNL     1      48.797   6.835  14.072  0.00  0.00    +0.000 HD
BRANCH  11  14
ATOM     14  C   UNL     1      49.868   6.957  16.416  0.00  0.00    +0.000 A 
ATOM     15  C   UNL     1      51.161   7.447  16.546  0.00  0.00    +0.000 A 
ATOM     16  S   UNL     1      52.248   6.334  17.246  0.00  0.00    +0.000 S 
ATOM     17  C   UNL     1      51.043   5.138  17.349  0.00  0.00    +0.000 A 
ATOM     18  N   UNL     1      51.321   3.905  17.852  0.00  0.00    +0.000 NA
ATOM     19  C   UNL     1      50.321   3.088  17.849  0.00  0.00    +0.000 A 
ATOM     20  N   UNL     1      49.066   3.393  17.391  0.00  0.00    +0.000 N 
ATOM     21  C   UNL     1      48.734   4.630  16.891  0.00  0.00    +0.000 A 
ATOM     22  O   UNL     1      47.594   4.878  16.512  0.00  0.00    +0.000 OA
ATOM     23  C   UNL     1      49.825   5.586  16.870  0.00  0.00    +0.000 A 
ATOM     24  H   UNL     1      48.324   2.710  17.419  0.00  0.00    +0.000 HD
ENDBRANCH  11  14
ENDBRANCH   9  10
ENDBRANCH   3   9
BRANCH   6  25
ATOM     25  C   UNL     1      43.751   5.001  10.602  0.00  0.00    +0.000 C 
BRANCH  25  26
ATOM     26  N   UNL     1      44.373   3.916   9.871  0.00  0.00    +0.000 N 
ATOM     27  C   UNL     1      45.289   4.160   8.869  0.00  0.00    +0.000 C 
ATOM     28  O   UNL     1      45.613   5.281   8.505  0.00  0.00    +0.000 OA
ATOM     29  H   UNL     1      44.367   3.012  10.328  0.00  0.00    +0.000 HD
BRANCH  27  30
ATOM     30  C   UNL     1      45.915   2.969   8.266  0.00  0.00    +0.000 A 
ATOM     31  C   UNL     1      45.659   1.682   8.692  0.00  0.00    +0.000 A 
ATOM     32  N   UNL     1      46.233   0.582   8.155  0.00  0.00    +0.000 NA
ATOM     33  C   UNL     1      47.083   0.807   7.140  0.00  0.00    +0.000 A 
ATOM     34  N   UNL     1      47.398   2.010   6.630  0.00  0.00    +0.000 NA
ATOM     35  C   UNL     1      46.791   3.074   7.206  0.00  0.00    +0.000 A 
ENDBRANCH  27  30
ENDBRANCH  25  26
ENDBRANCH   6  25
TORSDOF 7
ENDMDL
MODEL 4
REMARK VINA RESULT:    -7.458      1.873      2.131
REMARK INTER + INTRA:         -11.869
REMARK INTER:                 -10.785
REMARK INTRA:                  -1.084
REMARK UNBOUND:                -1.359
REMARK  Name = 
REMARK  8 active torsions:
REMARK  status: ('A' for Active; 'I' for Inactive)
REMARK    1  A    between atoms: C_1  and  O_2
REMARK    2  A    between atoms: O_2  and  C_3
REMARK    3  A    between atoms: C_5  and  C_6
REMARK    4  A    between atoms: C_6  and  N_7
REMARK    5  A    between atoms: C_8  and  C_10
REMARK    6  A    between atoms: C_22  and  C_23
REMARK    7  A    between atoms: C_23  and  N_24
REMARK    8  A    between atoms: C_25  and  C_27
REMARK                            x       y       z     vdW  Elec       q    Type
REMARK                         _______ _______ _______ _____ _____    ______ ____
ROOT
ATOM      1  C   UNL     1      45.571   5.365  12.538  0.00  0.00    +0.000 A 
ATOM      2  C   UNL     1      46.369   6.275  13.261  0.00  0.00    +0.000 A 
ATOM      3  C   UNL     1      46.429   7.634  12.914  0.00  0.00    +0.000 A 
ATOM      4  C   UNL     1      45.704   8.064  11.802  0.00  0.00    +0.000 A 
ATOM      5  C   UNL     1      44.884   7.176  11.100  0.00  0.00    +0.000 A 
ATOM      6  C   UNL     1      44.772   5.824  11.476  0.00  0.00    +0.000 A 
ENDROOT
BRANCH   1   8
ATOM      7  C   UNL     1      46.817   3.611  13.555  0.00  0.00    +0.000 C 
ATOM      8  O   UNL     1      45.574   4.089  13.045  0.00  0.00    +0.000 OA
ENDBRANCH   1   8
BRANCH   3   9
ATOM      9  C   UNL     1      47.271   8.619  13.689  0.00  0.00    +0.000 C 
BRANCH   9  10
ATOM     10  N   UNL     1      47.534   8.140  15.022  0.00  0.00    +0.000 N 
ATOM     11  C   UNL     1      48.491   8.716  15.821  0.00  0.00    +0.000 C 
ATOM     12  O   UNL     1      49.145   9.690  15.457  0.00  0.00    +0.000 OA
ATOM     13  H   UNL     1      47.205   7.206  15.244  0.00  0.00    +0.000 HD
BRANCH  11  14
ATOM     14  C   UNL     1      48.648   8.145  17.165  0.00  0.00    +0.000 A 
ATOM     15  C   UNL     1      48.646   8.978  18.276  0.00  0.00    +0.000 A 
ATOM     16  S   UNL     1      48.764   8.144  19.759  0.00  0.00    +0.000 S 
ATOM     17  C   UNL     1      48.878   6.643  18.969  0.00  0.00    +0.000 A 
ATOM     18  N   UNL     1      49.021   5.488  19.675  0.00  0.00    +0.000 NA
ATOM     19  C   UNL     1      49.120   4.426  18.947  0.00  0.00    +0.000 A 
ATOM     20  N   UNL     1      49.087   4.412  17.577  0.00  0.00    +0.000 N 
ATOM     21  C   UNL     1      48.926   5.550  16.823  0.00  0.00    +0.000 A 
ATOM     22  O   UNL     1      48.875   5.499  15.598  0.00  0.00    +0.000 OA
ATOM     23  C   UNL     1      48.812   6.774  17.593  0.00  0.00    +0.000 A 
ATOM     24  H   UNL     1      49.166   3.545  17.066  0.00  0.00    +0.000 HD
ENDBRANCH  11  14
ENDBRANCH   9  10
ENDBRANCH   3   9
BRANCH   6  25
ATOM     25  C   UNL     1      43.747   4.983  10.751  0.00  0.00    +0.000 C 
BRANCH  25  26
ATOM     26  N   UNL     1      44.380   3.924   9.992  0.00  0.00    +0.000 N 
ATOM     27  C   UNL     1      45.245   4.204   8.955  0.00  0.00    +0.000 C 
ATOM     28  O   UNL     1      45.511   5.338   8.582  0.00  0.00    +0.000 OA
ATOM     29  H   UNL     1      44.426   3.019  10.446  0.00  0.00    +0.000 HD
BRANCH  27  30
ATOM     30  C   UNL     1      45.891   3.039   8.324  0.00  0.00    +0.000 A 
ATOM     31  C   UNL     1      46.807   3.144   7.299  0.00  0.00    +0.000 A 
ATOM     32  N   UNL     1      47.399   2.083   6.704  0.00  0.00    +0.000 NA
ATOM     33  C   UNL     1      47.052   0.880   7.186  0.00  0.00    +0.000 A 
ATOM     34  N   UNL     1      46.186   0.653   8.188  0.00  0.00    +0.000 NA
ATOM     35  C   UNL     1      45.626   1.753   8.747  0.00  0.00    +0.000 A 
ENDBRANCH  27  30
ENDBRANCH  25  26
ENDBRANCH   6  25
TORSDOF 7
ENDMDL
MODEL 5
REMARK VINA RESULT:    -7.317      3.114      8.767
REMARK INTER + INTRA:         -11.671
REMARK INTER:                 -10.214
REMARK INTRA:                  -1.457
REMARK UNBOUND:                -1.359
REMARK  Name = 
REMARK  8 active torsions:
REMARK  status: ('A' for Active; 'I' for Inactive)
REMARK    1  A    between atoms: C_1  and  O_2
REMARK    2  A    between atoms: O_2  and  C_3
REMARK    3  A    between atoms: C_5  and  C_6
REMARK    4  A    between atoms: C_6  and  N_7
REMARK    5  A    between atoms: C_8  and  C_10
REMARK    6  A    between atoms: C_22  and  C_23
REMARK    7  A    between atoms: C_23  and  N_24
REMARK    8  A    between atoms: C_25  and  C_27
REMARK                            x       y       z     vdW  Elec       q    Type
REMARK                         _______ _______ _______ _____ _____    ______ ____
ROOT
ATOM      1  C   UNL     1      48.783   6.466  15.635  0.00  0.00    +0.000 A 
ATOM      2  C   UNL     1      48.005   6.603  14.467  0.00  0.00    +0.000 A 
ATOM      3  C   UNL     1      48.399   7.452  13.420  0.00  0.00    +0.000 A 
ATOM      4  C   UNL     1      49.570   8.195  13.576  0.00  0.00    +0.000 A 
ATOM      5  C   UNL     1      50.363   8.040  14.716  0.00  0.00    +0.000 A 
ATOM      6  C   UNL     1      50.008   7.149  15.745  0.00  0.00    +0.000 A 
ENDROOT
BRANCH   1   8
ATOM      7  C   UNL     1      47.560   4.455  15.987  0.00  0.00    +0.000 C 
ATOM      8  O   UNL     1      48.292   5.550  16.533  0.00  0.00    +0.000 OA
ENDBRANCH   1   8
BRANCH   3   9
ATOM      9  C   UNL     1      47.579   7.596  12.160  0.00  0.00    +0.000 C 
BRANCH   9  10
ATOM     10  N   UNL     1      46.876   6.376  11.855  0.00  0.00    +0.000 N 
ATOM     11  C   UNL     1      45.507   6.330  11.782  0.00  0.00    +0.000 C 
ATOM     12  O   UNL     1      44.811   7.331  11.936  0.00  0.00    +0.000 OA
ATOM     13  H   UNL     1      47.392   5.511  11.978  0.00  0.00    +0.000 HD
BRANCH  11  14
ATOM     14  C   UNL     1      44.914   5.028  11.445  0.00  0.00    +0.000 A 
ATOM     15  C   UNL     1      44.178   4.337  12.397  0.00  0.00    +0.000 A 
ATOM     16  S   UNL     1      43.502   2.882  11.817  0.00  0.00    +0.000 S 
ATOM     17  C   UNL     1      44.216   3.096  10.288  0.00  0.00    +0.000 A 
ATOM     18  N   UNL     1      44.046   2.176   9.300  0.00  0.00    +0.000 NA
ATOM     19  C   UNL     1      44.664   2.452   8.201  0.00  0.00    +0.000 A 
ATOM     20  N   UNL     1      45.434   3.568   7.997  0.00  0.00    +0.000 N 
ATOM     21  C   UNL     1      45.619   4.532   8.958  0.00  0.00    +0.000 A 
ATOM     22  O   UNL     1      46.295   5.532   8.735  0.00  0.00    +0.000 OA
ATOM     23  C   UNL     1      44.947   4.268  10.216  0.00  0.00    +0.000 A 
ATOM     24  H   UNL     1      45.889   3.728   7.110  0.00  0.00    +0.000 HD
ENDBRANCH  11  14
ENDBRANCH   9  10
ENDBRANCH   3   9
BRANCH   6  25
ATOM     25  C   UNL     1      51.005   6.940  16.861  0.00  0.00    +0.000 C 
BRANCH  25  26
ATOM     26  N   UNL     1      51.433   5.558  16.930  0.00  0.00    +0.000 N 
ATOM     27  C   UNL     1      51.216   4.796  18.058  0.00  0.00    +0.000 C 
ATOM     28  O   UNL     1      50.691   5.225  19.076  0.00  0.00    +0.000 OA
ATOM     29  H   UNL     1      51.586   5.096  16.040  0.00  0.00    +0.000 HD
BRANCH  27  30
ATOM     30  C   UNL     1      51.619   3.380  17.965  0.00  0.00    +0.000 A 
ATOM     31  C   UNL     1      52.786   2.888  18.512  0.00  0.00    +0.000 A 
ATOM     32  N   UNL     1      53.172   1.595  18.425  0.00  0.00    +0.000 NA
ATOM     33  C   UNL     1      52.329   0.779  17.772  0.00  0.00    +0.000 A 
ATOM     34  N   UNL     1      51.161   1.139  17.214  0.00  0.00    +0.000 NA
ATOM     35  C   UNL     1      50.825   2.446  17.334  0.00  0.00    +0.000 A 
ENDBRANCH  27  30
ENDBRANCH  25  26
ENDBRANCH   6  25
TORSDOF 7
ENDMDL
MODEL 6
REMARK VINA RESULT:    -7.066      3.059      4.257
REMARK INTER + INTRA:         -11.316
REMARK INTER:                  -9.957
REMARK INTRA:                  -1.359
REMARK UNBOUND:                -1.359
REMARK  Name = 
REMARK  8 active torsions:
REMARK  status: ('A' for Active; 'I' for Inactive)
REMARK    1  A    between atoms: C_1  and  O_2
REMARK    2  A    between atoms: O_2  and  C_3
REMARK    3  A    between atoms: C_5  and  C_6
REMARK    4  A    between atoms: C_6  and  N_7
REMARK    5  A    between atoms: C_8  and  C_10
REMARK    6  A    between atoms: C_22  and  C_23
REMARK    7  A    between atoms: C_23  and  N_24
REMARK    8  A    between atoms: C_25  and  C_27
REMARK                            x       y       z     vdW  Elec       q    Type
REMARK                         _______ _______ _______ _____ _____    ______ ____
ROOT
ATOM      1  C   UNL     1      45.425   5.208  12.852  0.00  0.00    +0.000 A 
ATOM      2  C   UNL     1      45.926   6.422  13.365  0.00  0.00    +0.000 A 
ATOM      3  C   UNL     1      45.637   7.652  12.754  0.00  0.00    +0.000 A 
ATOM      4  C   UNL     1      44.865   7.646  11.590  0.00  0.00    +0.000 A 
ATOM      5  C   UNL     1      44.337   6.451  11.094  0.00  0.00    +0.000 A 
ATOM      6  C   UNL     1      44.573   5.220  11.733  0.00  0.00    +0.000 A 
ENDROOT
BRANCH   1   8
ATOM      7  C   UNL     1      47.110   3.986  14.006  0.00  0.00    +0.000 C 
ATOM      8  O   UNL     1      45.747   4.105  13.603  0.00  0.00    +0.000 OA
ENDBRANCH   1   8
BRANCH   3   9
ATOM      9  C   UNL     1      46.159   8.958  13.303  0.00  0.00    +0.000 C 
BRANCH   9  10
ATOM     10  N   UNL     1      47.581   9.075  13.102  0.00  0.00    +0.000 N 
ATOM     11  C   UNL     1      48.471   8.937  14.137  0.00  0.00    +0.000 C 
ATOM     12  O   UNL     1      48.106   8.671  15.280  0.00  0.00    +0.000 OA
ATOM     13  H   UNL     1      47.883   9.537  12.250  0.00  0.00    +0.000 HD
BRANCH  11  14
ATOM     14  C   UNL     1      49.894   9.061  13.795  0.00  0.00    +0.000 A 
ATOM     15  C   UNL     1      50.737   9.811  14.604  0.00  0.00    +0.000 A 
ATOM     16  S   UNL     1      52.368   9.787  14.103  0.00  0.00    +0.000 S 
ATOM     17  C   UNL     1      51.996   8.820  12.754  0.00  0.00    +0.000 A 
ATOM     18  N   UNL     1      52.964   8.442  11.875  0.00  0.00    +0.000 NA
ATOM     19  C   UNL     1      52.538   7.731  10.885  0.00  0.00    +0.000 A 
ATOM     20  N   UNL     1      51.232   7.361  10.694  0.00  0.00    +0.000 N 
ATOM     21  C   UNL     1      50.225   7.704  11.564  0.00  0.00    +0.000 A 
ATOM     22  O   UNL     1      49.070   7.335  11.377  0.00  0.00    +0.000 OA
ATOM     23  C   UNL     1      50.650   8.507  12.695  0.00  0.00    +0.000 A 
ATOM     24  H   UNL     1      50.964   6.800   9.900  0.00  0.00    +0.000 HD
ENDBRANCH  11  14
ENDBRANCH   9  10
ENDBRANCH   3   9
BRANCH   6  25
ATOM     25  C   UNL     1      43.834   4.010  11.208  0.00  0.00    +0.000 C 
BRANCH  25  26
ATOM     26  N   UNL     1      44.687   3.204  10.359  0.00  0.00    +0.000 N 
ATOM     27  C   UNL     1      44.802   3.460   9.008  0.00  0.00    +0.000 C 
ATOM     28  O   UNL     1      44.182   4.341   8.431  0.00  0.00    +0.000 OA
ATOM     29  H   UNL     1      45.419   2.685  10.830  0.00  0.00    +0.000 HD
BRANCH  27  30
ATOM     30  C   UNL     1      45.770   2.623   8.276  0.00  0.00    +0.000 A 
ATOM     31  C   UNL     1      45.850   1.254   8.421  0.00  0.00    +0.000 A 
ATOM     32  N   UNL     1      46.740   0.476   7.764  0.00  0.00    +0.000 NA
ATOM     33  C   UNL     1      47.561   1.120   6.919  0.00  0.00    +0.000 A 
ATOM     34  N   UNL     1      47.566   2.443   6.683  0.00  0.00    +0.000 NA
ATOM     35  C   UNL     1      46.652   3.171   7.368  0.00  0.00    +0.000 A 
ENDBRANCH  27  30
ENDBRANCH  25  26
ENDBRANCH   6  25
TORSDOF 7
ENDMDL
MODEL 7
REMARK VINA RESULT:    -6.959      4.839      9.499
REMARK INTER + INTRA:         -11.166
REMARK INTER:                 -10.228
REMARK INTRA:                  -0.938
REMARK UNBOUND:                -1.359
REMARK  Name = 
REMARK  8 active torsions:
REMARK  status: ('A' for Active; 'I' for Inactive)
REMARK    1  A    between atoms: C_1  and  O_2
REMARK    2  A    between atoms: O_2  and  C_3
REMARK    3  A    between atoms: C_5  and  C_6
REMARK    4  A    between atoms: C_6  and  N_7
REMARK    5  A    between atoms: C_8  and  C_10
REMARK    6  A    between atoms: C_22  and  C_23
REMARK    7  A    between atoms: C_23  and  N_24
REMARK    8  A    between atoms: C_25  and  C_27
REMARK                            x       y       z     vdW  Elec       q    Type
REMARK                         _______ _______ _______ _____ _____    ______ ____
ROOT
ATOM      1  C   UNL     1      50.767   4.340  17.910  0.00  0.00    +0.000 A 
ATOM      2  C   UNL     1      49.379   4.435  17.686  0.00  0.00    +0.000 A 
ATOM      3  C   UNL     1      48.636   3.344  17.208  0.00  0.00    +0.000 A 
ATOM      4  C   UNL     1      49.315   2.159  16.917  0.00  0.00    +0.000 A 
ATOM      5  C   UNL     1      50.686   2.046  17.167  0.00  0.00    +0.000 A 
ATOM      6  C   UNL     1      51.428   3.116  17.701  0.00  0.00    +0.000 A 
ENDROOT
BRANCH   1   8
ATOM      7  C   UNL     1      52.014   6.330  17.524  0.00  0.00    +0.000 C 
ATOM      8  O   UNL     1      51.331   5.475  18.438  0.00  0.00    +0.000 OA
ENDBRANCH   1   8
BRANCH   3   9
ATOM      9  C   UNL     1      47.147   3.432  16.978  0.00  0.00    +0.000 C 
BRANCH   9  10
ATOM     10  N   UNL     1      46.833   4.418  15.976  0.00  0.00    +0.000 N 
ATOM     11  C   UNL     1      46.973   4.156  14.636  0.00  0.00    +0.000 C 
ATOM     12  O   UNL     1      47.336   3.059  14.219  0.00  0.00    +0.000 OA
ATOM     13  H   UNL     1      46.784   5.383  16.287  0.00  0.00    +0.000 HD
BRANCH  11  14
ATOM     14  C   UNL     1      46.602   5.242  13.717  0.00  0.00    +0.000 A 
ATOM     15  C   UNL     1      47.500   6.270  13.464  0.00  0.00    +0.000 A 
ATOM     16  S   UNL     1      46.939   7.403  12.319  0.00  0.00    +0.000 S 
ATOM     17  C   UNL     1      45.452   6.592  12.163  0.00  0.00    +0.000 A 
ATOM     18  N   UNL     1      44.482   7.061  11.333  0.00  0.00    +0.000 NA
ATOM     19  C   UNL     1      43.397   6.361  11.331  0.00  0.00    +0.000 A 
ATOM     20  N   UNL     1      43.194   5.232  12.081  0.00  0.00    +0.000 N 
ATOM     21  C   UNL     1      44.151   4.712  12.919  0.00  0.00    +0.000 A 
ATOM     22  O   UNL     1      43.946   3.685  13.559  0.00  0.00    +0.000 OA
ATOM     23  C   UNL     1      45.391   5.463  12.961  0.00  0.00    +0.000 A 
ATOM     24  H   UNL     1      42.322   4.727  12.031  0.00  0.00    +0.000 HD
ENDBRANCH  11  14
ENDBRANCH   9  10
ENDBRANCH   3   9
BRANCH   6  25
ATOM     25  C   UNL     1      52.867   2.846  18.077  0.00  0.00    +0.000 C 
BRANCH  25  26
ATOM     26  N   UNL     1      53.178   1.435  17.978  0.00  0.00    +0.000 N 
ATOM     27  C   UNL     1      54.255   0.988  17.242  0.00  0.00    +0.000 C 
ATOM     28  O   UNL     1      54.991   1.725  16.602  0.00  0.00    +0.000 OA
ATOM     29  H   UNL     1      52.797   0.845  18.709  0.00  0.00    +0.000 HD
BRANCH  27  30
ATOM     30  C   UNL     1      54.514  -0.462  17.297  0.00  0.00    +0.000 A 
ATOM     31  C   UNL     1      55.007  -1.184  16.230  0.00  0.00    +0.000 A 
ATOM     32  N   UNL     1      55.240  -2.516  16.263  0.00  0.00    +0.000 NA
ATOM     33  C   UNL     1      54.974  -3.123  17.431  0.00  0.00    +0.000 A 
ATOM     34  N   UNL     1      54.508  -2.524  18.540  0.00  0.00    +0.000 NA
ATOM     35  C   UNL     1      54.295  -1.190  18.448  0.00  0.00    +0.000 A 
ENDBRANCH  27  30
ENDBRANCH  25  26
ENDBRANCH   6  25
TORSDOF 7
ENDMDL
MODEL 8
REMARK VINA RESULT:    -6.885      3.920      8.816
REMARK INTER + INTRA:         -11.062
REMARK INTER:                  -9.592
REMARK INTRA:                  -1.470
REMARK UNBOUND:                -1.359
REMARK  Name = 
REMARK  8 active torsions:
REMARK  status: ('A' for Active; 'I' for Inactive)
REMARK    1  A    between atoms: C_1  and  O_2
REMARK    2  A    between atoms: O_2  and  C_3
REMARK    3  A    between atoms: C_5  and  C_6
REMARK    4  A    between atoms: C_6  and  N_7
REMARK    5  A    between atoms: C_8  and  C_10
REMARK    6  A    between atoms: C_22  and  C_23
REMARK    7  A    between atoms: C_23  and  N_24
REMARK    8  A    between atoms: C_25  and  C_27
REMARK                            x       y       z     vdW  Elec       q    Type
REMARK                         _______ _______ _______ _____ _____    ______ ____
ROOT
ATOM      1  C   UNL     1      48.871   5.180  17.000  0.00  0.00    +0.000 A 
ATOM      2  C   UNL     1      48.541   5.890  15.828  0.00  0.00    +0.000 A 
ATOM      3  C   UNL     1      48.609   7.292  15.775  0.00  0.00    +0.000 A 
ATOM      4  C   UNL     1      48.978   7.978  16.933  0.00  0.00    +0.000 A 
ATOM      5  C   UNL     1      49.340   7.280  18.089  0.00  0.00    +0.000 A 
ATOM      6  C   UNL     1      49.330   5.874  18.134  0.00  0.00    +0.000 A 
ENDROOT
BRANCH   1   8
ATOM      7  C   UNL     1      47.548   3.205  17.111  0.00  0.00    +0.000 C 
ATOM      8  O   UNL     1      48.813   3.815  16.865  0.00  0.00    +0.000 OA
ENDBRANCH   1   8
BRANCH   3   9
ATOM      9  C   UNL     1      48.270   8.061  14.521  0.00  0.00    +0.000 C 
BRANCH   9  10
ATOM     10  N   UNL     1      47.051   7.574  13.928  0.00  0.00    +0.000 N 
ATOM     11  C   UNL     1      47.058   6.784  12.806  0.00  0.00    +0.000 C 
ATOM     12  O   UNL     1      48.102   6.420  12.271  0.00  0.00    +0.000 OA
ATOM     13  H   UNL     1      46.196   8.057  14.185  0.00  0.00    +0.000 HD
BRANCH  11  14
ATOM     14  C   UNL     1      45.747   6.341  12.312  0.00  0.00    +0.000 A 
ATOM     15  C   UNL     1      44.888   7.253  11.715  0.00  0.00    +0.000 A 
ATOM     16  S   UNL     1      43.444   6.557  11.133  0.00  0.00    +0.000 S 
ATOM     17  C   UNL     1      43.890   5.019  11.708  0.00  0.00    +0.000 A 
ATOM     18  N   UNL     1      43.068   3.947  11.550  0.00  0.00    +0.000 NA
ATOM     19  C   UNL     1      43.520   2.848  12.055  0.00  0.00    +0.000 A 
ATOM     20  N   UNL     1      44.722   2.722  12.702  0.00  0.00    +0.000 N 
ATOM     21  C   UNL     1      45.592   3.773  12.870  0.00  0.00    +0.000 A 
ATOM     22  O   UNL     1      46.672   3.621  13.433  0.00  0.00    +0.000 OA
ATOM     23  C   UNL     1      45.130   5.034  12.322  0.00  0.00    +0.000 A 
ATOM     24  H   UNL     1      45.020   1.832  13.072  0.00  0.00    +0.000 HD
ENDBRANCH  11  14
ENDBRANCH   9  10
ENDBRANCH   3   9
BRANCH   6  25
ATOM     25  C   UNL     1      49.881   5.213  19.376  0.00  0.00    +0.000 C 
BRANCH  25  26
ATOM     26  N   UNL     1      50.632   4.020  19.045  0.00  0.00    +0.000 N 
ATOM     27  C   UNL     1      51.983   4.075  18.771  0.00  0.00    +0.000 C 
ATOM     28  O   UNL     1      52.628   5.114  18.752  0.00  0.00    +0.000 OA
ATOM     29  H   UNL     1      50.221   3.141  19.339  0.00  0.00    +0.000 HD
BRANCH  27  30
ATOM     30  C   UNL     1      52.646   2.779  18.537  0.00  0.00    +0.000 A 
ATOM     31  C   UNL     1      52.173   1.837  17.647  0.00  0.00    +0.000 A 
ATOM     32  N   UNL     1      52.765   0.641  17.431  0.00  0.00    +0.000 NA
ATOM     33  C   UNL     1      53.884   0.410  18.136  0.00  0.00    +0.000 A 
ATOM     34  N   UNL     1      54.446   1.255  19.017  0.00  0.00    +0.000 NA
ATOM     35  C   UNL     1      53.811   2.438  19.191  0.00  0.00    +0.000 A 
ENDBRANCH  27  30
ENDBRANCH  25  26
ENDBRANCH   6  25
TORSDOF 7
ENDMDL
MODEL 9
REMARK VINA RESULT:    -6.643      5.265      7.984
REMARK INTER + INTRA:         -10.721
REMARK INTER:                  -9.310
REMARK INTRA:                  -1.411
REMARK UNBOUND:                -1.359
REMARK  Name = 
REMARK  8 active torsions:
REMARK  status: ('A' for Active; 'I' for Inactive)
REMARK    1  A    between atoms: C_1  and  O_2
REMARK    2  A    between atoms: O_2  and  C_3
REMARK    3  A    between atoms: C_5  and  C_6
REMARK    4  A    between atoms: C_6  and  N_7
REMARK    5  A    between atoms: C_8  and  C_10
REMARK    6  A    between atoms: C_22  and  C_23
REMARK    7  A    between atoms: C_23  and  N_24
REMARK    8  A    between atoms: C_25  and  C_27
REMARK                            x       y       z     vdW  Elec       q    Type
REMARK                         _______ _______ _______ _____ _____    ______ ____
ROOT
ATOM      1  C   UNL     1      48.630   7.514  13.158  0.00  0.00    +0.000 A 
ATOM      2  C   UNL     1      49.978   7.681  12.782  0.00  0.00    +0.000 A 
ATOM      3  C   UNL     1      50.390   8.766  11.992  0.00  0.00    +0.000 A 
ATOM      4  C   UNL     1      49.419   9.666  11.547  0.00  0.00    +0.000 A 
ATOM      5  C   UNL     1      48.086   9.526  11.943  0.00  0.00    +0.000 A 
ATOM      6  C   UNL     1      47.673   8.475  12.783  0.00  0.00    +0.000 A 
ENDROOT
BRANCH   1   8
ATOM      7  C   UNL     1      48.722   6.620  15.361  0.00  0.00    +0.000 C 
ATOM      8  O   UNL     1      48.405   6.439  13.983  0.00  0.00    +0.000 OA
ENDBRANCH   1   8
BRANCH   3   9
ATOM      9  C   UNL     1      51.833   8.961  11.594  0.00  0.00    +0.000 C 
BRANCH   9  10
ATOM     10  N   UNL     1      52.081   8.451  10.270  0.00  0.00    +0.000 N 
ATOM     11  C   UNL     1      53.191   8.818   9.550  0.00  0.00    +0.000 C 
ATOM     12  O   UNL     1      54.047   9.569  10.009  0.00  0.00    +0.000 OA
ATOM     13  H   UNL     1      51.287   8.050   9.781  0.00  0.00    +0.000 HD
BRANCH  11  14
ATOM     14  C   UNL     1      53.334   8.212   8.219  0.00  0.00    +0.000 A 
ATOM     15  C   UNL     1      53.295   9.014   7.087  0.00  0.00    +0.000 A 
ATOM     16  S   UNL     1      53.552   8.159   5.633  0.00  0.00    +0.000 S 
ATOM     17  C   UNL     1      53.668   6.678   6.460  0.00  0.00    +0.000 A 
ATOM     18  N   UNL     1      53.871   5.513   5.786  0.00  0.00    +0.000 NA
ATOM     19  C   UNL     1      53.915   4.463   6.536  0.00  0.00    +0.000 A 
ATOM     20  N   UNL     1      53.776   4.470   7.900  0.00  0.00    +0.000 N 
ATOM     21  C   UNL     1      53.587   5.623   8.624  0.00  0.00    +0.000 A 
ATOM     22  O   UNL     1      53.492   5.598   9.847  0.00  0.00    +0.000 OA
ATOM     23  C   UNL     1      53.528   6.834   7.827  0.00  0.00    +0.000 A 
ATOM     24  H   UNL     1      53.824   3.613   8.430  0.00  0.00    +0.000 HD
ENDBRANCH  11  14
ENDBRANCH   9  10
ENDBRANCH   3   9
BRANCH   6  25
ATOM     25  C   UNL     1      46.245   8.497  13.276  0.00  0.00    +0.000 C 
BRANCH  25  26
ATOM     26  N   UNL     1      45.631   7.190  13.164  0.00  0.00    +0.000 N 
ATOM     27  C   UNL     1      44.921   6.825  12.039  0.00  0.00    +0.000 C 
ATOM     28  O   UNL     1      44.728   7.569  11.089  0.00  0.00    +0.000 OA
ATOM     29  H   UNL     1      46.011   6.469  13.767  0.00  0.00    +0.000 HD
BRANCH  27  30
ATOM     30  C   UNL     1      44.425   5.437  12.015  0.00  0.00    +0.000 A 
ATOM     31  C   UNL     1      43.476   4.988  11.120  0.00  0.00    +0.000 A 
ATOM     32  N   UNL     1      43.004   3.721  11.093  0.00  0.00    +0.000 NA
ATOM     33  C   UNL     1      43.534   2.885  12.001  0.00  0.00    +0.000 A 
ATOM     34  N   UNL     1      44.473   3.202  12.908  0.00  0.00    +0.000 NA
ATOM     35  C   UNL     1      44.908   4.484  12.887  0.00  0.00    +0.000 A 
ENDBRANCH  27  30
ENDBRANCH  25  26
ENDBRANCH   6  25
TORSDOF 7
ENDMDL
