MODEL 1
REMARK VINA RESULT:    -8.087      0.000      0.000
REMARK INTER + INTRA:         -15.178
REMARK INTER:                 -13.051
REMARK INTRA:                  -2.127
REMARK UNBOUND:                -2.127
REMARK  Name = 
REMARK  11 active torsions:
REMARK  status: ('A' for Active; 'I' for Inactive)
REMARK    1  A    between atoms: C_2  and  C_25
REMARK    2  A    between atoms: N_3  and  C_4
REMARK    3  A    between atoms: C_4  and  C_5
REMARK    4  A    between atoms: C_8  and  C_9
REMARK    5  A    between atoms: C_9  and  N_10
REMARK    6  A    between atoms: N_10  and  C_11
REMARK    7  A    between atoms: N_10  and  C_14
REMARK    8  A    between atoms: C_11  and  C_12
REMARK    9  A    between atoms: C_14  and  C_15
REMARK   10  A    between atoms: C_18  and  C_19
REMARK   11  A    between atoms: C_19  and  O_20
REMARK                            x       y       z     vdW  Elec       q    Type
REMARK                         _______ _______ _______ _____ _____    ______ ____
ROOT
ATOM      1  C   UNL     1      47.930   8.014  13.076  0.00  0.00    +0.000 A 
ATOM      2  C   UNL     1      47.957   7.010  12.101  0.00  0.00    +0.000 A 
ATOM      3  C   UNL     1      46.787   6.638  11.443  0.00  0.00    +0.000 A 
ATOM      4  C   UNL     1      45.568   7.257  11.755  0.00  0.00    +0.000 A 
ATOM      5  C   UNL     1      45.565   8.341  12.643  0.00  0.00    +0.000 A 
ATOM      6  C   UNL     1      46.740   8.722  13.293  0.00  0.00    +0.000 A 
ENDROOT
BRANCH   1   7
ATOM      7  C   UNL     1      49.164   8.297  13.890  0.00  0.00    +0.000 C 
BRANCH   7  10
ATOM      8  O   UNL     1      48.394   8.783  16.561  0.00  0.00    +0.000 OA
ATOM      9  C   UNL     1      48.856   7.687  16.257  0.00  0.00    +0.000 C 
ATOM     10  N   UNL     1      49.300   7.393  14.995  0.00  0.00    +0.000 N 
ATOM     11  H   UNL     1      49.509   6.432  14.754  0.00  0.00    +0.000 HD
BRANCH   9  12
ATOM     12  C   UNL     1      49.026   6.624  17.250  0.00  0.00    +0.000 A 
ATOM     13  C   UNL     1      49.717   6.875  18.426  0.00  0.00    +0.000 A 
ATOM     14  S   UNL     1      49.846   5.514  19.447  0.00  0.00    +0.000 S 
ATOM     15  C   UNL     1      48.939   4.554  18.372  0.00  0.00    +0.000 A 
ATOM     16  N   UNL     1      48.656   3.255  18.660  0.00  0.00    +0.000 NA
ATOM     17  C   UNL     1      47.926   2.662  17.774  0.00  0.00    +0.000 A 
ATOM     18  N   UNL     1      47.457   3.243  16.629  0.00  0.00    +0.000 N 
ATOM     19  C   UNL     1      47.789   4.521  16.256  0.00  0.00    +0.000 A 
ATOM     20  O   UNL     1      47.476   4.955  15.151  0.00  0.00    +0.000 OA
ATOM     21  C   UNL     1      48.568   5.254  17.238  0.00  0.00    +0.000 A 
ATOM     22  H   UNL     1      46.922   2.710  15.960  0.00  0.00    +0.000 HD
ENDBRANCH   9  12
ENDBRANCH   7  10
ENDBRANCH   1   7
BRANCH   4  23
ATOM     23  C   UNL     1      44.274   6.717  11.182  0.00  0.00    +0.000 C 
BRANCH  23  24
ATOM     24  N   UNL     1      44.227   5.240  11.170  0.00  0.00    +0.000 NA
BRANCH  24  25
ATOM     25  C   UNL     1      43.436   4.661  12.285  0.00  0.00    +0.000 C 
BRANCH  25  26
ATOM     26  C   UNL     1      43.701   3.206  12.697  0.00  0.00    +0.000 C 
ATOM     27  F   UNL     1      45.021   2.907  12.558  0.00  0.00    +0.000 F 
ENDBRANCH  25  26
ENDBRANCH  24  25
BRANCH  24  28
ATOM     28  C   UNL     1      43.743   4.730   9.876  0.00  0.00    +0.000 C 
BRANCH  28  29
ATOM     29  C   UNL     1      44.741   3.863   9.137  0.00  0.00    +0.000 A 
ATOM     30  C   UNL     1      44.747   2.471   9.289  0.00  0.00    +0.000 A 
ATOM     31  C   UNL     1      45.641   1.680   8.562  0.00  0.00    +0.000 A 
ATOM     32  C   UNL     1      46.549   2.270   7.668  0.00  0.00    +0.000 A 
ATOM     33  C   UNL     1      46.557   3.662   7.534  0.00  0.00    +0.000 A 
ATOM     34  C   UNL     1      45.660   4.452   8.256  0.00  0.00    +0.000 A 
BRANCH  32  35
ATOM     35  C   UNL     1      47.506   1.427   6.871  0.00  0.00    +0.000 C 
BRANCH  35  36
ATOM     36  O   UNL     1      48.644   2.191   6.491  0.00  0.00    +0.000 OA
ATOM     37  H   UNL     1      49.338   2.002   7.146  0.00  0.00    +0.000 HD
ENDBRANCH  35  36
ENDBRANCH  32  35
ENDBRANCH  28  29
ENDBRANCH  24  28
ENDBRANCH  23  24
ENDBRANCH   4  23
TORSDOF 11
ENDMDL
MODEL 2
REMARK VINA RESULT:    -7.584      1.993      2.354
REMARK INTER + INTRA:         -14.366
REMARK INTER:                 -13.432
REMARK INTRA:                  -0.933
REMARK UNBOUND:                -2.127
REMARK  Name = 
REMARK  11 active torsions:
REMARK  status: ('A' for Active; 'I' for Inactive)
REMARK    1  A    between atoms: C_2  and  C_25
REMARK    2  A    between atoms: N_3  and  C_4
REMARK    3  A    between atoms: C_4  and  C_5
REMARK    4  A    between atoms: C_8  and  C_9
REMARK    5  A    between atoms: C_9  and  N_10
REMARK    6  A    between atoms: N_10  and  C_11
REMARK    7  A    between atoms: N_10  and  C_14
REMARK    8  A    between atoms: C_11  and  C_12
REMARK    9  A    between atoms: C_14  and  C_15
REMARK   10  A    between atoms: C_18  and  C_19
REMARK   11  A    between atoms: C_19  and  O_20
REMARK                            x       y       z     vdW  Elec       q    Type
REMARK                         _______ _______ _______ _____ _____    ______ ____
ROOT
ATOM      1  C   UNL     1      48.114   7.093  14.309  0.00  0.00    +0.000 A 
ATOM      2  C   UNL     1      47.558   5.815  14.185  0.00  0.00    +0.000 A 
ATOM      3  C   UNL     1      46.902   5.445  13.014  0.00  0.00    +0.000 A 
ATOM      4  C   UNL     1      46.784   6.349  11.949  0.00  0.00    +0.000 A 
ATOM      5  C   UNL     1      47.443   7.582  12.029  0.00  0.00    +0.000 A 
ATOM      6  C   UNL     1      48.111   7.948  13.199  0.00  0.00    +0.000 A 
ENDROOT
BRANCH   1   7
ATOM      7  C   UNL     1      48.679   7.536  15.631  0.00  0.00    +0.000 C 
BRANCH   7  10
ATOM      8  O   UNL     1      48.866   6.265  18.145  0.00  0.00    +0.000 OA
ATOM      9  C   UNL     1      49.733   6.060  17.300  0.00  0.00    +0.000 C 
ATOM     10  N   UNL     1      49.739   6.680  16.078  0.00  0.00    +0.000 N 
ATOM     11  H   UNL     1      50.372   6.351  15.359  0.00  0.00    +0.000 HD
BRANCH   9  12
ATOM     12  C   UNL     1      50.870   5.176  17.567  0.00  0.00    +0.000 A 
ATOM     13  C   UNL     1      52.073   5.705  18.008  0.00  0.00    +0.000 A 
ATOM     14  S   UNL     1      53.293   4.534  18.233  0.00  0.00    +0.000 S 
ATOM     15  C   UNL     1      52.237   3.272  17.796  0.00  0.00    +0.000 A 
ATOM     16  N   UNL     1      52.653   1.976  17.799  0.00  0.00    +0.000 NA
ATOM     17  C   UNL     1      51.735   1.123  17.486  0.00  0.00    +0.000 A 
ATOM     18  N   UNL     1      50.444   1.443  17.167  0.00  0.00    +0.000 N 
ATOM     19  C   UNL     1      50.005   2.738  17.066  0.00  0.00    +0.000 A 
ATOM     20  O   UNL     1      48.886   2.991  16.630  0.00  0.00    +0.000 OA
ATOM     21  C   UNL     1      50.981   3.741  17.456  0.00  0.00    +0.000 A 
ATOM     22  H   UNL     1      49.786   0.728  16.895  0.00  0.00    +0.000 HD
ENDBRANCH   9  12
ENDBRANCH   7  10
ENDBRANCH   1   7
BRANCH   4  23
ATOM     23  C   UNL     1      45.905   6.012  10.762  0.00  0.00    +0.000 C 
BRANCH  23  24
ATOM     24  N   UNL     1      44.804   5.091  11.109  0.00  0.00    +0.000 NA
BRANCH  24  25
ATOM     25  C   UNL     1      43.813   5.675  12.049  0.00  0.00    +0.000 C 
BRANCH  25  26
ATOM     26  C   UNL     1      43.052   4.734  12.992  0.00  0.00    +0.000 C 
ATOM     27  F   UNL     1      43.572   3.479  12.932  0.00  0.00    +0.000 F 
ENDBRANCH  25  26
ENDBRANCH  24  25
BRANCH  24  28
ATOM     28  C   UNL     1      44.130   4.582   9.902  0.00  0.00    +0.000 C 
BRANCH  28  29
ATOM     29  C   UNL     1      44.997   3.693   9.034  0.00  0.00    +0.000 A 
ATOM     30  C   UNL     1      45.792   4.229   8.013  0.00  0.00    +0.000 A 
ATOM     31  C   UNL     1      46.625   3.403   7.253  0.00  0.00    +0.000 A 
ATOM     32  C   UNL     1      46.674   2.022   7.500  0.00  0.00    +0.000 A 
ATOM     33  C   UNL     1      45.862   1.485   8.504  0.00  0.00    +0.000 A 
ATOM     34  C   UNL     1      45.034   2.311   9.268  0.00  0.00    +0.000 A 
BRANCH  32  35
ATOM     35  C   UNL     1      47.576   1.126   6.697  0.00  0.00    +0.000 C 
BRANCH  35  36
ATOM     36  O   UNL     1      48.389   1.896   5.820  0.00  0.00    +0.000 OA
ATOM     37  H   UNL     1      49.097   1.307   5.506  0.00  0.00    +0.000 HD
ENDBRANCH  35  36
ENDBRANCH  32  35
ENDBRANCH  28  29
ENDBRANCH  24  28
ENDBRANCH  23  24
ENDBRANCH   4  23
TORSDOF 11
ENDMDL
MODEL 3
REMARK VINA RESULT:    -7.069      1.381      1.615
REMARK INTER + INTRA:         -13.535
REMARK INTER:                 -11.812
REMARK INTRA:                  -1.723
REMARK UNBOUND:                -2.127
REMARK  Name = 
REMARK  11 active torsions:
REMARK  status: ('A' for Active; 'I' for Inactive)
REMARK    1  A    between atoms: C_2  and  C_25
REMARK    2  A    between atoms: N_3  and  C_4
REMARK    3  A    between atoms: C_4  and  C_5
REMARK    4  A    between atoms: C_8  and  C_9
REMARK    5  A    between atoms: C_9  and  N_10
REMARK    6  A    between atoms: N_10  and  C_11
REMARK    7  A    between atoms: N_10  and  C_14
REMARK    8  A    between atoms: C_11  and  C_12
REMARK    9  A    between atoms: C_14  and  C_15
REMARK   10  A    between atoms: C_18  and  C_19
REMARK   11  A    between atoms: C_19  and  O_20
REMARK                            x       y       z     vdW  Elec       q    Type
REMARK                         _______ _______ _______ _____ _____    ______ ____
ROOT
ATOM      1  C   UNL     1      48.697   7.213  13.232  0.00  0.00    +0.000 A 
ATOM      2  C   UNL     1      47.592   6.700  13.921  0.00  0.00    +0.000 A 
ATOM      3  C   UNL     1      46.415   6.403  13.239  0.00  0.00    +0.000 A 
ATOM      4  C   UNL     1      46.320   6.622  11.857  0.00  0.00    +0.000 A 
ATOM      5  C   UNL     1      47.462   7.022  11.153  0.00  0.00    +0.000 A 
ATOM      6  C   UNL     1      48.646   7.308  11.835  0.00  0.00    +0.000 A 
ENDROOT
BRANCH   1   7
ATOM      7  C   UNL     1      49.905   7.678  14.000  0.00  0.00    +0.000 C 
BRANCH   7  10
ATOM      8  O   UNL     1      52.112   7.004  15.627  0.00  0.00    +0.000 OA
ATOM      9  C   UNL     1      50.983   7.006  16.112  0.00  0.00    +0.000 C 
ATOM     10  N   UNL     1      49.860   7.270  15.375  0.00  0.00    +0.000 N 
ATOM     11  H   UNL     1      48.979   7.428  15.851  0.00  0.00    +0.000 HD
BRANCH   9  12
ATOM     12  C   UNL     1      50.751   6.657  17.516  0.00  0.00    +0.000 A 
ATOM     13  C   UNL     1      51.393   7.362  18.522  0.00  0.00    +0.000 A 
ATOM     14  S   UNL     1      51.031   6.796  20.091  0.00  0.00    +0.000 S 
ATOM     15  C   UNL     1      49.963   5.620  19.479  0.00  0.00    +0.000 A 
ATOM     16  N   UNL     1      49.283   4.788  20.313  0.00  0.00    +0.000 NA
ATOM     17  C   UNL     1      48.479   3.975  19.712  0.00  0.00    +0.000 A 
ATOM     18  N   UNL     1      48.293   3.913  18.358  0.00  0.00    +0.000 N 
ATOM     19  C   UNL     1      49.020   4.671  17.475  0.00  0.00    +0.000 A 
ATOM     20  O   UNL     1      48.937   4.481  16.266  0.00  0.00    +0.000 OA
ATOM     21  C   UNL     1      49.906   5.640  18.097  0.00  0.00    +0.000 A 
ATOM     22  H   UNL     1      47.676   3.227  17.951  0.00  0.00    +0.000 HD
ENDBRANCH   9  12
ENDBRANCH   7  10
ENDBRANCH   1   7
BRANCH   4  23
ATOM     23  C   UNL     1      44.983   6.484  11.158  0.00  0.00    +0.000 C 
BRANCH  23  24
ATOM     24  N   UNL     1      44.488   5.092  11.141  0.00  0.00    +0.000 NA
BRANCH  24  25
ATOM     25  C   UNL     1      43.439   4.821  12.157  0.00  0.00    +0.000 C 
BRANCH  25  26
ATOM     26  C   UNL     1      43.528   3.527  12.978  0.00  0.00    +0.000 C 
ATOM     27  F   UNL     1      44.566   2.761  12.545  0.00  0.00    +0.000 F 
ENDBRANCH  25  26
ENDBRANCH  24  25
BRANCH  24  28
ATOM     28  C   UNL     1      44.018   4.706   9.800  0.00  0.00    +0.000 C 
BRANCH  28  29
ATOM     29  C   UNL     1      44.966   3.797   9.045  0.00  0.00    +0.000 A 
ATOM     30  C   UNL     1      44.947   2.410   9.235  0.00  0.00    +0.000 A 
ATOM     31  C   UNL     1      45.793   1.580   8.494  0.00  0.00    +0.000 A 
ATOM     32  C   UNL     1      46.677   2.126   7.549  0.00  0.00    +0.000 A 
ATOM     33  C   UNL     1      46.710   3.513   7.378  0.00  0.00    +0.000 A 
ATOM     34  C   UNL     1      45.861   4.342   8.113  0.00  0.00    +0.000 A 
BRANCH  32  35
ATOM     35  C   UNL     1      47.582   1.240   6.738  0.00  0.00    +0.000 C 
BRANCH  35  36
ATOM     36  O   UNL     1      48.340   2.015   5.817  0.00  0.00    +0.000 OA
ATOM     37  H   UNL     1      47.768   2.171   5.046  0.00  0.00    +0.000 HD
ENDBRANCH  35  36
ENDBRANCH  32  35
ENDBRANCH  28  29
ENDBRANCH  24  28
ENDBRANCH  23  24
ENDBRANCH   4  23
TORSDOF 11
ENDMDL
MODEL 4
REMARK VINA RESULT:    -6.927      4.311      6.062
REMARK INTER + INTRA:         -13.306
REMARK INTER:                 -11.627
REMARK INTRA:                  -1.679
REMARK UNBOUND:                -2.127
REMARK  Name = 
REMARK  11 active torsions:
REMARK  status: ('A' for Active; 'I' for Inactive)
REMARK    1  A    between atoms: C_2  and  C_25
REMARK    2  A    between atoms: N_3  and  C_4
REMARK    3  A    between atoms: C_4  and  C_5
REMARK    4  A    between atoms: C_8  and  C_9
REMARK    5  A    between atoms: C_9  and  N_10
REMARK    6  A    between atoms: N_10  and  C_11
REMARK    7  A    between atoms: N_10  and  C_14
REMARK    8  A    between atoms: C_11  and  C_12
REMARK    9  A    between atoms: C_14  and  C_15
REMARK   10  A    between atoms: C_18  and  C_19
REMARK   11  A    between atoms: C_19  and  O_20
REMARK                            x       y       z     vdW  Elec       q    Type
REMARK                         _______ _______ _______ _____ _____    ______ ____
ROOT
ATOM      1  C   UNL     1      47.960   8.507  12.434  0.00  0.00    +0.000 A 
ATOM      2  C   UNL     1      46.729   8.996  12.886  0.00  0.00    +0.000 A 
ATOM      3  C   UNL     1      45.547   8.333  12.563  0.00  0.00    +0.000 A 
ATOM      4  C   UNL     1      45.577   7.172  11.776  0.00  0.00    +0.000 A 
ATOM      5  C   UNL     1      46.815   6.620  11.426  0.00  0.00    +0.000 A 
ATOM      6  C   UNL     1      47.999   7.278  11.761  0.00  0.00    +0.000 A 
ENDROOT
BRANCH   1   7
ATOM      7  C   UNL     1      49.210   9.315  12.654  0.00  0.00    +0.000 C 
BRANCH   7  10
ATOM      8  O   UNL     1      51.698  10.624  12.399  0.00  0.00    +0.000 OA
ATOM      9  C   UNL     1      51.227  10.028  11.433  0.00  0.00    +0.000 C 
ATOM     10  N   UNL     1      50.003   9.415  11.464  0.00  0.00    +0.000 N 
ATOM     11  H   UNL     1      49.739   8.797  10.706  0.00  0.00    +0.000 HD
BRANCH   9  12
ATOM     12  C   UNL     1      51.923   9.987  10.144  0.00  0.00    +0.000 A 
ATOM     13  C   UNL     1      52.241  11.166   9.488  0.00  0.00    +0.000 A 
ATOM     14  S   UNL     1      53.017  10.925   7.988  0.00  0.00    +0.000 S 
ATOM     15  C   UNL     1      52.999   9.235   8.189  0.00  0.00    +0.000 A 
ATOM     16  N   UNL     1      53.541   8.411   7.251  0.00  0.00    +0.000 NA
ATOM     17  C   UNL     1      53.493   7.156   7.555  0.00  0.00    +0.000 A 
ATOM     18  N   UNL     1      52.951   6.648   8.704  0.00  0.00    +0.000 N 
ATOM     19  C   UNL     1      52.318   7.432   9.634  0.00  0.00    +0.000 A 
ATOM     20  O   UNL     1      51.711   6.927  10.574  0.00  0.00    +0.000 OA
ATOM     21  C   UNL     1      52.384   8.859   9.369  0.00  0.00    +0.000 A 
ATOM     22  H   UNL     1      52.912   5.653   8.861  0.00  0.00    +0.000 HD
ENDBRANCH   9  12
ENDBRANCH   7  10
ENDBRANCH   1   7
BRANCH   4  23
ATOM     23  C   UNL     1      44.284   6.569  11.266  0.00  0.00    +0.000 C 
BRANCH  23  24
ATOM     24  N   UNL     1      44.303   5.092  11.268  0.00  0.00    +0.000 NA
BRANCH  24  25
ATOM     25  C   UNL     1      43.576   4.488  12.413  0.00  0.00    +0.000 C 
BRANCH  25  26
ATOM     26  C   UNL     1      43.754   2.989  12.689  0.00  0.00    +0.000 C 
ATOM     27  F   UNL     1      42.992   2.256  11.833  0.00  0.00    +0.000 F 
ENDBRANCH  25  26
ENDBRANCH  24  25
BRANCH  24  28
ATOM     28  C   UNL     1      43.801   4.548   9.995  0.00  0.00    +0.000 C 
BRANCH  28  29
ATOM     29  C   UNL     1      44.839   3.800   9.184  0.00  0.00    +0.000 A 
ATOM     30  C   UNL     1      44.929   2.403   9.231  0.00  0.00    +0.000 A 
ATOM     31  C   UNL     1      45.859   1.724   8.440  0.00  0.00    +0.000 A 
ATOM     32  C   UNL     1      46.719   2.433   7.586  0.00  0.00    +0.000 A 
ATOM     33  C   UNL     1      46.644   3.829   7.557  0.00  0.00    +0.000 A 
ATOM     34  C   UNL     1      45.711   4.508   8.344  0.00  0.00    +0.000 A 
BRANCH  32  35
ATOM     35  C   UNL     1      47.715   1.711   6.720  0.00  0.00    +0.000 C 
BRANCH  35  36
ATOM     36  O   UNL     1      48.668   2.624   6.191  0.00  0.00    +0.000 OA
ATOM     37  H   UNL     1      48.487   2.697   5.238  0.00  0.00    +0.000 HD
ENDBRANCH  35  36
ENDBRANCH  32  35
ENDBRANCH  28  29
ENDBRANCH  24  28
ENDBRANCH  23  24
ENDBRANCH   4  23
TORSDOF 11
ENDMDL
MODEL 5
REMARK VINA RESULT:    -6.778      2.362      3.094
REMARK INTER + INTRA:         -13.065
REMARK INTER:                 -11.471
REMARK INTRA:                  -1.594
REMARK UNBOUND:                -2.127
REMARK  Name = 
REMARK  11 active torsions:
REMARK  status: ('A' for Active; 'I' for Inactive)
REMARK    1  A    between atoms: C_2  and  C_25
REMARK    2  A    between atoms: N_3  and  C_4
REMARK    3  A    between atoms: C_4  and  C_5
REMARK    4  A    between atoms: C_8  and  C_9
REMARK    5  A    between atoms: C_9  and  N_10
REMARK    6  A    between atoms: N_10  and  C_11
REMARK    7  A    between atoms: N_10  and  C_14
REMARK    8  A    between atoms: C_11  and  C_12
REMARK    9  A    between atoms: C_14  and  C_15
REMARK   10  A    between atoms: C_18  and  C_19
REMARK   11  A    between atoms: C_19  and  O_20
REMARK                            x       y       z     vdW  Elec       q    Type
REMARK                         _______ _______ _______ _____ _____    ______ ____
ROOT
ATOM      1  C   UNL     1      48.223   8.832  12.741  0.00  0.00    +0.000 A 
ATOM      2  C   UNL     1      46.957   9.157  13.240  0.00  0.00    +0.000 A 
ATOM      3  C   UNL     1      45.849   8.381  12.906  0.00  0.00    +0.000 A 
ATOM      4  C   UNL     1      45.988   7.272  12.060  0.00  0.00    +0.000 A 
ATOM      5  C   UNL     1      47.271   6.879  11.659  0.00  0.00    +0.000 A 
ATOM      6  C   UNL     1      48.383   7.650  12.005  0.00  0.00    +0.000 A 
ENDROOT
BRANCH   1   7
ATOM      7  C   UNL     1      49.380   9.764  12.979  0.00  0.00    +0.000 C 
BRANCH   7  10
ATOM      8  O   UNL     1      51.890   8.505  12.687  0.00  0.00    +0.000 OA
ATOM      9  C   UNL     1      51.463   8.746  13.814  0.00  0.00    +0.000 C 
ATOM     10  N   UNL     1      50.233   9.306  14.037  0.00  0.00    +0.000 N 
ATOM     11  H   UNL     1      50.001   9.639  14.964  0.00  0.00    +0.000 HD
BRANCH   9  12
ATOM     12  C   UNL     1      52.222   8.387  15.014  0.00  0.00    +0.000 A 
ATOM     13  C   UNL     1      53.450   8.979  15.263  0.00  0.00    +0.000 A 
ATOM     14  S   UNL     1      54.205   8.415  16.686  0.00  0.00    +0.000 S 
ATOM     15  C   UNL     1      52.890   7.394  17.043  0.00  0.00    +0.000 A 
ATOM     16  N   UNL     1      52.884   6.625  18.166  0.00  0.00    +0.000 NA
ATOM     17  C   UNL     1      51.805   5.933  18.329  0.00  0.00    +0.000 A 
ATOM     18  N   UNL     1      50.737   5.934  17.476  0.00  0.00    +0.000 N 
ATOM     19  C   UNL     1      50.735   6.625  16.291  0.00  0.00    +0.000 A 
ATOM     20  O   UNL     1      49.825   6.481  15.480  0.00  0.00    +0.000 OA
ATOM     21  C   UNL     1      51.903   7.462  16.077  0.00  0.00    +0.000 A 
ATOM     22  H   UNL     1      49.939   5.340  17.644  0.00  0.00    +0.000 HD
ENDBRANCH   9  12
ENDBRANCH   7  10
ENDBRANCH   1   7
BRANCH   4  23
ATOM     23  C   UNL     1      44.759   6.552  11.544  0.00  0.00    +0.000 C 
BRANCH  23  24
ATOM     24  N   UNL     1      44.999   5.116  11.296  0.00  0.00    +0.000 NA
BRANCH  24  25
ATOM     25  C   UNL     1      44.728   4.254  12.475  0.00  0.00    +0.000 C 
BRANCH  25  26
ATOM     26  C   UNL     1      43.350   3.589  12.598  0.00  0.00    +0.000 C 
ATOM     27  F   UNL     1      43.473   2.234  12.562  0.00  0.00    +0.000 F 
ENDBRANCH  25  26
ENDBRANCH  24  25
BRANCH  24  28
ATOM     28  C   UNL     1      44.242   4.640  10.126  0.00  0.00    +0.000 C 
BRANCH  28  29
ATOM     29  C   UNL     1      45.041   3.766   9.181  0.00  0.00    +0.000 A 
ATOM     30  C   UNL     1      45.852   4.325   8.186  0.00  0.00    +0.000 A 
ATOM     31  C   UNL     1      46.622   3.508   7.354  0.00  0.00    +0.000 A 
ATOM     32  C   UNL     1      46.592   2.112   7.503  0.00  0.00    +0.000 A 
ATOM     33  C   UNL     1      45.764   1.554   8.482  0.00  0.00    +0.000 A 
ATOM     34  C   UNL     1      44.999   2.371   9.317  0.00  0.00    +0.000 A 
BRANCH  32  35
ATOM     35  C   UNL     1      47.426   1.224   6.621  0.00  0.00    +0.000 C 
BRANCH  35  36
ATOM     36  O   UNL     1      48.513   1.954   6.066  0.00  0.00    +0.000 OA
ATOM     37  H   UNL     1      49.145   1.298   5.724  0.00  0.00    +0.000 HD
ENDBRANCH  35  36
ENDBRANCH  32  35
ENDBRANCH  28  29
ENDBRANCH  24  28
ENDBRANCH  23  24
ENDBRANCH   4  23
TORSDOF 11
ENDMDL
MODEL 6
REMARK VINA RESULT:    -6.764      1.842      2.703
REMARK INTER + INTRA:         -13.043
REMARK INTER:                 -11.728
REMARK INTRA:                  -1.315
REMARK UNBOUND:                -2.127
REMARK  Name = 
REMARK  11 active torsions:
REMARK  status: ('A' for Active; 'I' for Inactive)
REMARK    1  A    between atoms: C_2  and  C_25
REMARK    2  A    between atoms: N_3  and  C_4
REMARK    3  A    between atoms: C_4  and  C_5
REMARK    4  A    between atoms: C_8  and  C_9
REMARK    5  A    between atoms: C_9  and  N_10
REMARK    6  A    between atoms: N_10  and  C_11
REMARK    7  A    between atoms: N_10  and  C_14
REMARK    8  A    between atoms: C_11  and  C_12
REMARK    9  A    between atoms: C_14  and  C_15
REMARK   10  A    between atoms: C_18  and  C_19
REMARK   11  A    between atoms: C_19  and  O_20
REMARK                            x       y       z     vdW  Elec       q    Type
REMARK                         _______ _______ _______ _____ _____    ______ ____
ROOT
ATOM      1  C   UNL     1      48.197   8.136  12.833  0.00  0.00    +0.000 A 
ATOM      2  C   UNL     1      48.085   6.992  12.035  0.00  0.00    +0.000 A 
ATOM      3  C   UNL     1      46.844   6.597  11.542  0.00  0.00    +0.000 A 
ATOM      4  C   UNL     1      45.691   7.337  11.844  0.00  0.00    +0.000 A 
ATOM      5  C   UNL     1      45.823   8.544  12.542  0.00  0.00    +0.000 A 
ATOM      6  C   UNL     1      47.069   8.945  13.026  0.00  0.00    +0.000 A 
ENDROOT
BRANCH   1   7
ATOM      7  C   UNL     1      49.511   8.462  13.489  0.00  0.00    +0.000 C 
BRANCH   7  10
ATOM      8  O   UNL     1      49.115   6.039  14.881  0.00  0.00    +0.000 OA
ATOM      9  C   UNL     1      49.311   7.073  15.514  0.00  0.00    +0.000 C 
ATOM     10  N   UNL     1      49.460   8.294  14.912  0.00  0.00    +0.000 N 
ATOM     11  H   UNL     1      49.788   9.081  15.460  0.00  0.00    +0.000 HD
BRANCH   9  12
ATOM     12  C   UNL     1      49.336   7.083  16.979  0.00  0.00    +0.000 A 
ATOM     13  C   UNL     1      49.991   6.075  17.669  0.00  0.00    +0.000 A 
ATOM     14  S   UNL     1      49.887   6.229  19.365  0.00  0.00    +0.000 S 
ATOM     15  C   UNL     1      49.003   7.678  19.233  0.00  0.00    +0.000 A 
ATOM     16  N   UNL     1      48.604   8.360  20.341  0.00  0.00    +0.000 NA
ATOM     17  C   UNL     1      47.978   9.462  20.090  0.00  0.00    +0.000 A 
ATOM     18  N   UNL     1      47.711   9.943  18.838  0.00  0.00    +0.000 N 
ATOM     19  C   UNL     1      48.017   9.248  17.695  0.00  0.00    +0.000 A 
ATOM     20  O   UNL     1      47.626   9.637  16.599  0.00  0.00    +0.000 OA
ATOM     21  C   UNL     1      48.767   8.023  17.915  0.00  0.00    +0.000 A 
ATOM     22  H   UNL     1      47.184  10.794  18.712  0.00  0.00    +0.000 HD
ENDBRANCH   9  12
ENDBRANCH   7  10
ENDBRANCH   1   7
BRANCH   4  23
ATOM     23  C   UNL     1      44.325   6.799  11.472  0.00  0.00    +0.000 C 
BRANCH  23  24
ATOM     24  N   UNL     1      44.283   5.322  11.435  0.00  0.00    +0.000 NA
BRANCH  24  25
ATOM     25  C   UNL     1      43.632   4.716  12.624  0.00  0.00    +0.000 C 
BRANCH  25  26
ATOM     26  C   UNL     1      43.822   3.215  12.881  0.00  0.00    +0.000 C 
ATOM     27  F   UNL     1      45.117   2.857  12.665  0.00  0.00    +0.000 F 
ENDBRANCH  25  26
ENDBRANCH  24  25
BRANCH  24  28
ATOM     28  C   UNL     1      43.651   4.834  10.198  0.00  0.00    +0.000 C 
BRANCH  28  29
ATOM     29  C   UNL     1      44.521   3.900   9.382  0.00  0.00    +0.000 A 
ATOM     30  C   UNL     1      45.477   4.395   8.486  0.00  0.00    +0.000 A 
ATOM     31  C   UNL     1      46.306   3.521   7.777  0.00  0.00    +0.000 A 
ATOM     32  C   UNL     1      46.191   2.132   7.952  0.00  0.00    +0.000 A 
ATOM     33  C   UNL     1      45.220   1.639   8.829  0.00  0.00    +0.000 A 
ATOM     34  C   UNL     1      44.396   2.512   9.542  0.00  0.00    +0.000 A 
BRANCH  32  35
ATOM     35  C   UNL     1      47.087   1.184   7.204  0.00  0.00    +0.000 C 
BRANCH  35  36
ATOM     36  O   UNL     1      46.934  -0.141   7.700  0.00  0.00    +0.000 OA
ATOM     37  H   UNL     1      46.981  -0.083   8.670  0.00  0.00    +0.000 HD
ENDBRANCH  35  36
ENDBRANCH  32  35
ENDBRANCH  28  29
ENDBRANCH  24  28
ENDBRANCH  23  24
ENDBRANCH   4  23
TORSDOF 11
ENDMDL
MODEL 7
REMARK VINA RESULT:    -6.639      4.679      6.195
REMARK INTER + INTRA:         -12.842
REMARK INTER:                 -11.245
REMARK INTRA:                  -1.596
REMARK UNBOUND:                -2.127
REMARK  Name = 
REMARK  11 active torsions:
REMARK  status: ('A' for Active; 'I' for Inactive)
REMARK    1  A    between atoms: C_2  and  C_25
REMARK    2  A    between atoms: N_3  and  C_4
REMARK    3  A    between atoms: C_4  and  C_5
REMARK    4  A    between atoms: C_8  and  C_9
REMARK    5  A    between atoms: C_9  and  N_10
REMARK    6  A    between atoms: N_10  and  C_11
REMARK    7  A    between atoms: N_10  and  C_14
REMARK    8  A    between atoms: C_11  and  C_12
REMARK    9  A    between atoms: C_14  and  C_15
REMARK   10  A    between atoms: C_18  and  C_19
REMARK   11  A    between atoms: C_19  and  O_20
REMARK                            x       y       z     vdW  Elec       q    Type
REMARK                         _______ _______ _______ _____ _____    ______ ____
ROOT
ATOM      1  C   UNL     1      49.234   8.775  11.685  0.00  0.00    +0.000 A 
ATOM      2  C   UNL     1      48.108   9.593  11.829  0.00  0.00    +0.000 A 
ATOM      3  C   UNL     1      46.843   9.028  11.973  0.00  0.00    +0.000 A 
ATOM      4  C   UNL     1      46.682   7.635  11.967  0.00  0.00    +0.000 A 
ATOM      5  C   UNL     1      47.821   6.820  11.942  0.00  0.00    +0.000 A 
ATOM      6  C   UNL     1      49.090   7.387  11.811  0.00  0.00    +0.000 A 
ENDROOT
BRANCH   1   7
ATOM      7  C   UNL     1      50.570   9.394  11.373  0.00  0.00    +0.000 C 
BRANCH   7  10
ATOM      8  O   UNL     1      52.587   9.582   9.407  0.00  0.00    +0.000 OA
ATOM      9  C   UNL     1      52.543   8.592  10.133  0.00  0.00    +0.000 C 
ATOM     10  N   UNL     1      51.565   8.405  11.073  0.00  0.00    +0.000 N 
ATOM     11  H   UNL     1      51.669   7.665  11.756  0.00  0.00    +0.000 HD
BRANCH   9  12
ATOM     12  C   UNL     1      53.509   7.499   9.997  0.00  0.00    +0.000 A 
ATOM     13  C   UNL     1      54.469   7.295  10.976  0.00  0.00    +0.000 A 
ATOM     14  S   UNL     1      55.528   6.002  10.635  0.00  0.00    +0.000 S 
ATOM     15  C   UNL     1      54.706   5.639   9.189  0.00  0.00    +0.000 A 
ATOM     16  N   UNL     1      55.097   4.600   8.401  0.00  0.00    +0.000 NA
ATOM     17  C   UNL     1      54.357   4.418   7.358  0.00  0.00    +0.000 A 
ATOM     18  N   UNL     1      53.268   5.176   7.026  0.00  0.00    +0.000 N 
ATOM     19  C   UNL     1      52.891   6.284   7.742  0.00  0.00    +0.000 A 
ATOM     20  O   UNL     1      52.005   7.027   7.331  0.00  0.00    +0.000 OA
ATOM     21  C   UNL     1      53.657   6.510   8.956  0.00  0.00    +0.000 A 
ATOM     22  H   UNL     1      52.756   5.002   6.175  0.00  0.00    +0.000 HD
ENDBRANCH   9  12
ENDBRANCH   7  10
ENDBRANCH   1   7
BRANCH   4  23
ATOM     23  C   UNL     1      45.293   7.032  11.926  0.00  0.00    +0.000 C 
BRANCH  23  24
ATOM     24  N   UNL     1      45.312   5.559  11.821  0.00  0.00    +0.000 NA
BRANCH  24  25
ATOM     25  C   UNL     1      45.019   4.867  13.103  0.00  0.00    +0.000 C 
BRANCH  25  26
ATOM     26  C   UNL     1      46.126   4.026  13.754  0.00  0.00    +0.000 C 
ATOM     27  F   UNL     1      46.386   2.922  13.002  0.00  0.00    +0.000 F 
ENDBRANCH  25  26
ENDBRANCH  24  25
BRANCH  24  28
ATOM     28  C   UNL     1      44.406   5.084  10.762  0.00  0.00    +0.000 C 
BRANCH  28  29
ATOM     29  C   UNL     1      45.073   4.216   9.715  0.00  0.00    +0.000 A 
ATOM     30  C   UNL     1      44.938   2.822   9.734  0.00  0.00    +0.000 A 
ATOM     31  C   UNL     1      45.517   2.038   8.733  0.00  0.00    +0.000 A 
ATOM     32  C   UNL     1      46.246   2.636   7.693  0.00  0.00    +0.000 A 
ATOM     33  C   UNL     1      46.400   4.026   7.688  0.00  0.00    +0.000 A 
ATOM     34  C   UNL     1      45.817   4.811   8.685  0.00  0.00    +0.000 A 
BRANCH  32  35
ATOM     35  C   UNL     1      46.863   1.803   6.604  0.00  0.00    +0.000 C 
BRANCH  35  36
ATOM     36  O   UNL     1      48.168   1.379   6.980  0.00  0.00    +0.000 OA
ATOM     37  H   UNL     1      48.588   1.022   6.179  0.00  0.00    +0.000 HD
ENDBRANCH  35  36
ENDBRANCH  32  35
ENDBRANCH  28  29
ENDBRANCH  24  28
ENDBRANCH  23  24
ENDBRANCH   4  23
TORSDOF 11
ENDMDL
MODEL 8
REMARK VINA RESULT:    -6.352      4.000      8.071
REMARK INTER + INTRA:         -12.377
REMARK INTER:                 -10.560
REMARK INTRA:                  -1.818
REMARK UNBOUND:                -2.127
REMARK  Name = 
REMARK  11 active torsions:
REMARK  status: ('A' for Active; 'I' for Inactive)
REMARK    1  A    between atoms: C_2  and  C_25
REMARK    2  A    between atoms: N_3  and  C_4
REMARK    3  A    between atoms: C_4  and  C_5
REMARK    4  A    between atoms: C_8  and  C_9
REMARK    5  A    between atoms: C_9  and  N_10
REMARK    6  A    between atoms: N_10  and  C_11
REMARK    7  A    between atoms: N_10  and  C_14
REMARK    8  A    between atoms: C_11  and  C_12
REMARK    9  A    between atoms: C_14  and  C_15
REMARK   10  A    between atoms: C_18  and  C_19
REMARK   11  A    between atoms: C_19  and  O_20
REMARK                            x       y       z     vdW  Elec       q    Type
REMARK                         _______ _______ _______ _____ _____    ______ ____
ROOT
ATOM      1  C   UNL     1      49.389   7.986  14.634  0.00  0.00    +0.000 A 
ATOM      2  C   UNL     1      48.405   8.901  15.027  0.00  0.00    +0.000 A 
ATOM      3  C   UNL     1      48.249   9.231  16.371  0.00  0.00    +0.000 A 
ATOM      4  C   UNL     1      49.070   8.647  17.346  0.00  0.00    +0.000 A 
ATOM      5  C   UNL     1      50.129   7.826  16.939  0.00  0.00    +0.000 A 
ATOM      6  C   UNL     1      50.292   7.504  15.590  0.00  0.00    +0.000 A 
ENDROOT
BRANCH   1   7
ATOM      7  C   UNL     1      49.443   7.518  13.205  0.00  0.00    +0.000 C 
BRANCH   7  10
ATOM      8  O   UNL     1      47.925   5.213  13.798  0.00  0.00    +0.000 OA
ATOM      9  C   UNL     1      47.448   6.079  13.067  0.00  0.00    +0.000 C 
ATOM     10  N   UNL     1      48.143   7.198  12.692  0.00  0.00    +0.000 N 
ATOM     11  H   UNL     1      47.651   7.956  12.235  0.00  0.00    +0.000 HD
BRANCH   9  12
ATOM     12  C   UNL     1      46.110   5.940  12.487  0.00  0.00    +0.000 A 
ATOM     13  C   UNL     1      45.464   7.045  11.956  0.00  0.00    +0.000 A 
ATOM     14  S   UNL     1      43.904   6.703  11.358  0.00  0.00    +0.000 S 
ATOM     15  C   UNL     1      44.058   5.053  11.744  0.00  0.00    +0.000 A 
ATOM     16  N   UNL     1      43.060   4.170  11.467  0.00  0.00    +0.000 NA
ATOM     17  C   UNL     1      43.332   2.947  11.777  0.00  0.00    +0.000 A 
ATOM     18  N   UNL     1      44.504   2.522  12.341  0.00  0.00    +0.000 N 
ATOM     19  C   UNL     1      45.501   3.386  12.717  0.00  0.00    +0.000 A 
ATOM     20  O   UNL     1      46.469   2.989  13.357  0.00  0.00    +0.000 OA
ATOM     21  C   UNL     1      45.271   4.772  12.346  0.00  0.00    +0.000 A 
ATOM     22  H   UNL     1      44.636   1.555  12.593  0.00  0.00    +0.000 HD
ENDBRANCH   9  12
ENDBRANCH   7  10
ENDBRANCH   1   7
BRANCH   4  23
ATOM     23  C   UNL     1      48.771   8.859  18.816  0.00  0.00    +0.000 C 
BRANCH  23  24
ATOM     24  N   UNL     1      49.218   7.731  19.658  0.00  0.00    +0.000 NA
BRANCH  24  25
ATOM     25  C   UNL     1      49.789   8.152  20.963  0.00  0.00    +0.000 C 
BRANCH  25  26
ATOM     26  C   UNL     1      51.316   8.167  21.127  0.00  0.00    +0.000 C 
ATOM     27  F   UNL     1      51.898   7.335  20.221  0.00  0.00    +0.000 F 
ENDBRANCH  25  26
ENDBRANCH  24  25
BRANCH  24  28
ATOM     28  C   UNL     1      48.137   6.752  19.862  0.00  0.00    +0.000 C 
BRANCH  28  29
ATOM     29  C   UNL     1      48.204   5.550  18.942  0.00  0.00    +0.000 A 
ATOM     30  C   UNL     1      47.087   5.139  18.203  0.00  0.00    +0.000 A 
ATOM     31  C   UNL     1      47.178   4.059  17.321  0.00  0.00    +0.000 A 
ATOM     32  C   UNL     1      48.391   3.369  17.162  0.00  0.00    +0.000 A 
ATOM     33  C   UNL     1      49.498   3.767  17.918  0.00  0.00    +0.000 A 
ATOM     34  C   UNL     1      49.409   4.849  18.796  0.00  0.00    +0.000 A 
BRANCH  32  35
ATOM     35  C   UNL     1      48.502   2.214  16.205  0.00  0.00    +0.000 C 
BRANCH  35  36
ATOM     36  O   UNL     1      49.841   1.737  16.156  0.00  0.00    +0.000 OA
ATOM     37  H   UNL     1      49.901   1.154  15.379  0.00  0.00    +0.000 HD
ENDBRANCH  35  36
ENDBRANCH  32  35
ENDBRANCH  28  29
ENDBRANCH  24  28
ENDBRANCH  23  24
ENDBRANCH   4  23
TORSDOF 11
ENDMDL
MODEL 9
REMARK VINA RESULT:    -6.317      3.492      8.523
REMARK INTER + INTRA:         -12.322
REMARK INTER:                 -10.108
REMARK INTRA:                  -2.214
REMARK UNBOUND:                -2.127
REMARK  Name = 
REMARK  11 active torsions:
REMARK  status: ('A' for Active; 'I' for Inactive)
REMARK    1  A    between atoms: C_2  and  C_25
REMARK    2  A    between atoms: N_3  and  C_4
REMARK    3  A    between atoms: C_4  and  C_5
REMARK    4  A    between atoms: C_8  and  C_9
REMARK    5  A    between atoms: C_9  and  N_10
REMARK    6  A    between atoms: N_10  and  C_11
REMARK    7  A    between atoms: N_10  and  C_14
REMARK    8  A    between atoms: C_11  and  C_12
REMARK    9  A    between atoms: C_14  and  C_15
REMARK   10  A    between atoms: C_18  and  C_19
REMARK   11  A    between atoms: C_19  and  O_20
REMARK                            x       y       z     vdW  Elec       q    Type
REMARK                         _______ _______ _______ _____ _____    ______ ____
ROOT
ATOM      1  C   UNL     1      48.454   8.107  13.153  0.00  0.00    +0.000 A 
ATOM      2  C   UNL     1      49.783   7.706  13.331  0.00  0.00    +0.000 A 
ATOM      3  C   UNL     1      50.456   8.005  14.512  0.00  0.00    +0.000 A 
ATOM      4  C   UNL     1      49.814   8.719  15.534  0.00  0.00    +0.000 A 
ATOM      5  C   UNL     1      48.451   9.015  15.404  0.00  0.00    +0.000 A 
ATOM      6  C   UNL     1      47.773   8.704  14.223  0.00  0.00    +0.000 A 
ENDROOT
BRANCH   1   7
ATOM      7  C   UNL     1      47.790   7.918  11.816  0.00  0.00    +0.000 C 
BRANCH   7  10
ATOM      8  O   UNL     1      44.972   7.753  11.866  0.00  0.00    +0.000 OA
ATOM      9  C   UNL     1      45.635   6.725  11.749  0.00  0.00    +0.000 C 
ATOM     10  N   UNL     1      47.004   6.719  11.769  0.00  0.00    +0.000 N 
ATOM     11  H   UNL     1      47.501   5.878  11.500  0.00  0.00    +0.000 HD
BRANCH   9  12
ATOM     12  C   UNL     1      44.998   5.410  11.643  0.00  0.00    +0.000 A 
ATOM     13  C   UNL     1      44.313   4.880  12.726  0.00  0.00    +0.000 A 
ATOM     14  S   UNL     1      43.667   3.328  12.433  0.00  0.00    +0.000 S 
ATOM     15  C   UNL     1      44.240   3.333  10.830  0.00  0.00    +0.000 A 
ATOM     16  N   UNL     1      44.005   2.283   9.997  0.00  0.00    +0.000 NA
ATOM     17  C   UNL     1      44.463   2.442   8.800  0.00  0.00    +0.000 A 
ATOM     18  N   UNL     1      45.135   3.548   8.358  0.00  0.00    +0.000 N 
ATOM     19  C   UNL     1      45.470   4.590   9.184  0.00  0.00    +0.000 A 
ATOM     20  O   UNL     1      46.205   5.492   8.792  0.00  0.00    +0.000 OA
ATOM     21  C   UNL     1      44.938   4.489  10.532  0.00  0.00    +0.000 A 
ATOM     22  H   UNL     1      45.500   3.591   7.418  0.00  0.00    +0.000 HD
ENDBRANCH   9  12
ENDBRANCH   7  10
ENDBRANCH   1   7
BRANCH   4  23
ATOM     23  C   UNL     1      50.605   9.211  16.729  0.00  0.00    +0.000 C 
BRANCH  23  24
ATOM     24  N   UNL     1      51.491   8.172  17.294  0.00  0.00    +0.000 NA
BRANCH  24  25
ATOM     25  C   UNL     1      52.851   8.666  17.626  0.00  0.00    +0.000 C 
BRANCH  25  26
ATOM     26  C   UNL     1      54.025   7.679  17.574  0.00  0.00    +0.000 C 
ATOM     27  F   UNL     1      53.636   6.510  16.998  0.00  0.00    +0.000 F 
ENDBRANCH  25  26
ENDBRANCH  24  25
BRANCH  24  28
ATOM     28  C   UNL     1      50.878   7.525  18.466  0.00  0.00    +0.000 C 
BRANCH  28  29
ATOM     29  C   UNL     1      50.035   6.310  18.137  0.00  0.00    +0.000 A 
ATOM     30  C   UNL     1      48.637   6.366  18.172  0.00  0.00    +0.000 A 
ATOM     31  C   UNL     1      47.872   5.251  17.818  0.00  0.00    +0.000 A 
ATOM     32  C   UNL     1      48.495   4.057  17.421  0.00  0.00    +0.000 A 
ATOM     33  C   UNL     1      49.892   3.996  17.409  0.00  0.00    +0.000 A 
ATOM     34  C   UNL     1      50.657   5.111  17.758  0.00  0.00    +0.000 A 
BRANCH  32  35
ATOM     35  C   UNL     1      47.681   2.856  17.025  0.00  0.00    +0.000 C 
BRANCH  35  36
ATOM     36  O   UNL     1      46.453   2.830  17.741  0.00  0.00    +0.000 OA
ATOM     37  H   UNL     1      45.971   2.040  17.441  0.00  0.00    +0.000 HD
ENDBRANCH  35  36
ENDBRANCH  32  35
ENDBRANCH  28  29
ENDBRANCH  24  28
ENDBRANCH  23  24
ENDBRANCH   4  23
TORSDOF 11
ENDMDL
