MODEL 1
REMARK VINA RESULT:    -7.017      0.000      0.000
REMARK INTER + INTRA:         -11.899
REMARK INTER:                 -10.709
REMARK INTRA:                  -1.190
REMARK UNBOUND:                -1.190
REMARK  Name = 
REMARK  10 active torsions:
REMARK  status: ('A' for Active; 'I' for Inactive)
REMARK    1  A    between atoms: N_1  and  C_2
REMARK    2  A    between atoms: C_2  and  C_3
REMARK    3  A    between atoms: C_6  and  C_7
REMARK    4  A    between atoms: C_7  and  O_8
REMARK    5  A    between atoms: O_8  and  C_9
REMARK    6  A    between atoms: O_8  and  C_13
REMARK    7  A    between atoms: C_9  and  C_10
REMARK    8  A    between atoms: C_10  and  C_11
REMARK    9  A    between atoms: C_11  and  O_12
REMARK   10  A    between atoms: C_13  and  C_14
REMARK                            x       y       z     vdW  Elec       q    Type
REMARK                         _______ _______ _______ _____ _____    ______ ____
ROOT
ATOM      1  O   UNL     1      44.322   3.533  11.359  0.00  0.00    +0.000 OA
ENDROOT
BRANCH   1   2
ATOM      2  C   UNL     1      44.176   2.522  10.356  0.00  0.00    +0.000 C 
BRANCH   2   6
ATOM      3  C   UNL     1      46.666   2.701   6.901  0.00  0.00    +0.000 A 
ATOM      4  C   UNL     1      46.058   3.865   7.368  0.00  0.00    +0.000 A 
ATOM      5  C   UNL     1      45.297   3.826   8.532  0.00  0.00    +0.000 A 
ATOM      6  C   UNL     1      45.167   2.617   9.218  0.00  0.00    +0.000 A 
ATOM      7  N   UNL     1      45.792   1.484   8.824  0.00  0.00    +0.000 NA
ATOM      8  C   UNL     1      46.522   1.553   7.676  0.00  0.00    +0.000 A 
BRANCH   3   9
ATOM      9  C   UNL     1      47.407   2.676   5.594  0.00  0.00    +0.000 C 
BRANCH   9  10
ATOM     10  N   UNL     1      48.586   1.823   5.683  0.00  0.00    +0.000 NA
ATOM     11  H   UNL     1      48.626   1.218   4.862  0.00  0.00    +0.000 HD
ATOM     12  H   UNL     1      48.490   1.194   6.482  0.00  0.00    +0.000 HD
ENDBRANCH   9  10
ENDBRANCH   3   9
ENDBRANCH   2   6
ENDBRANCH   1   2
BRANCH   1  13
ATOM     13  C   UNL     1      43.123   3.752  12.117  0.00  0.00    +0.000 C 
BRANCH  13  14
ATOM     14  C   UNL     1      42.877   5.145  12.689  0.00  0.00    +0.000 C 
BRANCH  14  15
ATOM     15  C   UNL     1      42.584   6.210  11.642  0.00  0.00    +0.000 C 
BRANCH  15  16
ATOM     16  O   UNL     1      43.049   5.744  10.387  0.00  0.00    +0.000 OA
ATOM     17  H   UNL     1      42.564   4.929  10.156  0.00  0.00    +0.000 HD
ENDBRANCH  15  16
ENDBRANCH  14  15
ENDBRANCH  13  14
ENDBRANCH   1  13
BRANCH   1  18
ATOM     18  C   UNL     1      45.502   3.359  12.144  0.00  0.00    +0.000 C 
BRANCH  18  19
ATOM     19  C   UNL     1      46.198   4.655  12.490  0.00  0.00    +0.000 A 
ATOM     20  C   UNL     1      46.856   4.806  13.721  0.00  0.00    +0.000 A 
ATOM     21  C   UNL     1      47.538   5.986  14.016  0.00  0.00    +0.000 A 
ATOM     22  C   UNL     1      47.577   7.021  13.086  0.00  0.00    +0.000 A 
ATOM     23  C   UNL     1      46.932   6.884  11.861  0.00  0.00    +0.000 A 
ATOM     24  C   UNL     1      46.248   5.706  11.560  0.00  0.00    +0.000 A 
ENDBRANCH  18  19
ENDBRANCH   1  18
TORSDOF 10
ENDMDL
MODEL 2
REMARK VINA RESULT:    -6.644      1.743      2.806
REMARK INTER + INTRA:         -11.329
REMARK INTER:                 -10.979
REMARK INTRA:                  -0.350
REMARK UNBOUND:                -1.190
REMARK  Name = 
REMARK  10 active torsions:
REMARK  status: ('A' for Active; 'I' for Inactive)
REMARK    1  A    between atoms: N_1  and  C_2
REMARK    2  A    between atoms: C_2  and  C_3
REMARK    3  A    between atoms: C_6  and  C_7
REMARK    4  A    between atoms: C_7  and  O_8
REMARK    5  A    between atoms: O_8  and  C_9
REMARK    6  A    between atoms: O_8  and  C_13
REMARK    7  A    between atoms: C_9  and  C_10
REMARK    8  A    between atoms: C_10  and  C_11
REMARK    9  A    between atoms: C_11  and  O_12
REMARK   10  A    between atoms: C_13  and  C_14
REMARK                            x       y       z     vdW  Elec       q    Type
REMARK                         _______ _______ _______ _____ _____    ______ ____
ROOT
ATOM      1  O   UNL     1      44.512   5.085  11.170  0.00  0.00    +0.000 OA
ENDROOT
BRANCH   1   2
ATOM      2  C   UNL     1      43.794   4.537  10.060  0.00  0.00    +0.000 C 
BRANCH   2   6
ATOM      3  C   UNL     1      46.482   2.309   7.615  0.00  0.00    +0.000 A 
ATOM      4  C   UNL     1      45.724   1.647   8.578  0.00  0.00    +0.000 A 
ATOM      5  C   UNL     1      44.798   2.358   9.335  0.00  0.00    +0.000 A 
ATOM      6  C   UNL     1      44.638   3.725   9.104  0.00  0.00    +0.000 A 
ATOM      7  N   UNL     1      45.315   4.385   8.136  0.00  0.00    +0.000 NA
ATOM      8  C   UNL     1      46.220   3.664   7.419  0.00  0.00    +0.000 A 
BRANCH   3   9
ATOM      9  C   UNL     1      47.566   1.603   6.850  0.00  0.00    +0.000 C 
BRANCH   9  10
ATOM     10  N   UNL     1      48.562   2.552   6.368  0.00  0.00    +0.000 NA
ATOM     11  H   UNL     1      48.126   3.466   6.249  0.00  0.00    +0.000 HD
ATOM     12  H   UNL     1      48.873   2.274   5.436  0.00  0.00    +0.000 HD
ENDBRANCH   9  10
ENDBRANCH   3   9
ENDBRANCH   2   6
ENDBRANCH   1   2
BRANCH   1  13
ATOM     13  C   UNL     1      44.520   4.223  12.318  0.00  0.00    +0.000 C 
BRANCH  13  14
ATOM     14  C   UNL     1      45.818   3.503  12.668  0.00  0.00    +0.000 C 
BRANCH  14  15
ATOM     15  C   UNL     1      46.538   4.066  13.886  0.00  0.00    +0.000 C 
BRANCH  15  16
ATOM     16  O   UNL     1      47.461   3.095  14.347  0.00  0.00    +0.000 OA
ATOM     17  H   UNL     1      48.274   3.153  13.809  0.00  0.00    +0.000 HD
ENDBRANCH  15  16
ENDBRANCH  14  15
ENDBRANCH  13  14
ENDBRANCH   1  13
BRANCH   1  18
ATOM     18  C   UNL     1      45.793   5.595  10.796  0.00  0.00    +0.000 C 
BRANCH  18  19
ATOM     19  C   UNL     1      46.181   6.858  11.528  0.00  0.00    +0.000 A 
ATOM     20  C   UNL     1      47.531   7.144  11.794  0.00  0.00    +0.000 A 
ATOM     21  C   UNL     1      47.887   8.334  12.427  0.00  0.00    +0.000 A 
ATOM     22  C   UNL     1      46.907   9.252  12.793  0.00  0.00    +0.000 A 
ATOM     23  C   UNL     1      45.567   8.984  12.533  0.00  0.00    +0.000 A 
ATOM     24  C   UNL     1      45.203   7.795  11.901  0.00  0.00    +0.000 A 
ENDBRANCH  18  19
ENDBRANCH   1  18
TORSDOF 10
ENDMDL
MODEL 3
REMARK VINA RESULT:    -6.616      2.458      6.056
REMARK INTER + INTRA:         -11.287
REMARK INTER:                 -10.184
REMARK INTRA:                  -1.102
REMARK UNBOUND:                -1.190
REMARK  Name = 
REMARK  10 active torsions:
REMARK  status: ('A' for Active; 'I' for Inactive)
REMARK    1  A    between atoms: N_1  and  C_2
REMARK    2  A    between atoms: C_2  and  C_3
REMARK    3  A    between atoms: C_6  and  C_7
REMARK    4  A    between atoms: C_7  and  O_8
REMARK    5  A    between atoms: O_8  and  C_9
REMARK    6  A    between atoms: O_8  and  C_13
REMARK    7  A    between atoms: C_9  and  C_10
REMARK    8  A    between atoms: C_10  and  C_11
REMARK    9  A    between atoms: C_11  and  O_12
REMARK   10  A    between atoms: C_13  and  C_14
REMARK                            x       y       z     vdW  Elec       q    Type
REMARK                         _______ _______ _______ _____ _____    ______ ____
ROOT
ATOM      1  O   UNL     1      44.588   4.816  10.373  0.00  0.00    +0.000 OA
ENDROOT
BRANCH   1   2
ATOM      2  C   UNL     1      45.638   5.788  10.346  0.00  0.00    +0.000 C 
BRANCH   2   6
ATOM      3  C   UNL     1      47.760   6.537  13.967  0.00  0.00    +0.000 A 
ATOM      4  C   UNL     1      47.434   7.603  13.131  0.00  0.00    +0.000 A 
ATOM      5  C   UNL     1      46.685   7.374  11.981  0.00  0.00    +0.000 A 
ATOM      6  C   UNL     1      46.264   6.075  11.693  0.00  0.00    +0.000 A 
ATOM      7  N   UNL     1      46.513   5.028  12.514  0.00  0.00    +0.000 NA
ATOM      8  C   UNL     1      47.255   5.284  13.626  0.00  0.00    +0.000 A 
BRANCH   3   9
ATOM      9  C   UNL     1      48.654   6.723  15.160  0.00  0.00    +0.000 C 
BRANCH   9  10
ATOM     10  N   UNL     1      48.151   5.975  16.306  0.00  0.00    +0.000 NA
ATOM     11  H   UNL     1      47.142   6.108  16.378  0.00  0.00    +0.000 HD
ATOM     12  H   UNL     1      48.540   6.366  17.165  0.00  0.00    +0.000 HD
ENDBRANCH   9  10
ENDBRANCH   3   9
ENDBRANCH   2   6
ENDBRANCH   1   2
BRANCH   1  13
ATOM     13  C   UNL     1      43.471   5.215  11.183  0.00  0.00    +0.000 C 
BRANCH  13  14
ATOM     14  C   UNL     1      43.052   4.303  12.331  0.00  0.00    +0.000 C 
BRANCH  14  15
ATOM     15  C   UNL     1      43.467   2.849  12.160  0.00  0.00    +0.000 C 
BRANCH  15  16
ATOM     16  O   UNL     1      44.828   2.725  12.538  0.00  0.00    +0.000 OA
ATOM     17  H   UNL     1      45.060   3.470  13.126  0.00  0.00    +0.000 HD
ENDBRANCH  15  16
ENDBRANCH  14  15
ENDBRANCH  13  14
ENDBRANCH   1  13
BRANCH   1  18
ATOM     18  C   UNL     1      44.243   4.346   9.069  0.00  0.00    +0.000 C 
BRANCH  18  19
ATOM     19  C   UNL     1      45.272   3.417   8.468  0.00  0.00    +0.000 A 
ATOM     20  C   UNL     1      45.303   2.058   8.823  0.00  0.00    +0.000 A 
ATOM     21  C   UNL     1      46.223   1.195   8.230  0.00  0.00    +0.000 A 
ATOM     22  C   UNL     1      47.113   1.673   7.273  0.00  0.00    +0.000 A 
ATOM     23  C   UNL     1      47.092   3.016   6.909  0.00  0.00    +0.000 A 
ATOM     24  C   UNL     1      46.175   3.885   7.499  0.00  0.00    +0.000 A 
ENDBRANCH  18  19
ENDBRANCH   1  18
TORSDOF 10
ENDMDL
MODEL 4
REMARK VINA RESULT:    -6.397      3.083      6.425
REMARK INTER + INTRA:         -10.952
REMARK INTER:                  -9.983
REMARK INTRA:                  -0.969
REMARK UNBOUND:                -1.190
REMARK  Name = 
REMARK  10 active torsions:
REMARK  status: ('A' for Active; 'I' for Inactive)
REMARK    1  A    between atoms: N_1  and  C_2
REMARK    2  A    between atoms: C_2  and  C_3
REMARK    3  A    between atoms: C_6  and  C_7
REMARK    4  A    between atoms: C_7  and  O_8
REMARK    5  A    between atoms: O_8  and  C_9
REMARK    6  A    between atoms: O_8  and  C_13
REMARK    7  A    between atoms: C_9  and  C_10
REMARK    8  A    between atoms: C_10  and  C_11
REMARK    9  A    between atoms: C_11  and  O_12
REMARK   10  A    between atoms: C_13  and  C_14
REMARK                            x       y       z     vdW  Elec       q    Type
REMARK                         _______ _______ _______ _____ _____    ______ ____
ROOT
ATOM      1  O   UNL     1      44.911   4.474  10.766  0.00  0.00    +0.000 OA
ENDROOT
BRANCH   1   2
ATOM      2  C   UNL     1      44.601   5.870  10.697  0.00  0.00    +0.000 C 
BRANCH   2   6
ATOM      3  C   UNL     1      47.331   8.111  13.082  0.00  0.00    +0.000 A 
ATOM      4  C   UNL     1      47.822   7.282  12.075  0.00  0.00    +0.000 A 
ATOM      5  C   UNL     1      46.934   6.598  11.251  0.00  0.00    +0.000 A 
ATOM      6  C   UNL     1      45.562   6.766  11.443  0.00  0.00    +0.000 A 
ATOM      7  N   UNL     1      45.054   7.609  12.372  0.00  0.00    +0.000 NA
ATOM      8  C   UNL     1      45.949   8.256  13.169  0.00  0.00    +0.000 A 
BRANCH   3   9
ATOM      9  C   UNL     1      48.253   8.783  14.060  0.00  0.00    +0.000 C 
BRANCH   9  10
ATOM     10  N   UNL     1      47.529   9.186  15.260  0.00  0.00    +0.000 NA
ATOM     11  H   UNL     1      47.185  10.140  15.141  0.00  0.00    +0.000 HD
ATOM     12  H   UNL     1      48.175   9.225  16.050  0.00  0.00    +0.000 HD
ENDBRANCH   9  10
ENDBRANCH   3   9
ENDBRANCH   2   6
ENDBRANCH   1   2
BRANCH   1  13
ATOM     13  C   UNL     1      44.720   3.918  12.076  0.00  0.00    +0.000 C 
BRANCH  13  14
ATOM     14  C   UNL     1      45.883   3.169  12.717  0.00  0.00    +0.000 C 
BRANCH  14  15
ATOM     15  C   UNL     1      46.681   3.990  13.720  0.00  0.00    +0.000 C 
BRANCH  15  16
ATOM     16  O   UNL     1      47.480   3.106  14.487  0.00  0.00    +0.000 OA
ATOM     17  H   UNL     1      46.939   2.745  15.215  0.00  0.00    +0.000 HD
ENDBRANCH  15  16
ENDBRANCH  14  15
ENDBRANCH  13  14
ENDBRANCH   1  13
BRANCH   1  18
ATOM     18  C   UNL     1      44.314   3.726   9.706  0.00  0.00    +0.000 C 
BRANCH  18  19
ATOM     19  C   UNL     1      45.316   3.110   8.758  0.00  0.00    +0.000 A 
ATOM     20  C   UNL     1      45.563   1.727   8.778  0.00  0.00    +0.000 A 
ATOM     21  C   UNL     1      46.452   1.156   7.870  0.00  0.00    +0.000 A 
ATOM     22  C   UNL     1      47.098   1.954   6.929  0.00  0.00    +0.000 A 
ATOM     23  C   UNL     1      46.861   3.324   6.895  0.00  0.00    +0.000 A 
ATOM     24  C   UNL     1      45.973   3.902   7.802  0.00  0.00    +0.000 A 
ENDBRANCH  18  19
ENDBRANCH   1  18
TORSDOF 10
ENDMDL
MODEL 5
REMARK VINA RESULT:    -6.025      2.795      6.305
REMARK INTER + INTRA:         -10.384
REMARK INTER:                 -10.379
REMARK INTRA:                  -0.005
REMARK UNBOUND:                -1.190
REMARK  Name = 
REMARK  10 active torsions:
REMARK  status: ('A' for Active; 'I' for Inactive)
REMARK    1  A    between atoms: N_1  and  C_2
REMARK    2  A    between atoms: C_2  and  C_3
REMARK    3  A    between atoms: C_6  and  C_7
REMARK    4  A    between atoms: C_7  and  O_8
REMARK    5  A    between atoms: O_8  and  C_9
REMARK    6  A    between atoms: O_8  and  C_13
REMARK    7  A    between atoms: C_9  and  C_10
REMARK    8  A    between atoms: C_10  and  C_11
REMARK    9  A    between atoms: C_11  and  O_12
REMARK   10  A    between atoms: C_13  and  C_14
REMARK                            x       y       z     vdW  Elec       q    Type
REMARK                         _______ _______ _______ _____ _____    ______ ____
ROOT
ATOM      1  O   UNL     1      45.297   4.485  10.359  0.00  0.00    +0.000 OA
ENDROOT
BRANCH   1   2
ATOM      2  C   UNL     1      45.549   5.850  10.710  0.00  0.00    +0.000 C 
BRANCH   2   6
ATOM      3  C   UNL     1      48.170   6.636  13.978  0.00  0.00    +0.000 A 
ATOM      4  C   UNL     1      47.295   5.553  14.047  0.00  0.00    +0.000 A 
ATOM      5  C   UNL     1      46.484   5.253  12.957  0.00  0.00    +0.000 A 
ATOM      6  C   UNL     1      46.571   6.039  11.808  0.00  0.00    +0.000 A 
ATOM      7  N   UNL     1      47.451   7.060  11.687  0.00  0.00    +0.000 NA
ATOM      8  C   UNL     1      48.225   7.334  12.774  0.00  0.00    +0.000 A 
BRANCH   3   9
ATOM      9  C   UNL     1      48.986   7.059  15.167  0.00  0.00    +0.000 C 
BRANCH   9  10
ATOM     10  N   UNL     1      48.280   8.069  15.946  0.00  0.00    +0.000 NA
ATOM     11  H   UNL     1      47.512   7.628  16.453  0.00  0.00    +0.000 HD
ATOM     12  H   UNL     1      47.841   8.741  15.315  0.00  0.00    +0.000 HD
ENDBRANCH   9  10
ENDBRANCH   3   9
ENDBRANCH   2   6
ENDBRANCH   1   2
BRANCH   1  13
ATOM     13  C   UNL     1      44.481   3.798  11.320  0.00  0.00    +0.000 C 
BRANCH  13  14
ATOM     14  C   UNL     1      42.998   4.146  11.387  0.00  0.00    +0.000 C 
BRANCH  14  15
ATOM     15  C   UNL     1      42.651   5.218  12.411  0.00  0.00    +0.000 C 
BRANCH  15  16
ATOM     16  O   UNL     1      42.041   6.303  11.733  0.00  0.00    +0.000 OA
ATOM     17  H   UNL     1      42.119   7.104  12.286  0.00  0.00    +0.000 HD
ENDBRANCH  15  16
ENDBRANCH  14  15
ENDBRANCH  13  14
ENDBRANCH   1  13
BRANCH   1  18
ATOM     18  C   UNL     1      44.875   4.337   9.002  0.00  0.00    +0.000 C 
BRANCH  18  19
ATOM     19  C   UNL     1      45.676   3.317   8.226  0.00  0.00    +0.000 A 
ATOM     20  C   UNL     1      46.461   3.710   7.129  0.00  0.00    +0.000 A 
ATOM     21  C   UNL     1      47.236   2.773   6.446  0.00  0.00    +0.000 A 
ATOM     22  C   UNL     1      47.243   1.442   6.853  0.00  0.00    +0.000 A 
ATOM     23  C   UNL     1      46.472   1.040   7.939  0.00  0.00    +0.000 A 
ATOM     24  C   UNL     1      45.694   1.971   8.626  0.00  0.00    +0.000 A 
ENDBRANCH  18  19
ENDBRANCH   1  18
TORSDOF 10
ENDMDL
MODEL 6
REMARK VINA RESULT:    -6.010      3.069      6.487
REMARK INTER + INTRA:         -10.362
REMARK INTER:                  -9.482
REMARK INTRA:                  -0.880
REMARK UNBOUND:                -1.190
REMARK  Name = 
REMARK  10 active torsions:
REMARK  status: ('A' for Active; 'I' for Inactive)
REMARK    1  A    between atoms: N_1  and  C_2
REMARK    2  A    between atoms: C_2  and  C_3
REMARK    3  A    between atoms: C_6  and  C_7
REMARK    4  A    between atoms: C_7  and  O_8
REMARK    5  A    between atoms: O_8  and  C_9
REMARK    6  A    between atoms: O_8  and  C_13
REMARK    7  A    between atoms: C_9  and  C_10
REMARK    8  A    between atoms: C_10  and  C_11
REMARK    9  A    between atoms: C_11  and  O_12
REMARK   10  A    between atoms: C_13  and  C_14
REMARK                            x       y       z     vdW  Elec       q    Type
REMARK                         _______ _______ _______ _____ _____    ______ ____
ROOT
ATOM      1  O   UNL     1      45.764   5.875  11.807  0.00  0.00    +0.000 OA
ENDROOT
BRANCH   1   2
ATOM      2  C   UNL     1      47.021   6.245  12.383  0.00  0.00    +0.000 C 
BRANCH   2   6
ATOM      3  C   UNL     1      47.686   4.265  16.098  0.00  0.00    +0.000 A 
ATOM      4  C   UNL     1      47.052   3.582  15.062  0.00  0.00    +0.000 A 
ATOM      5  C   UNL     1      46.891   4.200  13.827  0.00  0.00    +0.000 A 
ATOM      6  C   UNL     1      47.379   5.495  13.646  0.00  0.00    +0.000 A 
ATOM      7  N   UNL     1      48.052   6.162  14.612  0.00  0.00    +0.000 NA
ATOM      8  C   UNL     1      48.185   5.534  15.813  0.00  0.00    +0.000 A 
BRANCH   3   9
ATOM      9  C   UNL     1      47.787   3.676  17.477  0.00  0.00    +0.000 C 
BRANCH   9  10
ATOM     10  N   UNL     1      46.629   2.840  17.769  0.00  0.00    +0.000 NA
ATOM     11  H   UNL     1      46.881   1.859  17.642  0.00  0.00    +0.000 HD
ATOM     12  H   UNL     1      45.895   3.025  17.085  0.00  0.00    +0.000 HD
ENDBRANCH   9  10
ENDBRANCH   3   9
ENDBRANCH   2   6
ENDBRANCH   1   2
BRANCH   1  13
ATOM     13  C   UNL     1      44.639   6.449  12.490  0.00  0.00    +0.000 C 
BRANCH  13  14
ATOM     14  C   UNL     1      43.503   5.523  12.911  0.00  0.00    +0.000 C 
BRANCH  14  15
ATOM     15  C   UNL     1      42.343   5.467  11.928  0.00  0.00    +0.000 C 
BRANCH  15  16
ATOM     16  O   UNL     1      42.604   6.380  10.876  0.00  0.00    +0.000 OA
ATOM     17  H   UNL     1      41.827   6.410  10.285  0.00  0.00    +0.000 HD
ENDBRANCH  15  16
ENDBRANCH  14  15
ENDBRANCH  13  14
ENDBRANCH   1  13
BRANCH   1  18
ATOM     18  C   UNL     1      45.745   6.032  10.387  0.00  0.00    +0.000 C 
BRANCH  18  19
ATOM     19  C   UNL     1      45.543   4.737   9.635  0.00  0.00    +0.000 A 
ATOM     20  C   UNL     1      45.957   4.614   8.299  0.00  0.00    +0.000 A 
ATOM     21  C   UNL     1      45.813   3.403   7.624  0.00  0.00    +0.000 A 
ATOM     22  C   UNL     1      45.263   2.302   8.276  0.00  0.00    +0.000 A 
ATOM     23  C   UNL     1      44.850   2.408   9.600  0.00  0.00    +0.000 A 
ATOM     24  C   UNL     1      44.992   3.618  10.280  0.00  0.00    +0.000 A 
ENDBRANCH  18  19
ENDBRANCH   1  18
TORSDOF 10
ENDMDL
MODEL 7
REMARK VINA RESULT:    -5.639      3.586      6.855
REMARK INTER + INTRA:          -9.795
REMARK INTER:                  -8.913
REMARK INTRA:                  -0.883
REMARK UNBOUND:                -1.190
REMARK  Name = 
REMARK  10 active torsions:
REMARK  status: ('A' for Active; 'I' for Inactive)
REMARK    1  A    between atoms: N_1  and  C_2
REMARK    2  A    between atoms: C_2  and  C_3
REMARK    3  A    between atoms: C_6  and  C_7
REMARK    4  A    between atoms: C_7  and  O_8
REMARK    5  A    between atoms: O_8  and  C_9
REMARK    6  A    between atoms: O_8  and  C_13
REMARK    7  A    between atoms: C_9  and  C_10
REMARK    8  A    between atoms: C_10  and  C_11
REMARK    9  A    between atoms: C_11  and  O_12
REMARK   10  A    between atoms: C_13  and  C_14
REMARK                            x       y       z     vdW  Elec       q    Type
REMARK                         _______ _______ _______ _____ _____    ______ ____
ROOT
ATOM      1  O   UNL     1      45.931   6.400  12.028  0.00  0.00    +0.000 OA
ENDROOT
BRANCH   1   2
ATOM      2  C   UNL     1      47.312   6.281  12.387  0.00  0.00    +0.000 C 
BRANCH   2   6
ATOM      3  C   UNL     1      47.687   4.724  16.337  0.00  0.00    +0.000 A 
ATOM      4  C   UNL     1      46.952   4.015  15.388  0.00  0.00    +0.000 A 
ATOM      5  C   UNL     1      46.880   4.485  14.081  0.00  0.00    +0.000 A 
ATOM      6  C   UNL     1      47.558   5.656  13.741  0.00  0.00    +0.000 A 
ATOM      7  N   UNL     1      48.329   6.335  14.623  0.00  0.00    +0.000 NA
ATOM      8  C   UNL     1      48.371   5.856  15.897  0.00  0.00    +0.000 A 
BRANCH   3   9
ATOM      9  C   UNL     1      47.705   4.311  17.782  0.00  0.00    +0.000 C 
BRANCH   9  10
ATOM     10  N   UNL     1      46.692   5.037  18.540  0.00  0.00    +0.000 NA
ATOM     11  H   UNL     1      46.262   5.741  17.939  0.00  0.00    +0.000 HD
ATOM     12  H   UNL     1      47.141   5.558  19.294  0.00  0.00    +0.000 HD
ENDBRANCH   9  10
ENDBRANCH   3   9
ENDBRANCH   2   6
ENDBRANCH   1   2
BRANCH   1  13
ATOM     13  C   UNL     1      45.266   7.483  12.695  0.00  0.00    +0.000 C 
BRANCH  13  14
ATOM     14  C   UNL     1      45.991   8.821  12.796  0.00  0.00    +0.000 C 
BRANCH  14  15
ATOM     15  C   UNL     1      45.335   9.951  12.015  0.00  0.00    +0.000 C 
BRANCH  15  16
ATOM     16  O   UNL     1      43.984  10.055  12.430  0.00  0.00    +0.000 OA
ATOM     17  H   UNL     1      43.576   9.168  12.398  0.00  0.00    +0.000 HD
ENDBRANCH  15  16
ENDBRANCH  14  15
ENDBRANCH  13  14
ENDBRANCH   1  13
BRANCH   1  18
ATOM     18  C   UNL     1      45.726   6.352  10.615  0.00  0.00    +0.000 C 
BRANCH  18  19
ATOM     19  C   UNL     1      45.329   4.986  10.105  0.00  0.00    +0.000 A 
ATOM     20  C   UNL     1      44.622   4.094  10.929  0.00  0.00    +0.000 A 
ATOM     21  C   UNL     1      44.215   2.854  10.439  0.00  0.00    +0.000 A 
ATOM     22  C   UNL     1      44.500   2.494   9.125  0.00  0.00    +0.000 A 
ATOM     23  C   UNL     1      45.197   3.368   8.297  0.00  0.00    +0.000 A 
ATOM     24  C   UNL     1      45.608   4.610   8.781  0.00  0.00    +0.000 A 
ENDBRANCH  18  19
ENDBRANCH   1  18
TORSDOF 10
ENDMDL
MODEL 8
REMARK VINA RESULT:    -5.452      3.915      7.022
REMARK INTER + INTRA:          -9.510
REMARK INTER:                  -7.999
REMARK INTRA:                  -1.511
REMARK UNBOUND:                -1.190
REMARK  Name = 
REMARK  10 active torsions:
REMARK  status: ('A' for Active; 'I' for Inactive)
REMARK    1  A    between atoms: N_1  and  C_2
REMARK    2  A    between atoms: C_2  and  C_3
REMARK    3  A    between atoms: C_6  and  C_7
REMARK    4  A    between atoms: C_7  and  O_8
REMARK    5  A    between atoms: O_8  and  C_9
REMARK    6  A    between atoms: O_8  and  C_13
REMARK    7  A    between atoms: C_9  and  C_10
REMARK    8  A    between atoms: C_10  and  C_11
REMARK    9  A    between atoms: C_11  and  O_12
REMARK   10  A    between atoms: C_13  and  C_14
REMARK                            x       y       z     vdW  Elec       q    Type
REMARK                         _______ _______ _______ _____ _____    ______ ____
ROOT
ATOM      1  O   UNL     1      46.215   7.373  12.501  0.00  0.00    +0.000 OA
ENDROOT
BRANCH   1   2
ATOM      2  C   UNL     1      47.414   6.591  12.511  0.00  0.00    +0.000 C 
BRANCH   2   6
ATOM      3  C   UNL     1      47.719   4.538  16.233  0.00  0.00    +0.000 A 
ATOM      4  C   UNL     1      47.041   3.938  15.174  0.00  0.00    +0.000 A 
ATOM      5  C   UNL     1      46.994   4.574  13.937  0.00  0.00    +0.000 A 
ATOM      6  C   UNL     1      47.639   5.801  13.779  0.00  0.00    +0.000 A 
ATOM      7  N   UNL     1      48.357   6.381  14.770  0.00  0.00    +0.000 NA
ATOM      8  C   UNL     1      48.376   5.738  15.970  0.00  0.00    +0.000 A 
BRANCH   3   9
ATOM      9  C   UNL     1      47.706   3.937  17.611  0.00  0.00    +0.000 C 
BRANCH   9  10
ATOM     10  N   UNL     1      46.697   2.889  17.709  0.00  0.00    +0.000 NA
ATOM     11  H   UNL     1      47.030   2.160  18.340  0.00  0.00    +0.000 HD
ATOM     12  H   UNL     1      46.588   2.436  16.801  0.00  0.00    +0.000 HD
ENDBRANCH   9  10
ENDBRANCH   3   9
ENDBRANCH   2   6
ENDBRANCH   1   2
BRANCH   1  13
ATOM     13  C   UNL     1      46.456   8.778  12.666  0.00  0.00    +0.000 C 
BRANCH  13  14
ATOM     14  C   UNL     1      47.860   9.305  12.393  0.00  0.00    +0.000 C 
BRANCH  14  15
ATOM     15  C   UNL     1      48.560   9.888  13.613  0.00  0.00    +0.000 C 
BRANCH  15  16
ATOM     16  O   UNL     1      47.874   9.451  14.773  0.00  0.00    +0.000 OA
ATOM     17  H   UNL     1      47.486   8.572  14.596  0.00  0.00    +0.000 HD
ENDBRANCH  15  16
ENDBRANCH  14  15
ENDBRANCH  13  14
ENDBRANCH   1  13
BRANCH   1  18
ATOM     18  C   UNL     1      45.351   7.038  11.413  0.00  0.00    +0.000 C 
BRANCH  18  19
ATOM     19  C   UNL     1      44.635   5.720  11.591  0.00  0.00    +0.000 A 
ATOM     20  C   UNL     1      44.828   4.672  10.674  0.00  0.00    +0.000 A 
ATOM     21  C   UNL     1      44.202   3.442  10.869  0.00  0.00    +0.000 A 
ATOM     22  C   UNL     1      43.387   3.240  11.979  0.00  0.00    +0.000 A 
ATOM     23  C   UNL     1      43.189   4.267  12.896  0.00  0.00    +0.000 A 
ATOM     24  C   UNL     1      43.811   5.501  12.707  0.00  0.00    +0.000 A 
ENDBRANCH  18  19
ENDBRANCH   1  18
TORSDOF 10
ENDMDL
MODEL 9
REMARK VINA RESULT:    -4.935      4.402      6.006
REMARK INTER + INTRA:          -8.722
REMARK INTER:                  -7.611
REMARK INTRA:                  -1.110
REMARK UNBOUND:                -1.190
REMARK  Name = 
REMARK  10 active torsions:
REMARK  status: ('A' for Active; 'I' for Inactive)
REMARK    1  A    between atoms: N_1  and  C_2
REMARK    2  A    between atoms: C_2  and  C_3
REMARK    3  A    between atoms: C_6  and  C_7
REMARK    4  A    between atoms: C_7  and  O_8
REMARK    5  A    between atoms: O_8  and  C_9
REMARK    6  A    between atoms: O_8  and  C_13
REMARK    7  A    between atoms: C_9  and  C_10
REMARK    8  A    between atoms: C_10  and  C_11
REMARK    9  A    between atoms: C_11  and  O_12
REMARK   10  A    between atoms: C_13  and  C_14
REMARK                            x       y       z     vdW  Elec       q    Type
REMARK                         _______ _______ _______ _____ _____    ______ ____
ROOT
ATOM      1  O   UNL     1      47.893   5.689  15.135  0.00  0.00    +0.000 OA
ENDROOT
BRANCH   1   2
ATOM      2  C   UNL     1      47.691   4.689  14.131  0.00  0.00    +0.000 C 
BRANCH   2   6
ATOM      3  C   UNL     1      43.973   5.394  12.170  0.00  0.00    +0.000 A 
ATOM      4  C   UNL     1      45.101   6.111  11.776  0.00  0.00    +0.000 A 
ATOM      5  C   UNL     1      46.331   5.839  12.367  0.00  0.00    +0.000 A 
ATOM      6  C   UNL     1      46.412   4.842  13.339  0.00  0.00    +0.000 A 
ATOM      7  N   UNL     1      45.348   4.087  13.701  0.00  0.00    +0.000 NA
ATOM      8  C   UNL     1      44.157   4.384  13.111  0.00  0.00    +0.000 A 
BRANCH   3   9
ATOM      9  C   UNL     1      42.608   5.727  11.635  0.00  0.00    +0.000 C 
BRANCH   9  10
ATOM     10  N   UNL     1      42.580   7.082  11.098  0.00  0.00    +0.000 NA
ATOM     11  H   UNL     1      43.388   7.599  11.445  0.00  0.00    +0.000 HD
ATOM     12  H   UNL     1      41.762   7.574  11.461  0.00  0.00    +0.000 HD
ENDBRANCH   9  10
ENDBRANCH   3   9
ENDBRANCH   2   6
ENDBRANCH   1   2
BRANCH   1  13
ATOM     13  C   UNL     1      47.778   5.178  16.472  0.00  0.00    +0.000 C 
BRANCH  13  14
ATOM     14  C   UNL     1      48.603   3.951  16.847  0.00  0.00    +0.000 C 
BRANCH  14  15
ATOM     15  C   UNL     1      47.804   2.834  17.502  0.00  0.00    +0.000 C 
BRANCH  15  16
ATOM     16  O   UNL     1      46.432   3.190  17.475  0.00  0.00    +0.000 OA
ATOM     17  H   UNL     1      46.328   4.071  17.885  0.00  0.00    +0.000 HD
ENDBRANCH  15  16
ENDBRANCH  14  15
ENDBRANCH  13  14
ENDBRANCH   1  13
BRANCH   1  18
ATOM     18  C   UNL     1      49.059   6.479  14.896  0.00  0.00    +0.000 C 
BRANCH  18  19
ATOM     19  C   UNL     1      48.863   7.546  13.844  0.00  0.00    +0.000 A 
ATOM     20  C   UNL     1      49.560   7.486  12.626  0.00  0.00    +0.000 A 
ATOM     21  C   UNL     1      49.341   8.446  11.639  0.00  0.00    +0.000 A 
ATOM     22  C   UNL     1      48.421   9.468  11.853  0.00  0.00    +0.000 A 
ATOM     23  C   UNL     1      47.721   9.540  13.053  0.00  0.00    +0.000 A 
ATOM     24  C   UNL     1      47.937   8.582  14.045  0.00  0.00    +0.000 A 
ENDBRANCH  18  19
ENDBRANCH   1  18
TORSDOF 10
ENDMDL
