MODEL 1
REMARK VINA RESULT:    -8.987      0.000      0.000
REMARK INTER + INTRA:         -11.686
REMARK INTER:                 -11.088
REMARK INTRA:                  -0.598
REMARK UNBOUND:                -0.598
REMARK  Name = 
REMARK  4 active torsions:
REMARK  status: ('A' for Active; 'I' for Inactive)
REMARK    1  A    between atoms: C_2  and  C_4
REMARK    2  A    between atoms: N_8  and  C_9
REMARK    3  A    between atoms: C_9  and  C_10
REMARK    4  A    between atoms: C_14  and  C_15
REMARK                            x       y       z     vdW  Elec       q    Type
REMARK                         _______ _______ _______ _____ _____    ______ ____
ROOT
ATOM      1  C   UNL     1      43.788   3.848  11.201  0.00  0.00    +0.000 C 
ENDROOT
BRANCH   1   6
ATOM      2  C   UNL     1      46.677   2.528   7.190  0.00  0.00    +0.000 A 
ATOM      3  C   UNL     1      46.131   3.750   7.564  0.00  0.00    +0.000 A 
ATOM      4  C   UNL     1      45.341   3.815   8.711  0.00  0.00    +0.000 A 
ATOM      5  C   UNL     1      45.107   2.669   9.466  0.00  0.00    +0.000 A 
ATOM      6  N   UNL     1      44.345   2.663  10.602  0.00  0.00    +0.000 N 
ATOM      7  N   UNL     1      45.617   1.476   9.099  0.00  0.00    +0.000 NA
ATOM      8  C   UNL     1      46.377   1.424   7.972  0.00  0.00    +0.000 A 
ATOM      9  H   UNL     1      44.283   1.770  11.073  0.00  0.00    +0.000 HD
BRANCH   2  11
ATOM     10  N   UNL     1      47.416   3.316   5.016  0.00  0.00    +0.000 N 
ATOM     11  C   UNL     1      47.532   2.370   5.998  0.00  0.00    +0.000 C 
ATOM     12  O   UNL     1      48.337   1.452   5.904  0.00  0.00    +0.000 OA
ATOM     13  H   UNL     1      48.080   3.258   4.256  0.00  0.00    +0.000 HD
ATOM     14  H   UNL     1      46.959   4.205   5.167  0.00  0.00    +0.000 HD
ENDBRANCH   2  11
ENDBRANCH   1   6
BRANCH   1  15
ATOM     15  C   UNL     1      44.859   4.667  11.873  0.00  0.00    +0.000 A 
ATOM     16  C   UNL     1      45.131   5.973  11.452  0.00  0.00    +0.000 A 
ATOM     17  C   UNL     1      46.080   6.740  12.124  0.00  0.00    +0.000 A 
ATOM     18  C   UNL     1      46.756   6.209  13.226  0.00  0.00    +0.000 A 
ATOM     19  C   UNL     1      46.513   4.898  13.675  0.00  0.00    +0.000 A 
ATOM     20  C   UNL     1      45.570   4.135  12.961  0.00  0.00    +0.000 A 
BRANCH  19  21
ATOM     21  C   UNL     1      47.172   4.373  14.887  0.00  0.00    +0.000 A 
ATOM     22  C   UNL     1      47.506   5.180  15.979  0.00  0.00    +0.000 A 
ATOM     23  C   UNL     1      48.202   4.625  17.055  0.00  0.00    +0.000 A 
ATOM     24  C   UNL     1      48.541   3.285  17.011  0.00  0.00    +0.000 A 
ATOM     25  F   UNL     1      49.217   2.724  18.020  0.00  0.00    +0.000 F 
ATOM     26  C   UNL     1      48.168   2.539  15.910  0.00  0.00    +0.000 A 
ATOM     27  N   UNL     1      47.491   3.050  14.854  0.00  0.00    +0.000 NA
ENDBRANCH  19  21
ENDBRANCH   1  15
TORSDOF 4
ENDMDL
MODEL 2
REMARK VINA RESULT:    -7.956      4.189      7.525
REMARK INTER + INTRA:         -10.414
REMARK INTER:                  -9.624
REMARK INTRA:                  -0.791
REMARK UNBOUND:                -0.598
REMARK  Name = 
REMARK  4 active torsions:
REMARK  status: ('A' for Active; 'I' for Inactive)
REMARK    1  A    between atoms: C_2  and  C_4
REMARK    2  A    between atoms: N_8  and  C_9
REMARK    3  A    between atoms: C_9  and  C_10
REMARK    4  A    between atoms: C_14  and  C_15
REMARK                            x       y       z     vdW  Elec       q    Type
REMARK                         _______ _______ _______ _____ _____    ______ ____
ROOT
ATOM      1  C   UNL     1      44.712   6.466  12.233  0.00  0.00    +0.000 C 
ENDROOT
BRANCH   1   6
ATOM      2  C   UNL     1      49.635   7.792  12.660  0.00  0.00    +0.000 A 
ATOM      3  C   UNL     1      48.781   7.778  11.564  0.00  0.00    +0.000 A 
ATOM      4  C   UNL     1      47.472   7.329  11.731  0.00  0.00    +0.000 A 
ATOM      5  C   UNL     1      47.033   6.902  12.982  0.00  0.00    +0.000 A 
ATOM      6  N   UNL     1      45.762   6.453  13.216  0.00  0.00    +0.000 N 
ATOM      7  N   UNL     1      47.861   6.894  14.046  0.00  0.00    +0.000 NA
ATOM      8  C   UNL     1      49.139   7.325  13.867  0.00  0.00    +0.000 A 
ATOM      9  H   UNL     1      45.565   6.204  14.178  0.00  0.00    +0.000 HD
BRANCH   2  11
ATOM     10  N   UNL     1      51.877   7.890  13.585  0.00  0.00    +0.000 N 
ATOM     11  C   UNL     1      51.031   8.260  12.575  0.00  0.00    +0.000 C 
ATOM     12  O   UNL     1      51.428   8.922  11.624  0.00  0.00    +0.000 OA
ATOM     13  H   UNL     1      52.853   8.124  13.461  0.00  0.00    +0.000 HD
ATOM     14  H   UNL     1      51.656   7.151  14.237  0.00  0.00    +0.000 HD
ENDBRANCH   2  11
ENDBRANCH   1   6
BRANCH   1  15
ATOM     15  C   UNL     1      44.490   5.090  11.660  0.00  0.00    +0.000 A 
ATOM     16  C   UNL     1      43.525   4.235  12.203  0.00  0.00    +0.000 A 
ATOM     17  C   UNL     1      43.289   2.991  11.624  0.00  0.00    +0.000 A 
ATOM     18  C   UNL     1      44.010   2.597  10.494  0.00  0.00    +0.000 A 
ATOM     19  C   UNL     1      44.992   3.427   9.924  0.00  0.00    +0.000 A 
ATOM     20  C   UNL     1      45.231   4.666  10.545  0.00  0.00    +0.000 A 
BRANCH  19  21
ATOM     21  C   UNL     1      45.693   3.037   8.684  0.00  0.00    +0.000 A 
ATOM     22  C   UNL     1      46.076   1.720   8.411  0.00  0.00    +0.000 A 
ATOM     23  C   UNL     1      46.807   1.444   7.254  0.00  0.00    +0.000 A 
ATOM     24  C   UNL     1      47.132   2.486   6.405  0.00  0.00    +0.000 A 
ATOM     25  F   UNL     1      47.841   2.259   5.293  0.00  0.00    +0.000 F 
ATOM     26  C   UNL     1      46.710   3.762   6.724  0.00  0.00    +0.000 A 
ATOM     27  N   UNL     1      45.998   4.058   7.838  0.00  0.00    +0.000 NA
ENDBRANCH  19  21
ENDBRANCH   1  15
TORSDOF 4
ENDMDL
MODEL 3
REMARK VINA RESULT:    -7.832      2.918      3.968
REMARK INTER + INTRA:         -10.262
REMARK INTER:                  -9.509
REMARK INTRA:                  -0.752
REMARK UNBOUND:                -0.598
REMARK  Name = 
REMARK  4 active torsions:
REMARK  status: ('A' for Active; 'I' for Inactive)
REMARK    1  A    between atoms: C_2  and  C_4
REMARK    2  A    between atoms: N_8  and  C_9
REMARK    3  A    between atoms: C_9  and  C_10
REMARK    4  A    between atoms: C_14  and  C_15
REMARK                            x       y       z     vdW  Elec       q    Type
REMARK                         _______ _______ _______ _____ _____    ______ ____
ROOT
ATOM      1  C   UNL     1      43.979   5.019  11.096  0.00  0.00    +0.000 C 
ENDROOT
BRANCH   1   6
ATOM      2  C   UNL     1      46.584   2.731   7.333  0.00  0.00    +0.000 A 
ATOM      3  C   UNL     1      46.475   4.070   7.691  0.00  0.00    +0.000 A 
ATOM      4  C   UNL     1      45.653   4.420   8.761  0.00  0.00    +0.000 A 
ATOM      5  C   UNL     1      44.954   3.436   9.457  0.00  0.00    +0.000 A 
ATOM      6  N   UNL     1      44.134   3.710  10.517  0.00  0.00    +0.000 N 
ATOM      7  N   UNL     1      45.040   2.138   9.103  0.00  0.00    +0.000 NA
ATOM      8  C   UNL     1      45.837   1.812   8.051  0.00  0.00    +0.000 A 
ATOM      9  H   UNL     1      43.712   2.900  10.954  0.00  0.00    +0.000 HD
BRANCH   2  11
ATOM     10  N   UNL     1      47.283   2.898   5.014  0.00  0.00    +0.000 N 
ATOM     11  C   UNL     1      47.438   2.272   6.221  0.00  0.00    +0.000 C 
ATOM     12  O   UNL     1      48.275   1.391   6.378  0.00  0.00    +0.000 OA
ATOM     13  H   UNL     1      47.945   2.650   4.292  0.00  0.00    +0.000 HD
ATOM     14  H   UNL     1      46.796   3.778   4.915  0.00  0.00    +0.000 HD
ENDBRANCH   2  11
ENDBRANCH   1   6
BRANCH   1  15
ATOM     15  C   UNL     1      45.036   5.276  12.139  0.00  0.00    +0.000 A 
ATOM     16  C   UNL     1      45.340   4.309  13.104  0.00  0.00    +0.000 A 
ATOM     17  C   UNL     1      46.362   4.536  14.022  0.00  0.00    +0.000 A 
ATOM     18  C   UNL     1      47.093   5.727  13.975  0.00  0.00    +0.000 A 
ATOM     19  C   UNL     1      46.812   6.724  13.023  0.00  0.00    +0.000 A 
ATOM     20  C   UNL     1      45.756   6.482  12.126  0.00  0.00    +0.000 A 
BRANCH  19  21
ATOM     21  C   UNL     1      47.640   7.943  12.930  0.00  0.00    +0.000 A 
ATOM     22  C   UNL     1      48.265   8.347  11.747  0.00  0.00    +0.000 A 
ATOM     23  C   UNL     1      49.098   9.467  11.758  0.00  0.00    +0.000 A 
ATOM     24  C   UNL     1      49.281  10.151  12.947  0.00  0.00    +0.000 A 
ATOM     25  F   UNL     1      50.082  11.222  12.995  0.00  0.00    +0.000 F 
ATOM     26  C   UNL     1      48.623   9.709  14.077  0.00  0.00    +0.000 A 
ATOM     27  N   UNL     1      47.808   8.627  14.095  0.00  0.00    +0.000 NA
ENDBRANCH  19  21
ENDBRANCH   1  15
TORSDOF 4
ENDMDL
MODEL 4
REMARK VINA RESULT:    -7.716      4.214      8.703
REMARK INTER + INTRA:         -10.119
REMARK INTER:                  -9.629
REMARK INTRA:                  -0.490
REMARK UNBOUND:                -0.598
REMARK  Name = 
REMARK  4 active torsions:
REMARK  status: ('A' for Active; 'I' for Inactive)
REMARK    1  A    between atoms: C_2  and  C_4
REMARK    2  A    between atoms: N_8  and  C_9
REMARK    3  A    between atoms: C_9  and  C_10
REMARK    4  A    between atoms: C_14  and  C_15
REMARK                            x       y       z     vdW  Elec       q    Type
REMARK                         _______ _______ _______ _____ _____    ______ ____
ROOT
ATOM      1  C   UNL     1      46.173   5.433  13.833  0.00  0.00    +0.000 C 
ENDROOT
BRANCH   1   6
ATOM      2  C   UNL     1      48.679   4.384  18.169  0.00  0.00    +0.000 A 
ATOM      3  C   UNL     1      48.696   5.505  17.349  0.00  0.00    +0.000 A 
ATOM      4  C   UNL     1      47.924   5.507  16.188  0.00  0.00    +0.000 A 
ATOM      5  C   UNL     1      47.148   4.397  15.863  0.00  0.00    +0.000 A 
ATOM      6  N   UNL     1      46.365   4.334  14.742  0.00  0.00    +0.000 N 
ATOM      7  N   UNL     1      47.141   3.299  16.644  0.00  0.00    +0.000 NA
ATOM      8  C   UNL     1      47.907   3.306  17.767  0.00  0.00    +0.000 A 
ATOM      9  H   UNL     1      45.826   3.483  14.642  0.00  0.00    +0.000 HD
BRANCH   2  11
ATOM     10  N   UNL     1      48.782   3.942  20.554  0.00  0.00    +0.000 N 
ATOM     11  C   UNL     1      49.458   4.301  19.419  0.00  0.00    +0.000 C 
ATOM     12  O   UNL     1      50.665   4.510  19.438  0.00  0.00    +0.000 OA
ATOM     13  H   UNL     1      49.343   3.784  21.380  0.00  0.00    +0.000 HD
ATOM     14  H   UNL     1      47.862   3.525  20.531  0.00  0.00    +0.000 HD
ENDBRANCH   2  11
ENDBRANCH   1   6
BRANCH   1  15
ATOM     15  C   UNL     1      45.206   5.066  12.738  0.00  0.00    +0.000 A 
ATOM     16  C   UNL     1      43.854   5.412  12.830  0.00  0.00    +0.000 A 
ATOM     17  C   UNL     1      42.986   5.121  11.781  0.00  0.00    +0.000 A 
ATOM     18  C   UNL     1      43.465   4.489  10.630  0.00  0.00    +0.000 A 
ATOM     19  C   UNL     1      44.817   4.120  10.505  0.00  0.00    +0.000 A 
ATOM     20  C   UNL     1      45.667   4.400  11.589  0.00  0.00    +0.000 A 
BRANCH  19  21
ATOM     21  C   UNL     1      45.331   3.526   9.254  0.00  0.00    +0.000 A 
ATOM     22  C   UNL     1      45.438   2.145   9.058  0.00  0.00    +0.000 A 
ATOM     23  C   UNL     1      46.010   1.662   7.881  0.00  0.00    +0.000 A 
ATOM     24  C   UNL     1      46.455   2.566   6.934  0.00  0.00    +0.000 A 
ATOM     25  F   UNL     1      47.019   2.137   5.799  0.00  0.00    +0.000 F 
ATOM     26  C   UNL     1      46.307   3.917   7.182  0.00  0.00    +0.000 A 
ATOM     27  N   UNL     1      45.754   4.414   8.314  0.00  0.00    +0.000 NA
ENDBRANCH  19  21
ENDBRANCH   1  15
TORSDOF 4
ENDMDL
MODEL 5
REMARK VINA RESULT:    -7.079      4.593      8.745
REMARK INTER + INTRA:          -9.332
REMARK INTER:                  -8.598
REMARK INTRA:                  -0.734
REMARK UNBOUND:                -0.598
REMARK  Name = 
REMARK  4 active torsions:
REMARK  status: ('A' for Active; 'I' for Inactive)
REMARK    1  A    between atoms: C_2  and  C_4
REMARK    2  A    between atoms: N_8  and  C_9
REMARK    3  A    between atoms: C_9  and  C_10
REMARK    4  A    between atoms: C_14  and  C_15
REMARK                            x       y       z     vdW  Elec       q    Type
REMARK                         _______ _______ _______ _____ _____    ______ ____
ROOT
ATOM      1  C   UNL     1      48.008   3.848  17.384  0.00  0.00    +0.000 C 
ENDROOT
BRANCH   1   6
ATOM      2  C   UNL     1      52.782   2.121  18.015  0.00  0.00    +0.000 A 
ATOM      3  C   UNL     1      52.205   3.349  18.312  0.00  0.00    +0.000 A 
ATOM      4  C   UNL     1      50.864   3.561  17.996  0.00  0.00    +0.000 A 
ATOM      5  C   UNL     1      50.119   2.551  17.393  0.00  0.00    +0.000 A 
ATOM      6  N   UNL     1      48.800   2.690  17.060  0.00  0.00    +0.000 N 
ATOM      7  N   UNL     1      50.677   1.363  17.085  0.00  0.00    +0.000 NA
ATOM      8  C   UNL     1      51.989   1.173  17.388  0.00  0.00    +0.000 A 
ATOM      9  H   UNL     1      48.369   1.868  16.657  0.00  0.00    +0.000 HD
BRANCH   2  11
ATOM     10  N   UNL     1      54.431   0.708  19.101  0.00  0.00    +0.000 N 
ATOM     11  C   UNL     1      54.191   1.809  18.323  0.00  0.00    +0.000 C 
ATOM     12  O   UNL     1      55.110   2.483  17.875  0.00  0.00    +0.000 OA
ATOM     13  H   UNL     1      55.400   0.443  19.216  0.00  0.00    +0.000 HD
ATOM     14  H   UNL     1      53.732  -0.000  19.273  0.00  0.00    +0.000 HD
ENDBRANCH   2  11
ENDBRANCH   1   6
BRANCH   1  15
ATOM     15  C   UNL     1      47.919   4.788  16.209  0.00  0.00    +0.000 A 
ATOM     16  C   UNL     1      48.699   5.948  16.160  0.00  0.00    +0.000 A 
ATOM     17  C   UNL     1      48.653   6.773  15.040  0.00  0.00    +0.000 A 
ATOM     18  C   UNL     1      47.832   6.440  13.958  0.00  0.00    +0.000 A 
ATOM     19  C   UNL     1      47.030   5.285  13.975  0.00  0.00    +0.000 A 
ATOM     20  C   UNL     1      47.074   4.484  15.130  0.00  0.00    +0.000 A 
BRANCH  19  21
ATOM     21  C   UNL     1      46.227   4.899  12.797  0.00  0.00    +0.000 A 
ATOM     22  C   UNL     1      46.038   5.742  11.698  0.00  0.00    +0.000 A 
ATOM     23  C   UNL     1      45.199   5.337  10.658  0.00  0.00    +0.000 A 
ATOM     24  C   UNL     1      44.577   4.104  10.745  0.00  0.00    +0.000 A 
ATOM     25  F   UNL     1      43.757   3.690   9.771  0.00  0.00    +0.000 F 
ATOM     26  C   UNL     1      44.818   3.312  11.850  0.00  0.00    +0.000 A 
ATOM     27  N   UNL     1      45.628   3.679  12.872  0.00  0.00    +0.000 NA
ENDBRANCH  19  21
ENDBRANCH   1  15
TORSDOF 4
ENDMDL
MODEL 6
REMARK VINA RESULT:    -6.855      4.580      8.844
REMARK INTER + INTRA:          -9.056
REMARK INTER:                  -8.365
REMARK INTRA:                  -0.691
REMARK UNBOUND:                -0.598
REMARK  Name = 
REMARK  4 active torsions:
REMARK  status: ('A' for Active; 'I' for Inactive)
REMARK    1  A    between atoms: C_2  and  C_4
REMARK    2  A    between atoms: N_8  and  C_9
REMARK    3  A    between atoms: C_9  and  C_10
REMARK    4  A    between atoms: C_14  and  C_15
REMARK                            x       y       z     vdW  Elec       q    Type
REMARK                         _______ _______ _______ _____ _____    ______ ____
ROOT
ATOM      1  C   UNL     1      48.731   7.382  14.049  0.00  0.00    +0.000 C 
ENDROOT
BRANCH   1   6
ATOM      2  C   UNL     1      48.675   5.184  18.669  0.00  0.00    +0.000 A 
ATOM      3  C   UNL     1      48.752   4.637  17.395  0.00  0.00    +0.000 A 
ATOM      4  C   UNL     1      48.713   5.486  16.290  0.00  0.00    +0.000 A 
ATOM      5  C   UNL     1      48.599   6.862  16.469  0.00  0.00    +0.000 A 
ATOM      6  N   UNL     1      48.559   7.751  15.430  0.00  0.00    +0.000 N 
ATOM      7  N   UNL     1      48.505   7.399  17.702  0.00  0.00    +0.000 NA
ATOM      8  C   UNL     1      48.534   6.559  18.771  0.00  0.00    +0.000 A 
ATOM      9  H   UNL     1      48.508   8.725  15.700  0.00  0.00    +0.000 HD
BRANCH   2  11
ATOM     10  N   UNL     1      48.403   3.036  19.766  0.00  0.00    +0.000 N 
ATOM     11  C   UNL     1      48.719   4.361  19.893  0.00  0.00    +0.000 C 
ATOM     12  O   UNL     1      49.058   4.833  20.971  0.00  0.00    +0.000 OA
ATOM     13  H   UNL     1      48.541   2.461  20.586  0.00  0.00    +0.000 HD
ATOM     14  H   UNL     1      48.368   2.567  18.872  0.00  0.00    +0.000 HD
ENDBRANCH   2  11
ENDBRANCH   1   6
BRANCH   1  15
ATOM     15  C   UNL     1      47.418   7.425  13.311  0.00  0.00    +0.000 A 
ATOM     16  C   UNL     1      46.614   8.570  13.345  0.00  0.00    +0.000 A 
ATOM     17  C   UNL     1      45.435   8.617  12.607  0.00  0.00    +0.000 A 
ATOM     18  C   UNL     1      45.055   7.524  11.823  0.00  0.00    +0.000 A 
ATOM     19  C   UNL     1      45.835   6.355  11.768  0.00  0.00    +0.000 A 
ATOM     20  C   UNL     1      47.006   6.322  12.545  0.00  0.00    +0.000 A 
BRANCH  19  21
ATOM     21  C   UNL     1      45.468   5.236  10.876  0.00  0.00    +0.000 A 
ATOM     22  C   UNL     1      45.604   5.299   9.486  0.00  0.00    +0.000 A 
ATOM     23  C   UNL     1      45.160   4.231   8.704  0.00  0.00    +0.000 A 
ATOM     24  C   UNL     1      44.597   3.134   9.331  0.00  0.00    +0.000 A 
ATOM     25  F   UNL     1      44.150   2.098   8.610  0.00  0.00    +0.000 F 
ATOM     26  C   UNL     1      44.505   3.128  10.709  0.00  0.00    +0.000 A 
ATOM     27  N   UNL     1      44.930   4.149  11.492  0.00  0.00    +0.000 NA
ENDBRANCH  19  21
ENDBRANCH   1  15
TORSDOF 4
ENDMDL
MODEL 7
REMARK VINA RESULT:    -6.800      4.431      7.569
REMARK INTER + INTRA:          -8.988
REMARK INTER:                  -8.319
REMARK INTRA:                  -0.668
REMARK UNBOUND:                -0.598
REMARK  Name = 
REMARK  4 active torsions:
REMARK  status: ('A' for Active; 'I' for Inactive)
REMARK    1  A    between atoms: C_2  and  C_4
REMARK    2  A    between atoms: N_8  and  C_9
REMARK    3  A    between atoms: C_9  and  C_10
REMARK    4  A    between atoms: C_14  and  C_15
REMARK                            x       y       z     vdW  Elec       q    Type
REMARK                         _______ _______ _______ _____ _____    ______ ____
ROOT
ATOM      1  C   UNL     1      46.026   4.655  13.831  0.00  0.00    +0.000 C 
ENDROOT
BRANCH   1   6
ATOM      2  C   UNL     1      46.591   9.466  12.186  0.00  0.00    +0.000 A 
ATOM      3  C   UNL     1      45.455   8.739  12.521  0.00  0.00    +0.000 A 
ATOM      4  C   UNL     1      45.594   7.409  12.915  0.00  0.00    +0.000 A 
ATOM      5  C   UNL     1      46.857   6.824  12.970  0.00  0.00    +0.000 A 
ATOM      6  N   UNL     1      47.065   5.526  13.350  0.00  0.00    +0.000 N 
ATOM      7  N   UNL     1      47.961   7.517  12.628  0.00  0.00    +0.000 NA
ATOM      8  C   UNL     1      47.811   8.811  12.235  0.00  0.00    +0.000 A 
ATOM      9  H   UNL     1      48.034   5.237  13.378  0.00  0.00    +0.000 HD
BRANCH   2  11
ATOM     10  N   UNL     1      47.697  11.443  11.313  0.00  0.00    +0.000 N 
ATOM     11  C   UNL     1      46.536  10.880  11.769  0.00  0.00    +0.000 C 
ATOM     12  O   UNL     1      45.489  11.516  11.795  0.00  0.00    +0.000 OA
ATOM     13  H   UNL     1      47.624  12.376  10.930  0.00  0.00    +0.000 HD
ATOM     14  H   UNL     1      48.500  10.892  11.044  0.00  0.00    +0.000 HD
ENDBRANCH   2  11
ENDBRANCH   1   6
BRANCH   1  15
ATOM     15  C   UNL     1      45.172   4.153  12.695  0.00  0.00    +0.000 A 
ATOM     16  C   UNL     1      43.777   4.132  12.802  0.00  0.00    +0.000 A 
ATOM     17  C   UNL     1      43.000   3.726  11.721  0.00  0.00    +0.000 A 
ATOM     18  C   UNL     1      43.611   3.345  10.523  0.00  0.00    +0.000 A 
ATOM     19  C   UNL     1      45.011   3.347  10.380  0.00  0.00    +0.000 A 
ATOM     20  C   UNL     1      45.773   3.735  11.497  0.00  0.00    +0.000 A 
BRANCH  19  21
ATOM     21  C   UNL     1      45.645   3.021   9.087  0.00  0.00    +0.000 A 
ATOM     22  C   UNL     1      45.886   3.978   8.097  0.00  0.00    +0.000 A 
ATOM     23  C   UNL     1      46.415   3.577   6.870  0.00  0.00    +0.000 A 
ATOM     24  C   UNL     1      46.690   2.237   6.667  0.00  0.00    +0.000 A 
ATOM     25  F   UNL     1      47.187   1.817   5.497  0.00  0.00    +0.000 F 
ATOM     26  C   UNL     1      46.443   1.344   7.691  0.00  0.00    +0.000 A 
ATOM     27  N   UNL     1      45.932   1.705   8.892  0.00  0.00    +0.000 NA
ENDBRANCH  19  21
ENDBRANCH   1  15
TORSDOF 4
ENDMDL
MODEL 8
REMARK VINA RESULT:    -6.746      4.145      7.664
REMARK INTER + INTRA:          -8.922
REMARK INTER:                  -8.660
REMARK INTRA:                  -0.261
REMARK UNBOUND:                -0.598
REMARK  Name = 
REMARK  4 active torsions:
REMARK  status: ('A' for Active; 'I' for Inactive)
REMARK    1  A    between atoms: C_2  and  C_4
REMARK    2  A    between atoms: N_8  and  C_9
REMARK    3  A    between atoms: C_9  and  C_10
REMARK    4  A    between atoms: C_14  and  C_15
REMARK                            x       y       z     vdW  Elec       q    Type
REMARK                         _______ _______ _______ _____ _____    ______ ____
ROOT
ATOM      1  C   UNL     1      45.212   3.317  13.193  0.00  0.00    +0.000 C 
ENDROOT
BRANCH   1   6
ATOM      2  C   UNL     1      47.573   7.846  13.491  0.00  0.00    +0.000 A 
ATOM      3  C   UNL     1      46.270   7.513  13.143  0.00  0.00    +0.000 A 
ATOM      4  C   UNL     1      45.900   6.169  13.114  0.00  0.00    +0.000 A 
ATOM      5  C   UNL     1      46.828   5.181  13.430  0.00  0.00    +0.000 A 
ATOM      6  N   UNL     1      46.531   3.845  13.424  0.00  0.00    +0.000 N 
ATOM      7  N   UNL     1      48.099   5.495  13.750  0.00  0.00    +0.000 NA
ATOM      8  C   UNL     1      48.450   6.809  13.765  0.00  0.00    +0.000 A 
ATOM      9  H   UNL     1      47.288   3.235  13.706  0.00  0.00    +0.000 HD
BRANCH   2  11
ATOM     10  N   UNL     1      47.251  10.200  12.989  0.00  0.00    +0.000 N 
ATOM     11  C   UNL     1      48.047   9.242  13.557  0.00  0.00    +0.000 C 
ATOM     12  O   UNL     1      49.090   9.538  14.127  0.00  0.00    +0.000 OA
ATOM     13  H   UNL     1      47.531  11.160  13.135  0.00  0.00    +0.000 HD
ATOM     14  H   UNL     1      46.286  10.030  12.742  0.00  0.00    +0.000 HD
ENDBRANCH   2  11
ENDBRANCH   1   6
BRANCH   1  15
ATOM     15  C   UNL     1      44.737   3.641  11.800  0.00  0.00    +0.000 A 
ATOM     16  C   UNL     1      43.665   4.515  11.594  0.00  0.00    +0.000 A 
ATOM     17  C   UNL     1      43.278   4.854  10.300  0.00  0.00    +0.000 A 
ATOM     18  C   UNL     1      43.967   4.327   9.203  0.00  0.00    +0.000 A 
ATOM     19  C   UNL     1      45.046   3.441   9.371  0.00  0.00    +0.000 A 
ATOM     20  C   UNL     1      45.398   3.093  10.688  0.00  0.00    +0.000 A 
BRANCH  19  21
ATOM     21  C   UNL     1      45.818   2.952   8.211  0.00  0.00    +0.000 A 
ATOM     22  C   UNL     1      46.339   1.657   8.138  0.00  0.00    +0.000 A 
ATOM     23  C   UNL     1      47.127   1.296   7.044  0.00  0.00    +0.000 A 
ATOM     24  C   UNL     1      47.371   2.234   6.057  0.00  0.00    +0.000 A 
ATOM     25  F   UNL     1      48.132   1.924   5.001  0.00  0.00    +0.000 F 
ATOM     26  C   UNL     1      46.814   3.492   6.182  0.00  0.00    +0.000 A 
ATOM     27  N   UNL     1      46.044   3.869   7.231  0.00  0.00    +0.000 NA
ENDBRANCH  19  21
ENDBRANCH   1  15
TORSDOF 4
ENDMDL
MODEL 9
REMARK VINA RESULT:    -6.482      4.575      8.116
REMARK INTER + INTRA:          -8.595
REMARK INTER:                  -8.046
REMARK INTRA:                  -0.549
REMARK UNBOUND:                -0.598
REMARK  Name = 
REMARK  4 active torsions:
REMARK  status: ('A' for Active; 'I' for Inactive)
REMARK    1  A    between atoms: C_2  and  C_4
REMARK    2  A    between atoms: N_8  and  C_9
REMARK    3  A    between atoms: C_9  and  C_10
REMARK    4  A    between atoms: C_14  and  C_15
REMARK                            x       y       z     vdW  Elec       q    Type
REMARK                         _______ _______ _______ _____ _____    ______ ____
ROOT
ATOM      1  C   UNL     1      45.965   5.826  13.661  0.00  0.00    +0.000 C 
ENDROOT
BRANCH   1   6
ATOM      2  C   UNL     1      50.616   7.573  14.885  0.00  0.00    +0.000 A 
ATOM      3  C   UNL     1      49.694   6.831  15.613  0.00  0.00    +0.000 A 
ATOM      4  C   UNL     1      48.467   6.516  15.032  0.00  0.00    +0.000 A 
ATOM      5  C   UNL     1      48.176   6.943  13.738  0.00  0.00    +0.000 A 
ATOM      6  N   UNL     1      46.994   6.667  13.107  0.00  0.00    +0.000 N 
ATOM      7  N   UNL     1      49.058   7.679  13.033  0.00  0.00    +0.000 NA
ATOM      8  C   UNL     1      50.247   7.988  13.616  0.00  0.00    +0.000 A 
ATOM      9  H   UNL     1      46.924   7.008  12.157  0.00  0.00    +0.000 HD
BRANCH   2  11
ATOM     10  N   UNL     1      52.271   9.269  15.411  0.00  0.00    +0.000 N 
ATOM     11  C   UNL     1      51.941   7.941  15.419  0.00  0.00    +0.000 C 
ATOM     12  O   UNL     1      52.701   7.099  15.883  0.00  0.00    +0.000 OA
ATOM     13  H   UNL     1      53.133   9.520  15.876  0.00  0.00    +0.000 HD
ATOM     14  H   UNL     1      51.587  10.000  15.276  0.00  0.00    +0.000 HD
ENDBRANCH   2  11
ENDBRANCH   1   6
BRANCH   1  15
ATOM     15  C   UNL     1      45.045   5.317  12.581  0.00  0.00    +0.000 A 
ATOM     16  C   UNL     1      43.672   5.580  12.627  0.00  0.00    +0.000 A 
ATOM     17  C   UNL     1      42.845   5.157  11.590  0.00  0.00    +0.000 A 
ATOM     18  C   UNL     1      43.386   4.476  10.496  0.00  0.00    +0.000 A 
ATOM     19  C   UNL     1      44.761   4.188  10.418  0.00  0.00    +0.000 A 
ATOM     20  C   UNL     1      45.570   4.601  11.492  0.00  0.00    +0.000 A 
BRANCH  19  21
ATOM     21  C   UNL     1      45.337   3.539   9.223  0.00  0.00    +0.000 A 
ATOM     22  C   UNL     1      45.498   2.154   9.116  0.00  0.00    +0.000 A 
ATOM     23  C   UNL     1      46.125   1.622   7.988  0.00  0.00    +0.000 A 
ATOM     24  C   UNL     1      46.570   2.484   7.002  0.00  0.00    +0.000 A 
ATOM     25  F   UNL     1      47.185   2.007   5.913  0.00  0.00    +0.000 F 
ATOM     26  C   UNL     1      46.366   3.840   7.162  0.00  0.00    +0.000 A 
ATOM     27  N   UNL     1      45.759   4.384   8.244  0.00  0.00    +0.000 NA
ENDBRANCH  19  21
ENDBRANCH   1  15
TORSDOF 4
ENDMDL
