MODEL 1
REMARK VINA RESULT:    -6.753      0.000      0.000
REMARK INTER + INTRA:          -9.701
REMARK INTER:                  -8.727
REMARK INTRA:                  -0.975
REMARK UNBOUND:                -0.975
REMARK  Name = 
REMARK  6 active torsions:
REMARK  status: ('A' for Active; 'I' for Inactive)
REMARK    1  A    between atoms: C_1  and  C_2
REMARK    2  A    between atoms: C_2  and  N_3
REMARK    3  A    between atoms: C_2  and  C_16
REMARK    4  A    between atoms: C_4  and  C_6
REMARK    5  A    between atoms: C_19  and  C_20
REMARK    6  A    between atoms: C_21  and  C_22
REMARK                            x       y       z     vdW  Elec       q    Type
REMARK                         _______ _______ _______ _____ _____    ______ ____
ROOT
ATOM      1  C   UNL     1      48.842   4.744  20.538  0.00  0.00    +0.000 C 
ATOM      2  C   UNL     1      49.748   4.977  19.321  0.00  0.00    +0.000 C 
ENDROOT
BRANCH   2   3
ATOM      3  C   UNL     1      48.959   4.804  18.024  0.00  0.00    +0.000 A 
ATOM      4  C   UNL     1      49.197   5.619  16.915  0.00  0.00    +0.000 A 
ATOM      5  N   UNL     1      48.469   5.566  15.767  0.00  0.00    +0.000 NA
ATOM      6  C   UNL     1      47.477   4.649  15.752  0.00  0.00    +0.000 A 
ATOM      7  C   UNL     1      47.250   3.806  16.829  0.00  0.00    +0.000 A 
ATOM      8  N   UNL     1      47.976   3.863  17.981  0.00  0.00    +0.000 NA
BRANCH   6   9
ATOM      9  C   UNL     1      46.634   4.672  14.596  0.00  0.00    +0.000 C 
ATOM     10  C   UNL     1      45.867   4.711  13.667  0.00  0.00    +0.000 C 
BRANCH  10  11
ATOM     11  C   UNL     1      44.907   4.778  12.598  0.00  0.00    +0.000 A 
ATOM     12  C   UNL     1      45.297   4.555  11.282  0.00  0.00    +0.000 A 
ATOM     13  C   UNL     1      44.338   4.664  10.289  0.00  0.00    +0.000 A 
ATOM     14  N   UNL     1      43.045   4.972  10.526  0.00  0.00    +0.000 NA
ATOM     15  C   UNL     1      42.693   5.182  11.812  0.00  0.00    +0.000 A 
ATOM     16  C   UNL     1      43.579   5.097  12.874  0.00  0.00    +0.000 A 
ENDBRANCH  10  11
ENDBRANCH   6   9
ENDBRANCH   2   3
BRANCH   2  17
ATOM     17  N   UNL     1      50.920   4.098  19.344  0.00  0.00    +0.000 N 
ATOM     18  C   UNL     1      52.173   4.525  18.966  0.00  0.00    +0.000 C 
ATOM     19  O   UNL     1      52.411   5.682  18.634  0.00  0.00    +0.000 OA
ATOM     20  H   UNL     1      50.730   3.106  19.227  0.00  0.00    +0.000 HD
BRANCH  18  21
ATOM     21  C   UNL     1      53.250   3.533  19.067  0.00  0.00    +0.000 A 
ATOM     22  C   UNL     1      54.412   3.833  19.763  0.00  0.00    +0.000 A 
ATOM     23  S   UNL     1      55.526   2.541  19.820  0.00  0.00    +0.000 S 
ATOM     24  C   UNL     1      54.516   1.558  18.866  0.00  0.00    +0.000 A 
ATOM     25  N   UNL     1      54.890   0.300  18.508  0.00  0.00    +0.000 NA
ATOM     26  C   UNL     1      54.044  -0.312  17.749  0.00  0.00    +0.000 A 
ATOM     27  N   UNL     1      52.853   0.217  17.320  0.00  0.00    +0.000 N 
ATOM     28  C   UNL     1      52.414   1.464  17.693  0.00  0.00    +0.000 A 
ATOM     29  O   UNL     1      51.312   1.887  17.362  0.00  0.00    +0.000 OA
ATOM     30  C   UNL     1      53.340   2.201  18.529  0.00  0.00    +0.000 A 
ATOM     31  H   UNL     1      52.228  -0.321  16.738  0.00  0.00    +0.000 HD
ENDBRANCH  18  21
ENDBRANCH   2  17
TORSDOF 5
ENDMDL
MODEL 2
REMARK VINA RESULT:    -6.343      3.429      9.112
REMARK INTER + INTRA:          -9.171
REMARK INTER:                  -8.843
REMARK INTRA:                  -0.329
REMARK UNBOUND:                -0.975
REMARK  Name = 
REMARK  6 active torsions:
REMARK  status: ('A' for Active; 'I' for Inactive)
REMARK    1  A    between atoms: C_1  and  C_2
REMARK    2  A    between atoms: C_2  and  N_3
REMARK    3  A    between atoms: C_2  and  C_16
REMARK    4  A    between atoms: C_4  and  C_6
REMARK    5  A    between atoms: C_19  and  C_20
REMARK    6  A    between atoms: C_21  and  C_22
REMARK                            x       y       z     vdW  Elec       q    Type
REMARK                         _______ _______ _______ _____ _____    ______ ____
ROOT
ATOM      1  C   UNL     1      49.558   7.653  17.412  0.00  0.00    +0.000 C 
ATOM      2  C   UNL     1      48.736   6.357  17.388  0.00  0.00    +0.000 C 
ENDROOT
BRANCH   2   3
ATOM      3  C   UNL     1      49.648   5.141  17.542  0.00  0.00    +0.000 A 
ATOM      4  C   UNL     1      50.989   5.281  17.905  0.00  0.00    +0.000 A 
ATOM      5  N   UNL     1      51.866   4.244  17.974  0.00  0.00    +0.000 NA
ATOM      6  C   UNL     1      51.354   3.031  17.673  0.00  0.00    +0.000 A 
ATOM      7  C   UNL     1      50.016   2.867  17.347  0.00  0.00    +0.000 A 
ATOM      8  N   UNL     1      49.139   3.907  17.273  0.00  0.00    +0.000 NA
BRANCH   6   9
ATOM      9  C   UNL     1      52.299   1.956  17.627  0.00  0.00    +0.000 C 
ATOM     10  C   UNL     1      53.052   1.020  17.536  0.00  0.00    +0.000 C 
BRANCH  10  11
ATOM     11  C   UNL     1      53.914  -0.121  17.382  0.00  0.00    +0.000 A 
ATOM     12  C   UNL     1      54.564  -0.359  16.177  0.00  0.00    +0.000 A 
ATOM     13  C   UNL     1      55.356  -1.491  16.075  0.00  0.00    +0.000 A 
ATOM     14  N   UNL     1      55.536  -2.374  17.080  0.00  0.00    +0.000 NA
ATOM     15  C   UNL     1      54.895  -2.118  18.239  0.00  0.00    +0.000 A 
ATOM     16  C   UNL     1      54.081  -1.015  18.438  0.00  0.00    +0.000 A 
ENDBRANCH  10  11
ENDBRANCH   6   9
ENDBRANCH   2   3
BRANCH   2  17
ATOM     17  N   UNL     1      47.925   6.255  16.172  0.00  0.00    +0.000 N 
ATOM     18  C   UNL     1      48.457   6.422  14.913  0.00  0.00    +0.000 C 
ATOM     19  O   UNL     1      49.651   6.613  14.714  0.00  0.00    +0.000 OA
ATOM     20  H   UNL     1      46.940   6.486  16.277  0.00  0.00    +0.000 HD
BRANCH  18  21
ATOM     21  C   UNL     1      47.521   6.265  13.793  0.00  0.00    +0.000 A 
ATOM     22  C   UNL     1      47.171   7.361  13.017  0.00  0.00    +0.000 A 
ATOM     23  S   UNL     1      46.117   6.978  11.730  0.00  0.00    +0.000 S 
ATOM     24  C   UNL     1      46.047   5.345  12.204  0.00  0.00    +0.000 A 
ATOM     25  N   UNL     1      45.281   4.447  11.527  0.00  0.00    +0.000 NA
ATOM     26  C   UNL     1      45.293   3.255  12.025  0.00  0.00    +0.000 A 
ATOM     27  N   UNL     1      46.007   2.877  13.134  0.00  0.00    +0.000 N 
ATOM     28  C   UNL     1      46.829   3.738  13.820  0.00  0.00    +0.000 A 
ATOM     29  O   UNL     1      47.518   3.361  14.761  0.00  0.00    +0.000 OA
ATOM     30  C   UNL     1      46.833   5.095  13.313  0.00  0.00    +0.000 A 
ATOM     31  H   UNL     1      45.983   1.923  13.464  0.00  0.00    +0.000 HD
ENDBRANCH  18  21
ENDBRANCH   2  17
TORSDOF 5
ENDMDL
MODEL 3
REMARK VINA RESULT:    -6.257      4.315     10.182
REMARK INTER + INTRA:          -9.061
REMARK INTER:                  -8.291
REMARK INTRA:                  -0.770
REMARK UNBOUND:                -0.975
REMARK  Name = 
REMARK  6 active torsions:
REMARK  status: ('A' for Active; 'I' for Inactive)
REMARK    1  A    between atoms: C_1  and  C_2
REMARK    2  A    between atoms: C_2  and  N_3
REMARK    3  A    between atoms: C_2  and  C_16
REMARK    4  A    between atoms: C_4  and  C_6
REMARK    5  A    between atoms: C_19  and  C_20
REMARK    6  A    between atoms: C_21  and  C_22
REMARK                            x       y       z     vdW  Elec       q    Type
REMARK                         _______ _______ _______ _____ _____    ______ ____
ROOT
ATOM      1  C   UNL     1      48.844   8.486  12.277  0.00  0.00    +0.000 C 
ATOM      2  C   UNL     1      47.893   7.678  13.171  0.00  0.00    +0.000 C 
ENDROOT
BRANCH   2   3
ATOM      3  C   UNL     1      48.647   7.094  14.365  0.00  0.00    +0.000 A 
ATOM      4  C   UNL     1      49.912   7.563  14.725  0.00  0.00    +0.000 A 
ATOM      5  N   UNL     1      50.663   7.024  15.723  0.00  0.00    +0.000 NA
ATOM      6  C   UNL     1      50.099   5.985  16.375  0.00  0.00    +0.000 A 
ATOM      7  C   UNL     1      48.828   5.530  16.058  0.00  0.00    +0.000 A 
ATOM      8  N   UNL     1      48.079   6.066  15.054  0.00  0.00    +0.000 NA
BRANCH   6   9
ATOM      9  C   UNL     1      50.933   5.339  17.343  0.00  0.00    +0.000 C 
ATOM     10  C   UNL     1      51.663   4.754  18.103  0.00  0.00    +0.000 C 
BRANCH  10  11
ATOM     11  C   UNL     1      52.557   4.024  18.961  0.00  0.00    +0.000 A 
ATOM     12  C   UNL     1      53.267   2.931  18.477  0.00  0.00    +0.000 A 
ATOM     13  C   UNL     1      54.090   2.246  19.356  0.00  0.00    +0.000 A 
ATOM     14  N   UNL     1      54.244   2.581  20.655  0.00  0.00    +0.000 NA
ATOM     15  C   UNL     1      53.545   3.646  21.097  0.00  0.00    +0.000 A 
ATOM     16  C   UNL     1      52.697   4.394  20.297  0.00  0.00    +0.000 A 
ENDBRANCH  10  11
ENDBRANCH   6   9
ENDBRANCH   2   3
BRANCH   2  17
ATOM     17  N   UNL     1      47.207   6.626  12.416  0.00  0.00    +0.000 N 
ATOM     18  C   UNL     1      46.124   6.883  11.606  0.00  0.00    +0.000 C 
ATOM     19  O   UNL     1      45.688   8.013  11.415  0.00  0.00    +0.000 OA
ATOM     20  H   UNL     1      47.257   5.693  12.816  0.00  0.00    +0.000 HD
BRANCH  18  21
ATOM     21  C   UNL     1      45.562   5.727  10.897  0.00  0.00    +0.000 A 
ATOM     22  C   UNL     1      45.739   5.595   9.527  0.00  0.00    +0.000 A 
ATOM     23  S   UNL     1      45.063   4.164   8.886  0.00  0.00    +0.000 S 
ATOM     24  C   UNL     1      44.460   3.704  10.410  0.00  0.00    +0.000 A 
ATOM     25  N   UNL     1      43.741   2.560  10.567  0.00  0.00    +0.000 NA
ATOM     26  C   UNL     1      43.313   2.362  11.769  0.00  0.00    +0.000 A 
ATOM     27  N   UNL     1      43.545   3.199  12.831  0.00  0.00    +0.000 N 
ATOM     28  C   UNL     1      44.303   4.339  12.729  0.00  0.00    +0.000 A 
ATOM     29  O   UNL     1      44.563   5.032  13.706  0.00  0.00    +0.000 OA
ATOM     30  C   UNL     1      44.789   4.618  11.393  0.00  0.00    +0.000 A 
ATOM     31  H   UNL     1      43.192   2.978  13.751  0.00  0.00    +0.000 HD
ENDBRANCH  18  21
ENDBRANCH   2  17
TORSDOF 5
ENDMDL
MODEL 4
REMARK VINA RESULT:    -6.190      3.691      9.409
REMARK INTER + INTRA:          -8.975
REMARK INTER:                  -8.755
REMARK INTRA:                  -0.220
REMARK UNBOUND:                -0.975
REMARK  Name = 
REMARK  6 active torsions:
REMARK  status: ('A' for Active; 'I' for Inactive)
REMARK    1  A    between atoms: C_1  and  C_2
REMARK    2  A    between atoms: C_2  and  N_3
REMARK    3  A    between atoms: C_2  and  C_16
REMARK    4  A    between atoms: C_4  and  C_6
REMARK    5  A    between atoms: C_19  and  C_20
REMARK    6  A    between atoms: C_21  and  C_22
REMARK                            x       y       z     vdW  Elec       q    Type
REMARK                         _______ _______ _______ _____ _____    ______ ____
ROOT
ATOM      1  C   UNL     1      49.618   9.247  14.722  0.00  0.00    +0.000 C 
ATOM      2  C   UNL     1      48.659   8.354  15.521  0.00  0.00    +0.000 C 
ENDROOT
BRANCH   2   3
ATOM      3  C   UNL     1      49.426   7.219  16.201  0.00  0.00    +0.000 A 
ATOM      4  C   UNL     1      50.821   7.177  16.191  0.00  0.00    +0.000 A 
ATOM      5  N   UNL     1      51.551   6.151  16.705  0.00  0.00    +0.000 NA
ATOM      6  C   UNL     1      50.833   5.147  17.252  0.00  0.00    +0.000 A 
ATOM      7  C   UNL     1      49.448   5.188  17.306  0.00  0.00    +0.000 A 
ATOM      8  N   UNL     1      48.717   6.214  16.786  0.00  0.00    +0.000 NA
BRANCH   6   9
ATOM      9  C   UNL     1      51.591   4.012  17.685  0.00  0.00    +0.000 C 
ATOM     10  C   UNL     1      52.283   3.078  18.002  0.00  0.00    +0.000 C 
BRANCH  10  11
ATOM     11  C   UNL     1      53.154   1.986  18.344  0.00  0.00    +0.000 A 
ATOM     12  C   UNL     1      52.919   0.710  17.843  0.00  0.00    +0.000 A 
ATOM     13  C   UNL     1      53.771  -0.311  18.231  0.00  0.00    +0.000 A 
ATOM     14  N   UNL     1      54.817  -0.138  19.067  0.00  0.00    +0.000 NA
ATOM     15  C   UNL     1      55.023   1.110  19.537  0.00  0.00    +0.000 A 
ATOM     16  C   UNL     1      54.227   2.195  19.208  0.00  0.00    +0.000 A 
ENDBRANCH  10  11
ENDBRANCH   6   9
ENDBRANCH   2   3
BRANCH   2  17
ATOM     17  N   UNL     1      47.583   7.828  14.678  0.00  0.00    +0.000 N 
ATOM     18  C   UNL     1      47.820   6.986  13.615  0.00  0.00    +0.000 C 
ATOM     19  O   UNL     1      48.939   6.573  13.329  0.00  0.00    +0.000 OA
ATOM     20  H   UNL     1      46.750   8.407  14.614  0.00  0.00    +0.000 HD
BRANCH  18  21
ATOM     21  C   UNL     1      46.635   6.526  12.880  0.00  0.00    +0.000 A 
ATOM     22  C   UNL     1      45.825   7.439  12.220  0.00  0.00    +0.000 A 
ATOM     23  S   UNL     1      44.528   6.716  11.379  0.00  0.00    +0.000 S 
ATOM     24  C   UNL     1      44.973   5.164  11.917  0.00  0.00    +0.000 A 
ATOM     25  N   UNL     1      44.249   4.064  11.576  0.00  0.00    +0.000 NA
ATOM     26  C   UNL     1      44.680   2.962  12.091  0.00  0.00    +0.000 A 
ATOM     27  N   UNL     1      45.774   2.857  12.912  0.00  0.00    +0.000 N 
ATOM     28  C   UNL     1      46.561   3.932  13.246  0.00  0.00    +0.000 A 
ATOM     29  O   UNL     1      47.579   3.805  13.917  0.00  0.00    +0.000 OA
ATOM     30  C   UNL     1      46.106   5.198  12.709  0.00  0.00    +0.000 A 
ATOM     31  H   UNL     1      46.067   1.960  13.271  0.00  0.00    +0.000 HD
ENDBRANCH  18  21
ENDBRANCH   2  17
TORSDOF 5
ENDMDL
MODEL 5
REMARK VINA RESULT:    -5.624      4.571     10.190
REMARK INTER + INTRA:          -8.243
REMARK INTER:                  -8.023
REMARK INTRA:                  -0.220
REMARK UNBOUND:                -0.975
REMARK  Name = 
REMARK  6 active torsions:
REMARK  status: ('A' for Active; 'I' for Inactive)
REMARK    1  A    between atoms: C_1  and  C_2
REMARK    2  A    between atoms: C_2  and  N_3
REMARK    3  A    between atoms: C_2  and  C_16
REMARK    4  A    between atoms: C_4  and  C_6
REMARK    5  A    between atoms: C_19  and  C_20
REMARK    6  A    between atoms: C_21  and  C_22
REMARK                            x       y       z     vdW  Elec       q    Type
REMARK                         _______ _______ _______ _____ _____    ______ ____
ROOT
ATOM      1  C   UNL     1      46.826   9.636  12.353  0.00  0.00    +0.000 C 
ATOM      2  C   UNL     1      46.562   8.409  13.236  0.00  0.00    +0.000 C 
ENDROOT
BRANCH   2   3
ATOM      3  C   UNL     1      47.858   7.931  13.890  0.00  0.00    +0.000 A 
ATOM      4  C   UNL     1      47.920   6.717  14.577  0.00  0.00    +0.000 A 
ATOM      5  N   UNL     1      49.020   6.283  15.249  0.00  0.00    +0.000 NA
ATOM      6  C   UNL     1      50.088   7.109  15.207  0.00  0.00    +0.000 A 
ATOM      7  C   UNL     1      50.058   8.301  14.498  0.00  0.00    +0.000 A 
ATOM      8  N   UNL     1      48.954   8.738  13.830  0.00  0.00    +0.000 NA
BRANCH   6   9
ATOM      9  C   UNL     1      51.205   6.714  16.011  0.00  0.00    +0.000 C 
ATOM     10  C   UNL     1      52.128   6.310  16.671  0.00  0.00    +0.000 C 
BRANCH  10  11
ATOM     11  C   UNL     1      53.217   5.770  17.440  0.00  0.00    +0.000 A 
ATOM     12  C   UNL     1      54.282   6.577  17.821  0.00  0.00    +0.000 A 
ATOM     13  C   UNL     1      55.319   5.997  18.533  0.00  0.00    +0.000 A 
ATOM     14  N   UNL     1      55.353   4.693  18.880  0.00  0.00    +0.000 NA
ATOM     15  C   UNL     1      54.306   3.933  18.499  0.00  0.00    +0.000 A 
ATOM     16  C   UNL     1      53.223   4.420  17.785  0.00  0.00    +0.000 A 
ENDBRANCH  10  11
ENDBRANCH   6   9
ENDBRANCH   2   3
BRANCH   2  17
ATOM     17  N   UNL     1      45.925   7.328  12.480  0.00  0.00    +0.000 N 
ATOM     18  C   UNL     1      46.555   6.683  11.439  0.00  0.00    +0.000 C 
ATOM     19  O   UNL     1      47.709   6.928  11.103  0.00  0.00    +0.000 OA
ATOM     20  H   UNL     1      44.910   7.354  12.443  0.00  0.00    +0.000 HD
BRANCH  18  21
ATOM     21  C   UNL     1      45.795   5.604  10.795  0.00  0.00    +0.000 A 
ATOM     22  C   UNL     1      45.783   5.487   9.412  0.00  0.00    +0.000 A 
ATOM     23  S   UNL     1      44.892   4.145   8.849  0.00  0.00    +0.000 S 
ATOM     24  C   UNL     1      44.445   3.710  10.433  0.00  0.00    +0.000 A 
ATOM     25  N   UNL     1      43.641   2.638  10.669  0.00  0.00    +0.000 NA
ATOM     26  C   UNL     1      43.351   2.454  11.913  0.00  0.00    +0.000 A 
ATOM     27  N   UNL     1      43.798   3.240  12.945  0.00  0.00    +0.000 N 
ATOM     28  C   UNL     1      44.647   4.303  12.759  0.00  0.00    +0.000 A 
ATOM     29  O   UNL     1      45.097   4.944  13.702  0.00  0.00    +0.000 OA
ATOM     30  C   UNL     1      44.985   4.565  11.374  0.00  0.00    +0.000 A 
ATOM     31  H   UNL     1      43.545   3.032  13.900  0.00  0.00    +0.000 HD
ENDBRANCH  18  21
ENDBRANCH   2  17
TORSDOF 5
ENDMDL
MODEL 6
REMARK VINA RESULT:    -5.622      4.848     10.586
REMARK INTER + INTRA:          -8.240
REMARK INTER:                  -7.430
REMARK INTRA:                  -0.810
REMARK UNBOUND:                -0.975
REMARK  Name = 
REMARK  6 active torsions:
REMARK  status: ('A' for Active; 'I' for Inactive)
REMARK    1  A    between atoms: C_1  and  C_2
REMARK    2  A    between atoms: C_2  and  N_3
REMARK    3  A    between atoms: C_2  and  C_16
REMARK    4  A    between atoms: C_4  and  C_6
REMARK    5  A    between atoms: C_19  and  C_20
REMARK    6  A    between atoms: C_21  and  C_22
REMARK                            x       y       z     vdW  Elec       q    Type
REMARK                         _______ _______ _______ _____ _____    ______ ____
ROOT
ATOM      1  C   UNL     1      47.739   8.453  11.804  0.00  0.00    +0.000 C 
ATOM      2  C   UNL     1      47.228   7.588  12.964  0.00  0.00    +0.000 C 
ENDROOT
BRANCH   2   3
ATOM      3  C   UNL     1      48.371   7.239  13.917  0.00  0.00    +0.000 A 
ATOM      4  C   UNL     1      48.247   6.211  14.854  0.00  0.00    +0.000 A 
ATOM      5  N   UNL     1      49.197   5.913  15.780  0.00  0.00    +0.000 NA
ATOM      6  C   UNL     1      50.307   6.682  15.739  0.00  0.00    +0.000 A 
ATOM      7  C   UNL     1      50.465   7.683  14.792  0.00  0.00    +0.000 A 
ATOM      8  N   UNL     1      49.510   7.984  13.868  0.00  0.00    +0.000 NA
BRANCH   6   9
ATOM      9  C   UNL     1      51.255   6.452  16.787  0.00  0.00    +0.000 C 
ATOM     10  C   UNL     1      51.996   6.240  17.713  0.00  0.00    +0.000 C 
BRANCH  10  11
ATOM     11  C   UNL     1      52.831   5.969  18.852  0.00  0.00    +0.000 A 
ATOM     12  C   UNL     1      52.672   4.797  19.583  0.00  0.00    +0.000 A 
ATOM     13  C   UNL     1      53.481   4.603  20.690  0.00  0.00    +0.000 A 
ATOM     14  N   UNL     1      54.418   5.485  21.099  0.00  0.00    +0.000 NA
ATOM     15  C   UNL     1      54.552   6.613  20.371  0.00  0.00    +0.000 A 
ATOM     16  C   UNL     1      53.790   6.898  19.249  0.00  0.00    +0.000 A 
ENDBRANCH  10  11
ENDBRANCH   6   9
ENDBRANCH   2   3
BRANCH   2  17
ATOM     17  N   UNL     1      46.559   6.377  12.480  0.00  0.00    +0.000 N 
ATOM     18  C   UNL     1      45.224   6.355  12.142  0.00  0.00    +0.000 C 
ATOM     19  O   UNL     1      44.513   7.354  12.169  0.00  0.00    +0.000 OA
ATOM     20  H   UNL     1      46.956   5.497  12.797  0.00  0.00    +0.000 HD
BRANCH  18  21
ATOM     21  C   UNL     1      44.706   5.072  11.650  0.00  0.00    +0.000 A 
ATOM     22  C   UNL     1      43.924   4.274  12.473  0.00  0.00    +0.000 A 
ATOM     23  S   UNL     1      43.368   2.850  11.714  0.00  0.00    +0.000 S 
ATOM     24  C   UNL     1      44.204   3.225  10.280  0.00  0.00    +0.000 A 
ATOM     25  N   UNL     1      44.174   2.388   9.207  0.00  0.00    +0.000 NA
ATOM     26  C   UNL     1      44.888   2.782   8.206  0.00  0.00    +0.000 A 
ATOM     27  N   UNL     1      45.624   3.939   8.176  0.00  0.00    +0.000 N 
ATOM     28  C   UNL     1      45.647   4.835   9.216  0.00  0.00    +0.000 A 
ATOM     29  O   UNL     1      46.249   5.900   9.139  0.00  0.00    +0.000 OA
ATOM     30  C   UNL     1      44.878   4.428  10.375  0.00  0.00    +0.000 A 
ATOM     31  H   UNL     1      46.151   4.195   7.354  0.00  0.00    +0.000 HD
ENDBRANCH  18  21
ENDBRANCH   2  17
TORSDOF 5
ENDMDL
MODEL 7
REMARK VINA RESULT:    -5.369      5.413     10.586
REMARK INTER + INTRA:          -7.913
REMARK INTER:                  -7.122
REMARK INTRA:                  -0.791
REMARK UNBOUND:                -0.975
REMARK  Name = 
REMARK  6 active torsions:
REMARK  status: ('A' for Active; 'I' for Inactive)
REMARK    1  A    between atoms: C_1  and  C_2
REMARK    2  A    between atoms: C_2  and  N_3
REMARK    3  A    between atoms: C_2  and  C_16
REMARK    4  A    between atoms: C_4  and  C_6
REMARK    5  A    between atoms: C_19  and  C_20
REMARK    6  A    between atoms: C_21  and  C_22
REMARK                            x       y       z     vdW  Elec       q    Type
REMARK                         _______ _______ _______ _____ _____    ______ ____
ROOT
ATOM      1  C   UNL     1      44.957   7.570  11.392  0.00  0.00    +0.000 C 
ATOM      2  C   UNL     1      45.213   6.268  12.162  0.00  0.00    +0.000 C 
ENDROOT
BRANCH   2   3
ATOM      3  C   UNL     1      46.393   6.434  13.119  0.00  0.00    +0.000 A 
ATOM      4  C   UNL     1      46.905   5.350  13.835  0.00  0.00    +0.000 A 
ATOM      5  N   UNL     1      47.896   5.455  14.761  0.00  0.00    +0.000 NA
ATOM      6  C   UNL     1      48.381   6.701  14.951  0.00  0.00    +0.000 A 
ATOM      7  C   UNL     1      47.911   7.784  14.222  0.00  0.00    +0.000 A 
ATOM      8  N   UNL     1      46.915   7.679  13.299  0.00  0.00    +0.000 NA
BRANCH   6   9
ATOM      9  C   UNL     1      49.337   6.836  16.008  0.00  0.00    +0.000 C 
ATOM     10  C   UNL     1      50.113   6.888  16.929  0.00  0.00    +0.000 C 
BRANCH  10  11
ATOM     11  C   UNL     1      51.014   6.896  18.049  0.00  0.00    +0.000 A 
ATOM     12  C   UNL     1      52.389   6.850  17.851  0.00  0.00    +0.000 A 
ATOM     13  C   UNL     1      53.210   6.827  18.966  0.00  0.00    +0.000 A 
ATOM     14  N   UNL     1      52.751   6.849  20.236  0.00  0.00    +0.000 NA
ATOM     15  C   UNL     1      51.412   6.894  20.399  0.00  0.00    +0.000 A 
ATOM     16  C   UNL     1      50.511   6.920  19.348  0.00  0.00    +0.000 A 
ENDBRANCH  10  11
ENDBRANCH   6   9
ENDBRANCH   2   3
BRANCH   2  17
ATOM     17  N   UNL     1      45.427   5.138  11.254  0.00  0.00    +0.000 N 
ATOM     18  C   UNL     1      44.396   4.534  10.570  0.00  0.00    +0.000 C 
ATOM     19  O   UNL     1      43.236   4.928  10.627  0.00  0.00    +0.000 OA
ATOM     20  H   UNL     1      46.232   4.552  11.460  0.00  0.00    +0.000 HD
BRANCH  18  21
ATOM     21  C   UNL     1      44.775   3.429   9.679  0.00  0.00    +0.000 A 
ATOM     22  C   UNL     1      44.244   2.162   9.876  0.00  0.00    +0.000 A 
ATOM     23  S   UNL     1      44.756   1.021   8.713  0.00  0.00    +0.000 S 
ATOM     24  C   UNL     1      45.749   2.170   7.945  0.00  0.00    +0.000 A 
ATOM     25  N   UNL     1      46.508   1.836   6.866  0.00  0.00    +0.000 NA
ATOM     26  C   UNL     1      47.243   2.798   6.415  0.00  0.00    +0.000 A 
ATOM     27  N   UNL     1      47.283   4.064   6.940  0.00  0.00    +0.000 N 
ATOM     28  C   UNL     1      46.501   4.458   7.998  0.00  0.00    +0.000 A 
ATOM     29  O   UNL     1      46.495   5.615   8.402  0.00  0.00    +0.000 OA
ATOM     30  C   UNL     1      45.673   3.407   8.555  0.00  0.00    +0.000 A 
ATOM     31  H   UNL     1      47.871   4.776   6.530  0.00  0.00    +0.000 HD
ENDBRANCH  18  21
ENDBRANCH   2  17
TORSDOF 5
ENDMDL
MODEL 8
REMARK VINA RESULT:    -5.312      6.783     10.401
REMARK INTER + INTRA:          -7.840
REMARK INTER:                  -8.194
REMARK INTRA:                   0.354
REMARK UNBOUND:                -0.975
REMARK  Name = 
REMARK  6 active torsions:
REMARK  status: ('A' for Active; 'I' for Inactive)
REMARK    1  A    between atoms: C_1  and  C_2
REMARK    2  A    between atoms: C_2  and  N_3
REMARK    3  A    between atoms: C_2  and  C_16
REMARK    4  A    between atoms: C_4  and  C_6
REMARK    5  A    between atoms: C_19  and  C_20
REMARK    6  A    between atoms: C_21  and  C_22
REMARK                            x       y       z     vdW  Elec       q    Type
REMARK                         _______ _______ _______ _____ _____    ______ ____
ROOT
ATOM      1  C   UNL     1      43.049   4.056  11.526  0.00  0.00    +0.000 C 
ATOM      2  C   UNL     1      44.298   3.326  12.037  0.00  0.00    +0.000 C 
ENDROOT
BRANCH   2   3
ATOM      3  C   UNL     1      45.263   4.312  12.696  0.00  0.00    +0.000 A 
ATOM      4  C   UNL     1      45.283   5.661  12.333  0.00  0.00    +0.000 A 
ATOM      5  N   UNL     1      46.175   6.563  12.824  0.00  0.00    +0.000 NA
ATOM      6  C   UNL     1      47.063   6.072  13.716  0.00  0.00    +0.000 A 
ATOM      7  C   UNL     1      47.034   4.745  14.117  0.00  0.00    +0.000 A 
ATOM      8  N   UNL     1      46.144   3.841  13.621  0.00  0.00    +0.000 NA
BRANCH   6   9
ATOM      9  C   UNL     1      48.077   6.988  14.143  0.00  0.00    +0.000 C 
ATOM     10  C   UNL     1      48.972   7.738  14.443  0.00  0.00    +0.000 C 
BRANCH  10  11
ATOM     11  C   UNL     1      50.069   8.616  14.749  0.00  0.00    +0.000 A 
ATOM     12  C   UNL     1      49.835   9.910  15.198  0.00  0.00    +0.000 A 
ATOM     13  C   UNL     1      50.929  10.723  15.446  0.00  0.00    +0.000 A 
ATOM     14  N   UNL     1      52.210  10.329  15.279  0.00  0.00    +0.000 NA
ATOM     15  C   UNL     1      52.408   9.067  14.844  0.00  0.00    +0.000 A 
ATOM     16  C   UNL     1      51.380   8.180  14.568  0.00  0.00    +0.000 A 
ENDBRANCH  10  11
ENDBRANCH   6   9
ENDBRANCH   2   3
BRANCH   2  17
ATOM     17  N   UNL     1      44.962   2.579  10.966  0.00  0.00    +0.000 N 
ATOM     18  C   UNL     1      44.827   2.915   9.637  0.00  0.00    +0.000 C 
ATOM     19  O   UNL     1      44.190   3.891   9.258  0.00  0.00    +0.000 OA
ATOM     20  H   UNL     1      45.154   1.601  11.163  0.00  0.00    +0.000 HD
BRANCH  18  21
ATOM     21  C   UNL     1      45.574   2.085   8.684  0.00  0.00    +0.000 A 
ATOM     22  C   UNL     1      45.483   0.701   8.744  0.00  0.00    +0.000 A 
ATOM     23  S   UNL     1      46.376  -0.094   7.525  0.00  0.00    +0.000 S 
ATOM     24  C   UNL     1      46.959   1.383   6.914  0.00  0.00    +0.000 A 
ATOM     25  N   UNL     1      47.817   1.420   5.859  0.00  0.00    +0.000 NA
ATOM     26  C   UNL     1      48.209   2.606   5.532  0.00  0.00    +0.000 A 
ATOM     27  N   UNL     1      47.815   3.761   6.160  0.00  0.00    +0.000 N 
ATOM     28  C   UNL     1      46.916   3.775   7.199  0.00  0.00    +0.000 A 
ATOM     29  O   UNL     1      46.518   4.823   7.694  0.00  0.00    +0.000 OA
ATOM     30  C   UNL     1      46.463   2.464   7.618  0.00  0.00    +0.000 A 
ATOM     31  H   UNL     1      48.149   4.660   5.846  0.00  0.00    +0.000 HD
ENDBRANCH  18  21
ENDBRANCH   2  17
TORSDOF 5
ENDMDL
MODEL 9
REMARK VINA RESULT:    -4.972      3.335      4.458
REMARK INTER + INTRA:          -7.400
REMARK INTER:                  -6.385
REMARK INTRA:                  -1.015
REMARK UNBOUND:                -0.975
REMARK  Name = 
REMARK  6 active torsions:
REMARK  status: ('A' for Active; 'I' for Inactive)
REMARK    1  A    between atoms: C_1  and  C_2
REMARK    2  A    between atoms: C_2  and  N_3
REMARK    3  A    between atoms: C_2  and  C_16
REMARK    4  A    between atoms: C_4  and  C_6
REMARK    5  A    between atoms: C_19  and  C_20
REMARK    6  A    between atoms: C_21  and  C_22
REMARK                            x       y       z     vdW  Elec       q    Type
REMARK                         _______ _______ _______ _____ _____    ______ ____
ROOT
ATOM      1  C   UNL     1      50.918  10.788  15.372  0.00  0.00    +0.000 C 
ATOM      2  C   UNL     1      51.402   9.481  14.732  0.00  0.00    +0.000 C 
ENDROOT
BRANCH   2   3
ATOM      3  C   UNL     1      50.239   8.750  14.060  0.00  0.00    +0.000 A 
ATOM      4  C   UNL     1      48.975   8.700  14.651  0.00  0.00    +0.000 A 
ATOM      5  N   UNL     1      47.930   7.996  14.142  0.00  0.00    +0.000 NA
ATOM      6  C   UNL     1      48.183   7.333  12.992  0.00  0.00    +0.000 A 
ATOM      7  C   UNL     1      49.421   7.401  12.371  0.00  0.00    +0.000 A 
ATOM      8  N   UNL     1      50.470   8.102  12.885  0.00  0.00    +0.000 NA
BRANCH   6   9
ATOM      9  C   UNL     1      47.124   6.494  12.518  0.00  0.00    +0.000 C 
ATOM     10  C   UNL     1      46.235   5.751  12.184  0.00  0.00    +0.000 C 
BRANCH  10  11
ATOM     11  C   UNL     1      45.177   4.839  11.842  0.00  0.00    +0.000 A 
ATOM     12  C   UNL     1      44.485   4.155  12.835  0.00  0.00    +0.000 A 
ATOM     13  C   UNL     1      43.497   3.265  12.446  0.00  0.00    +0.000 A 
ATOM     14  N   UNL     1      43.167   3.025  11.159  0.00  0.00    +0.000 NA
ATOM     15  C   UNL     1      43.854   3.703  10.217  0.00  0.00    +0.000 A 
ATOM     16  C   UNL     1      44.858   4.613  10.505  0.00  0.00    +0.000 A 
ENDBRANCH  10  11
ENDBRANCH   6   9
ENDBRANCH   2   3
BRANCH   2  17
ATOM     17  N   UNL     1      52.071   8.617  15.708  0.00  0.00    +0.000 N 
ATOM     18  C   UNL     1      53.127   7.800  15.371  0.00  0.00    +0.000 C 
ATOM     19  O   UNL     1      53.618   7.774  14.248  0.00  0.00    +0.000 OA
ATOM     20  H   UNL     1      51.500   8.312  16.492  0.00  0.00    +0.000 HD
BRANCH  18  21
ATOM     21  C   UNL     1      53.707   7.013  16.467  0.00  0.00    +0.000 A 
ATOM     22  C   UNL     1      55.023   7.222  16.856  0.00  0.00    +0.000 A 
ATOM     23  S   UNL     1      55.504   6.255  18.177  0.00  0.00    +0.000 S 
ATOM     24  C   UNL     1      53.988   5.484  18.234  0.00  0.00    +0.000 A 
ATOM     25  N   UNL     1      53.730   4.503  19.142  0.00  0.00    +0.000 NA
ATOM     26  C   UNL     1      52.553   3.980  19.040  0.00  0.00    +0.000 A 
ATOM     27  N   UNL     1      51.609   4.353  18.117  0.00  0.00    +0.000 N 
ATOM     28  C   UNL     1      51.809   5.368  17.214  0.00  0.00    +0.000 A 
ATOM     29  O   UNL     1      50.924   5.737  16.450  0.00  0.00    +0.000 OA
ATOM     30  C   UNL     1      53.124   5.973  17.273  0.00  0.00    +0.000 A 
ATOM     31  H   UNL     1      50.701   3.912  18.100  0.00  0.00    +0.000 HD
ENDBRANCH  18  21
ENDBRANCH   2  17
TORSDOF 5
ENDMDL
