MODEL 1
REMARK VINA RESULT:    -8.873      0.000      0.000
REMARK INTER + INTRA:         -12.042
REMARK INTER:                 -11.466
REMARK INTRA:                  -0.576
REMARK UNBOUND:                -0.576
REMARK  Name = 
REMARK  5 active torsions:
REMARK  status: ('A' for Active; 'I' for Inactive)
REMARK    1  A    between atoms: C_2  and  C_4
REMARK    2  A    between atoms: C_7  and  O_8
REMARK    3  A    between atoms: O_8  and  C_9
REMARK    4  A    between atoms: C_9  and  C_10
REMARK    5  A    between atoms: C_12  and  C_13
REMARK                            x       y       z     vdW  Elec       q    Type
REMARK                         _______ _______ _______ _____ _____    ______ ____
ROOT
ATOM      1  C   UNL     1      43.819   3.658  11.640  0.00  0.00    +0.000 C 
ENDROOT
BRANCH   1   2
ATOM      2  C   UNL     1      45.088   4.232  12.230  0.00  0.00    +0.000 A 
ATOM      3  C   UNL     1      45.493   5.517  11.918  0.00  0.00    +0.000 A 
ATOM      4  C   UNL     1      46.635   5.995  12.536  0.00  0.00    +0.000 A 
ATOM      5  N   UNL     1      47.336   5.242  13.409  0.00  0.00    +0.000 NA
ATOM      6  C   UNL     1      46.855   4.017  13.664  0.00  0.00    +0.000 A 
ATOM      7  N   UNL     1      45.758   3.470  13.121  0.00  0.00    +0.000 NA
BRANCH   4   8
ATOM      8  C   UNL     1      47.151   7.355  12.288  0.00  0.00    +0.000 A 
ATOM      9  C   UNL     1      46.338   8.489  12.487  0.00  0.00    +0.000 A 
ATOM     10  C   UNL     1      46.819   9.784  12.260  0.00  0.00    +0.000 A 
ATOM     11  C   UNL     1      48.128   9.970  11.826  0.00  0.00    +0.000 A 
ATOM     12  C   UNL     1      48.939   8.866  11.620  0.00  0.00    +0.000 A 
ATOM     13  F   UNL     1      50.198   9.036  11.199  0.00  0.00    +0.000 F 
ATOM     14  C   UNL     1      48.467   7.575  11.843  0.00  0.00    +0.000 A 
ENDBRANCH   4   8
ENDBRANCH   1   2
BRANCH   1  15
ATOM     15  O   UNL     1      43.652   4.096  10.283  0.00  0.00    +0.000 OA
BRANCH  15  19
ATOM     16  C   UNL     1      46.392   2.408   7.721  0.00  0.00    +0.000 A 
ATOM     17  C   UNL     1      46.166   3.787   7.679  0.00  0.00    +0.000 A 
ATOM     18  C   UNL     1      45.232   4.347   8.553  0.00  0.00    +0.000 A 
ATOM     19  C   UNL     1      44.562   3.508   9.432  0.00  0.00    +0.000 A 
ATOM     20  N   UNL     1      44.754   2.176   9.486  0.00  0.00    +0.000 NA
ATOM     21  C   UNL     1      45.658   1.653   8.625  0.00  0.00    +0.000 A 
BRANCH  16  23
ATOM     22  N   UNL     1      48.439   2.411   6.410  0.00  0.00    +0.000 N 
ATOM     23  C   UNL     1      47.349   1.709   6.841  0.00  0.00    +0.000 C 
ATOM     24  O   UNL     1      47.195   0.533   6.542  0.00  0.00    +0.000 OA
ATOM     25  H   UNL     1      49.137   1.877   5.908  0.00  0.00    +0.000 HD
ATOM     26  H   UNL     1      48.735   3.275   6.840  0.00  0.00    +0.000 HD
ENDBRANCH  16  23
ENDBRANCH  15  19
ENDBRANCH   1  15
TORSDOF 5
ENDMDL
MODEL 2
REMARK VINA RESULT:    -8.868      0.935      1.353
REMARK INTER + INTRA:         -12.036
REMARK INTER:                 -11.486
REMARK INTRA:                  -0.550
REMARK UNBOUND:                -0.576
REMARK  Name = 
REMARK  5 active torsions:
REMARK  status: ('A' for Active; 'I' for Inactive)
REMARK    1  A    between atoms: C_2  and  C_4
REMARK    2  A    between atoms: C_7  and  O_8
REMARK    3  A    between atoms: O_8  and  C_9
REMARK    4  A    between atoms: C_9  and  C_10
REMARK    5  A    between atoms: C_12  and  C_13
REMARK                            x       y       z     vdW  Elec       q    Type
REMARK                         _______ _______ _______ _____ _____    ______ ____
ROOT
ATOM      1  C   UNL     1      43.834   3.667  11.606  0.00  0.00    +0.000 C 
ENDROOT
BRANCH   1   2
ATOM      2  C   UNL     1      45.119   4.212  12.190  0.00  0.00    +0.000 A 
ATOM      3  C   UNL     1      45.540   5.496  11.895  0.00  0.00    +0.000 A 
ATOM      4  C   UNL     1      46.696   5.947  12.507  0.00  0.00    +0.000 A 
ATOM      5  N   UNL     1      47.397   5.168  13.358  0.00  0.00    +0.000 NA
ATOM      6  C   UNL     1      46.901   3.946  13.597  0.00  0.00    +0.000 A 
ATOM      7  N   UNL     1      45.789   3.425  13.059  0.00  0.00    +0.000 NA
BRANCH   4   8
ATOM      8  C   UNL     1      47.230   7.303  12.276  0.00  0.00    +0.000 A 
ATOM      9  C   UNL     1      48.585   7.506  11.953  0.00  0.00    +0.000 A 
ATOM     10  C   UNL     1      49.101   8.788  11.727  0.00  0.00    +0.000 A 
ATOM     11  C   UNL     1      48.266   9.897  11.824  0.00  0.00    +0.000 A 
ATOM     12  C   UNL     1      46.931   9.715  12.147  0.00  0.00    +0.000 A 
ATOM     13  F   UNL     1      46.122  10.778  12.245  0.00  0.00    +0.000 F 
ATOM     14  C   UNL     1      46.411   8.443  12.373  0.00  0.00    +0.000 A 
ENDBRANCH   4   8
ENDBRANCH   1   2
BRANCH   1  15
ATOM     15  O   UNL     1      43.669   4.113  10.252  0.00  0.00    +0.000 OA
BRANCH  15  19
ATOM     16  C   UNL     1      46.414   2.441   7.685  0.00  0.00    +0.000 A 
ATOM     17  C   UNL     1      46.203   3.823   7.665  0.00  0.00    +0.000 A 
ATOM     18  C   UNL     1      45.267   4.377   8.541  0.00  0.00    +0.000 A 
ATOM     19  C   UNL     1      44.581   3.530   9.399  0.00  0.00    +0.000 A 
ATOM     20  N   UNL     1      44.758   2.195   9.431  0.00  0.00    +0.000 NA
ATOM     21  C   UNL     1      45.664   1.678   8.569  0.00  0.00    +0.000 A 
BRANCH  16  23
ATOM     22  N   UNL     1      48.425   2.472   6.320  0.00  0.00    +0.000 N 
ATOM     23  C   UNL     1      47.372   1.748   6.802  0.00  0.00    +0.000 C 
ATOM     24  O   UNL     1      47.252   0.558   6.543  0.00  0.00    +0.000 OA
ATOM     25  H   UNL     1      49.128   1.946   5.815  0.00  0.00    +0.000 HD
ATOM     26  H   UNL     1      48.702   3.359   6.714  0.00  0.00    +0.000 HD
ENDBRANCH  16  23
ENDBRANCH  15  19
ENDBRANCH   1  15
TORSDOF 5
ENDMDL
MODEL 3
REMARK VINA RESULT:    -8.406      3.440      6.781
REMARK INTER + INTRA:         -11.438
REMARK INTER:                 -10.642
REMARK INTRA:                  -0.797
REMARK UNBOUND:                -0.576
REMARK  Name = 
REMARK  5 active torsions:
REMARK  status: ('A' for Active; 'I' for Inactive)
REMARK    1  A    between atoms: C_2  and  C_4
REMARK    2  A    between atoms: C_7  and  O_8
REMARK    3  A    between atoms: O_8  and  C_9
REMARK    4  A    between atoms: C_9  and  C_10
REMARK    5  A    between atoms: C_12  and  C_13
REMARK                            x       y       z     vdW  Elec       q    Type
REMARK                         _______ _______ _______ _____ _____    ______ ____
ROOT
ATOM      1  C   UNL     1      44.083   6.569  11.551  0.00  0.00    +0.000 C 
ENDROOT
BRANCH   1   2
ATOM      2  C   UNL     1      44.030   5.136  11.069  0.00  0.00    +0.000 A 
ATOM      3  C   UNL     1      44.816   4.717  10.011  0.00  0.00    +0.000 A 
ATOM      4  C   UNL     1      44.757   3.380   9.660  0.00  0.00    +0.000 A 
ATOM      5  N   UNL     1      43.961   2.510  10.316  0.00  0.00    +0.000 NA
ATOM      6  C   UNL     1      43.251   3.004  11.340  0.00  0.00    +0.000 A 
ATOM      7  N   UNL     1      43.247   4.278  11.757  0.00  0.00    +0.000 NA
BRANCH   4   8
ATOM      8  C   UNL     1      45.562   2.821   8.557  0.00  0.00    +0.000 A 
ATOM      9  C   UNL     1      46.000   3.633   7.492  0.00  0.00    +0.000 A 
ATOM     10  C   UNL     1      46.769   3.115   6.443  0.00  0.00    +0.000 A 
ATOM     11  C   UNL     1      47.114   1.767   6.439  0.00  0.00    +0.000 A 
ATOM     12  C   UNL     1      46.686   0.953   7.475  0.00  0.00    +0.000 A 
ATOM     13  F   UNL     1      47.011  -0.346   7.476  0.00  0.00    +0.000 F 
ATOM     14  C   UNL     1      45.921   1.462   8.522  0.00  0.00    +0.000 A 
ENDBRANCH   4   8
ENDBRANCH   1   2
BRANCH   1  15
ATOM     15  O   UNL     1      44.744   6.647  12.822  0.00  0.00    +0.000 OA
BRANCH  15  19
ATOM     16  C   UNL     1      48.723   7.609  12.418  0.00  0.00    +0.000 A 
ATOM     17  C   UNL     1      47.747   8.525  12.014  0.00  0.00    +0.000 A 
ATOM     18  C   UNL     1      46.400   8.185  12.155  0.00  0.00    +0.000 A 
ATOM     19  C   UNL     1      46.083   6.946  12.693  0.00  0.00    +0.000 A 
ATOM     20  N   UNL     1      47.004   6.042  13.081  0.00  0.00    +0.000 NA
ATOM     21  C   UNL     1      48.303   6.389  12.928  0.00  0.00    +0.000 A 
BRANCH  16  23
ATOM     22  N   UNL     1      50.898   7.883  13.468  0.00  0.00    +0.000 N 
ATOM     23  C   UNL     1      50.174   7.859  12.310  0.00  0.00    +0.000 C 
ATOM     24  O   UNL     1      50.716   7.999  11.222  0.00  0.00    +0.000 OA
ATOM     25  H   UNL     1      51.904   7.938  13.358  0.00  0.00    +0.000 HD
ATOM     26  H   UNL     1      50.546   7.516  14.339  0.00  0.00    +0.000 HD
ENDBRANCH  16  23
ENDBRANCH  15  19
ENDBRANCH   1  15
TORSDOF 5
ENDMDL
MODEL 4
REMARK VINA RESULT:    -8.402      1.544      1.952
REMARK INTER + INTRA:         -11.434
REMARK INTER:                 -10.751
REMARK INTRA:                  -0.683
REMARK UNBOUND:                -0.576
REMARK  Name = 
REMARK  5 active torsions:
REMARK  status: ('A' for Active; 'I' for Inactive)
REMARK    1  A    between atoms: C_2  and  C_4
REMARK    2  A    between atoms: C_7  and  O_8
REMARK    3  A    between atoms: O_8  and  C_9
REMARK    4  A    between atoms: C_9  and  C_10
REMARK    5  A    between atoms: C_12  and  C_13
REMARK                            x       y       z     vdW  Elec       q    Type
REMARK                         _______ _______ _______ _____ _____    ______ ____
ROOT
ATOM      1  C   UNL     1      44.129   5.243  10.857  0.00  0.00    +0.000 C 
ENDROOT
BRANCH   1   2
ATOM      2  C   UNL     1      45.313   5.180  11.796  0.00  0.00    +0.000 A 
ATOM      3  C   UNL     1      46.322   6.124  11.726  0.00  0.00    +0.000 A 
ATOM      4  C   UNL     1      47.346   6.036  12.651  0.00  0.00    +0.000 A 
ATOM      5  N   UNL     1      47.372   5.066  13.589  0.00  0.00    +0.000 NA
ATOM      6  C   UNL     1      46.341   4.209  13.592  0.00  0.00    +0.000 A 
ATOM      7  N   UNL     1      45.304   4.218  12.743  0.00  0.00    +0.000 NA
BRANCH   4   8
ATOM      8  C   UNL     1      48.466   6.997  12.678  0.00  0.00    +0.000 A 
ATOM      9  C   UNL     1      48.752   7.811  11.564  0.00  0.00    +0.000 A 
ATOM     10  C   UNL     1      49.808   8.730  11.580  0.00  0.00    +0.000 A 
ATOM     11  C   UNL     1      50.604   8.850  12.715  0.00  0.00    +0.000 A 
ATOM     12  C   UNL     1      50.340   8.053  13.818  0.00  0.00    +0.000 A 
ATOM     13  F   UNL     1      51.103   8.160  14.912  0.00  0.00    +0.000 F 
ATOM     14  C   UNL     1      49.291   7.136  13.808  0.00  0.00    +0.000 A 
ENDBRANCH   4   8
ENDBRANCH   1   2
BRANCH   1  15
ATOM     15  O   UNL     1      43.826   3.938  10.341  0.00  0.00    +0.000 OA
BRANCH  15  19
ATOM     16  C   UNL     1      46.490   2.682   7.470  0.00  0.00    +0.000 A 
ATOM     17  C   UNL     1      45.970   1.758   8.381  0.00  0.00    +0.000 A 
ATOM     18  C   UNL     1      45.068   2.198   9.352  0.00  0.00    +0.000 A 
ATOM     19  C   UNL     1      44.722   3.541   9.373  0.00  0.00    +0.000 A 
ATOM     20  N   UNL     1      45.216   4.453   8.513  0.00  0.00    +0.000 NA
ATOM     21  C   UNL     1      46.093   4.007   7.585  0.00  0.00    +0.000 A 
BRANCH  16  23
ATOM     22  N   UNL     1      47.399   3.046   5.245  0.00  0.00    +0.000 N 
ATOM     23  C   UNL     1      47.452   2.330   6.408  0.00  0.00    +0.000 C 
ATOM     24  O   UNL     1      48.294   1.458   6.576  0.00  0.00    +0.000 OA
ATOM     25  H   UNL     1      48.143   2.865   4.582  0.00  0.00    +0.000 HD
ATOM     26  H   UNL     1      46.912   3.926   5.169  0.00  0.00    +0.000 HD
ENDBRANCH  16  23
ENDBRANCH  15  19
ENDBRANCH   1  15
TORSDOF 5
ENDMDL
MODEL 5
REMARK VINA RESULT:    -8.389      1.769      2.245
REMARK INTER + INTRA:         -11.418
REMARK INTER:                 -10.701
REMARK INTRA:                  -0.716
REMARK UNBOUND:                -0.576
REMARK  Name = 
REMARK  5 active torsions:
REMARK  status: ('A' for Active; 'I' for Inactive)
REMARK    1  A    between atoms: C_2  and  C_4
REMARK    2  A    between atoms: C_7  and  O_8
REMARK    3  A    between atoms: O_8  and  C_9
REMARK    4  A    between atoms: C_9  and  C_10
REMARK    5  A    between atoms: C_12  and  C_13
REMARK                            x       y       z     vdW  Elec       q    Type
REMARK                         _______ _______ _______ _____ _____    ______ ____
ROOT
ATOM      1  C   UNL     1      43.814   4.050  11.278  0.00  0.00    +0.000 C 
ENDROOT
BRANCH   1   2
ATOM      2  C   UNL     1      44.863   4.917  11.939  0.00  0.00    +0.000 A 
ATOM      3  C   UNL     1      44.930   6.272  11.671  0.00  0.00    +0.000 A 
ATOM      4  C   UNL     1      45.878   7.013  12.353  0.00  0.00    +0.000 A 
ATOM      5  N   UNL     1      46.714   6.443  13.246  0.00  0.00    +0.000 NA
ATOM      6  C   UNL     1      46.561   5.128  13.455  0.00  0.00    +0.000 A 
ATOM      7  N   UNL     1      45.671   4.330  12.848  0.00  0.00    +0.000 NA
BRANCH   4   8
ATOM      8  C   UNL     1      46.030   8.468  12.155  0.00  0.00    +0.000 A 
ATOM      9  C   UNL     1      47.286   9.092  12.286  0.00  0.00    +0.000 A 
ATOM     10  C   UNL     1      47.442  10.471  12.096  0.00  0.00    +0.000 A 
ATOM     11  C   UNL     1      46.339  11.254  11.773  0.00  0.00    +0.000 A 
ATOM     12  C   UNL     1      45.095  10.656  11.646  0.00  0.00    +0.000 A 
ATOM     13  F   UNL     1      44.028  11.404  11.339  0.00  0.00    +0.000 F 
ATOM     14  C   UNL     1      44.932   9.286  11.834  0.00  0.00    +0.000 A 
ENDBRANCH   4   8
ENDBRANCH   1   2
BRANCH   1  15
ATOM     15  O   UNL     1      43.670   4.404   9.894  0.00  0.00    +0.000 OA
BRANCH  15  19
ATOM     16  C   UNL     1      46.563   2.636   7.565  0.00  0.00    +0.000 A 
ATOM     17  C   UNL     1      45.790   1.848   8.423  0.00  0.00    +0.000 A 
ATOM     18  C   UNL     1      44.813   2.461   9.210  0.00  0.00    +0.000 A 
ATOM     19  C   UNL     1      44.647   3.834   9.107  0.00  0.00    +0.000 A 
ATOM     20  N   UNL     1      45.384   4.618   8.296  0.00  0.00    +0.000 NA
ATOM     21  C   UNL     1      46.330   4.004   7.549  0.00  0.00    +0.000 A 
BRANCH  16  23
ATOM     22  N   UNL     1      47.998   2.846   5.615  0.00  0.00    +0.000 N 
ATOM     23  C   UNL     1      47.626   2.097   6.695  0.00  0.00    +0.000 C 
ATOM     24  O   UNL     1      48.182   1.038   6.952  0.00  0.00    +0.000 OA
ATOM     25  H   UNL     1      48.806   2.512   5.104  0.00  0.00    +0.000 HD
ATOM     26  H   UNL     1      47.760   3.823   5.522  0.00  0.00    +0.000 HD
ENDBRANCH  16  23
ENDBRANCH  15  19
ENDBRANCH   1  15
TORSDOF 5
ENDMDL
MODEL 6
REMARK VINA RESULT:    -8.298      2.689      3.497
REMARK INTER + INTRA:         -11.300
REMARK INTER:                 -10.762
REMARK INTRA:                  -0.538
REMARK UNBOUND:                -0.576
REMARK  Name = 
REMARK  5 active torsions:
REMARK  status: ('A' for Active; 'I' for Inactive)
REMARK    1  A    between atoms: C_2  and  C_4
REMARK    2  A    between atoms: C_7  and  O_8
REMARK    3  A    between atoms: O_8  and  C_9
REMARK    4  A    between atoms: C_9  and  C_10
REMARK    5  A    between atoms: C_12  and  C_13
REMARK                            x       y       z     vdW  Elec       q    Type
REMARK                         _______ _______ _______ _____ _____    ______ ____
ROOT
ATOM      1  C   UNL     1      44.070   3.118  11.536  0.00  0.00    +0.000 C 
ENDROOT
BRANCH   1   2
ATOM      2  C   UNL     1      44.753   4.328  12.135  0.00  0.00    +0.000 A 
ATOM      3  C   UNL     1      45.640   4.189  13.188  0.00  0.00    +0.000 A 
ATOM      4  C   UNL     1      46.269   5.331  13.650  0.00  0.00    +0.000 A 
ATOM      5  N   UNL     1      46.030   6.541  13.102  0.00  0.00    +0.000 NA
ATOM      6  C   UNL     1      45.171   6.574  12.074  0.00  0.00    +0.000 A 
ATOM      7  N   UNL     1      44.520   5.524  11.555  0.00  0.00    +0.000 NA
BRANCH   4   8
ATOM      8  C   UNL     1      47.243   5.298  14.757  0.00  0.00    +0.000 A 
ATOM      9  C   UNL     1      48.194   6.325  14.920  0.00  0.00    +0.000 A 
ATOM     10  C   UNL     1      49.119   6.307  15.971  0.00  0.00    +0.000 A 
ATOM     11  C   UNL     1      49.113   5.254  16.880  0.00  0.00    +0.000 A 
ATOM     12  C   UNL     1      48.189   4.232  16.731  0.00  0.00    +0.000 A 
ATOM     13  F   UNL     1      48.179   3.214  17.600  0.00  0.00    +0.000 F 
ATOM     14  C   UNL     1      47.266   4.244  15.688  0.00  0.00    +0.000 A 
ENDBRANCH   4   8
ENDBRANCH   1   2
BRANCH   1  15
ATOM     15  O   UNL     1      43.632   3.400  10.199  0.00  0.00    +0.000 OA
BRANCH  15  19
ATOM     16  C   UNL     1      46.523   2.594   7.386  0.00  0.00    +0.000 A 
ATOM     17  C   UNL     1      45.950   3.867   7.441  0.00  0.00    +0.000 A 
ATOM     18  C   UNL     1      44.969   4.127   8.400  0.00  0.00    +0.000 A 
ATOM     19  C   UNL     1      44.599   3.105   9.263  0.00  0.00    +0.000 A 
ATOM     20  N   UNL     1      45.128   1.867   9.224  0.00  0.00    +0.000 NA
ATOM     21  C   UNL     1      46.072   1.635   8.283  0.00  0.00    +0.000 A 
BRANCH  16  23
ATOM     22  N   UNL     1      47.811   3.065   5.379  0.00  0.00    +0.000 N 
ATOM     23  C   UNL     1      47.562   2.206   6.412  0.00  0.00    +0.000 C 
ATOM     24  O   UNL     1      48.206   1.174   6.546  0.00  0.00    +0.000 OA
ATOM     25  H   UNL     1      48.606   2.834   4.795  0.00  0.00    +0.000 HD
ATOM     26  H   UNL     1      47.501   4.025   5.382  0.00  0.00    +0.000 HD
ENDBRANCH  16  23
ENDBRANCH  15  19
ENDBRANCH   1  15
TORSDOF 5
ENDMDL
MODEL 7
REMARK VINA RESULT:    -8.037      3.391      7.185
REMARK INTER + INTRA:         -10.962
REMARK INTER:                 -10.601
REMARK INTRA:                  -0.361
REMARK UNBOUND:                -0.576
REMARK  Name = 
REMARK  5 active torsions:
REMARK  status: ('A' for Active; 'I' for Inactive)
REMARK    1  A    between atoms: C_2  and  C_4
REMARK    2  A    between atoms: C_7  and  O_8
REMARK    3  A    between atoms: O_8  and  C_9
REMARK    4  A    between atoms: C_9  and  C_10
REMARK    5  A    between atoms: C_12  and  C_13
REMARK                            x       y       z     vdW  Elec       q    Type
REMARK                         _______ _______ _______ _____ _____    ______ ____
ROOT
ATOM      1  C   UNL     1      44.160   6.620  11.456  0.00  0.00    +0.000 C 
ENDROOT
BRANCH   1   2
ATOM      2  C   UNL     1      44.083   5.180  10.999  0.00  0.00    +0.000 A 
ATOM      3  C   UNL     1      44.868   4.728   9.953  0.00  0.00    +0.000 A 
ATOM      4  C   UNL     1      44.786   3.387   9.624  0.00  0.00    +0.000 A 
ATOM      5  N   UNL     1      43.970   2.543  10.290  0.00  0.00    +0.000 NA
ATOM      6  C   UNL     1      43.263   3.068  11.302  0.00  0.00    +0.000 A 
ATOM      7  N   UNL     1      43.281   4.348  11.697  0.00  0.00    +0.000 NA
BRANCH   4   8
ATOM      8  C   UNL     1      45.587   2.794   8.536  0.00  0.00    +0.000 A 
ATOM      9  C   UNL     1      46.070   3.585   7.475  0.00  0.00    +0.000 A 
ATOM     10  C   UNL     1      46.835   3.034   6.440  0.00  0.00    +0.000 A 
ATOM     11  C   UNL     1      47.130   1.675   6.445  0.00  0.00    +0.000 A 
ATOM     12  C   UNL     1      46.657   0.881   7.478  0.00  0.00    +0.000 A 
ATOM     13  F   UNL     1      46.934  -0.429   7.489  0.00  0.00    +0.000 F 
ATOM     14  C   UNL     1      45.895   1.422   8.511  0.00  0.00    +0.000 A 
ENDBRANCH   4   8
ENDBRANCH   1   2
BRANCH   1  15
ATOM     15  O   UNL     1      45.453   7.171  11.165  0.00  0.00    +0.000 OA
BRANCH  15  19
ATOM     16  C   UNL     1      48.023   6.942  14.368  0.00  0.00    +0.000 A 
ATOM     17  C   UNL     1      47.698   8.191  13.831  0.00  0.00    +0.000 A 
ATOM     18  C   UNL     1      46.826   8.255  12.743  0.00  0.00    +0.000 A 
ATOM     19  C   UNL     1      46.314   7.069  12.235  0.00  0.00    +0.000 A 
ATOM     20  N   UNL     1      46.619   5.853  12.727  0.00  0.00    +0.000 NA
ATOM     21  C   UNL     1      47.471   5.814  13.777  0.00  0.00    +0.000 A 
BRANCH  16  23
ATOM     22  N   UNL     1      48.377   6.592  16.747  0.00  0.00    +0.000 N 
ATOM     23  C   UNL     1      48.937   6.755  15.512  0.00  0.00    +0.000 C 
ATOM     24  O   UNL     1      50.150   6.707  15.355  0.00  0.00    +0.000 OA
ATOM     25  H   UNL     1      49.018   6.350  17.493  0.00  0.00    +0.000 HD
ATOM     26  H   UNL     1      47.403   6.363  16.878  0.00  0.00    +0.000 HD
ENDBRANCH  16  23
ENDBRANCH  15  19
ENDBRANCH   1  15
TORSDOF 5
ENDMDL
MODEL 8
REMARK VINA RESULT:    -8.022      3.531      7.304
REMARK INTER + INTRA:         -10.943
REMARK INTER:                 -10.601
REMARK INTRA:                  -0.341
REMARK UNBOUND:                -0.576
REMARK  Name = 
REMARK  5 active torsions:
REMARK  status: ('A' for Active; 'I' for Inactive)
REMARK    1  A    between atoms: C_2  and  C_4
REMARK    2  A    between atoms: C_7  and  O_8
REMARK    3  A    between atoms: O_8  and  C_9
REMARK    4  A    between atoms: C_9  and  C_10
REMARK    5  A    between atoms: C_12  and  C_13
REMARK                            x       y       z     vdW  Elec       q    Type
REMARK                         _______ _______ _______ _____ _____    ______ ____
ROOT
ATOM      1  C   UNL     1      45.892   7.053  11.741  0.00  0.00    +0.000 C 
ENDROOT
BRANCH   1   2
ATOM      2  C   UNL     1      45.200   5.949  10.974  0.00  0.00    +0.000 A 
ATOM      3  C   UNL     1      45.885   5.210  10.027  0.00  0.00    +0.000 A 
ATOM      4  C   UNL     1      45.205   4.180   9.402  0.00  0.00    +0.000 A 
ATOM      5  N   UNL     1      43.918   3.901   9.697  0.00  0.00    +0.000 NA
ATOM      6  C   UNL     1      43.342   4.658  10.642  0.00  0.00    +0.000 A 
ATOM      7  N   UNL     1      43.920   5.670  11.304  0.00  0.00    +0.000 NA
BRANCH   4   8
ATOM      8  C   UNL     1      45.841   3.319   8.387  0.00  0.00    +0.000 A 
ATOM      9  C   UNL     1      46.339   3.859   7.185  0.00  0.00    +0.000 A 
ATOM     10  C   UNL     1      46.950   3.053   6.216  0.00  0.00    +0.000 A 
ATOM     11  C   UNL     1      47.071   1.684   6.433  0.00  0.00    +0.000 A 
ATOM     12  C   UNL     1      46.581   1.135   7.607  0.00  0.00    +0.000 A 
ATOM     13  F   UNL     1      46.691  -0.182   7.821  0.00  0.00    +0.000 F 
ATOM     14  C   UNL     1      45.973   1.931   8.574  0.00  0.00    +0.000 A 
ENDBRANCH   4   8
ENDBRANCH   1   2
BRANCH   1  15
ATOM     15  O   UNL     1      47.237   6.671  12.067  0.00  0.00    +0.000 OA
BRANCH  15  19
ATOM     16  C   UNL     1      47.506   4.815  15.728  0.00  0.00    +0.000 A 
ATOM     17  C   UNL     1      48.242   5.979  15.489  0.00  0.00    +0.000 A 
ATOM     18  C   UNL     1      48.143   6.599  14.241  0.00  0.00    +0.000 A 
ATOM     19  C   UNL     1      47.314   6.031  13.285  0.00  0.00    +0.000 A 
ATOM     20  N   UNL     1      46.602   4.905  13.487  0.00  0.00    +0.000 NA
ATOM     21  C   UNL     1      46.718   4.317  14.700  0.00  0.00    +0.000 A 
BRANCH  16  23
ATOM     22  N   UNL     1      48.545   4.372  17.881  0.00  0.00    +0.000 N 
ATOM     23  C   UNL     1      47.539   4.076  17.005  0.00  0.00    +0.000 C 
ATOM     24  O   UNL     1      46.675   3.256  17.288  0.00  0.00    +0.000 OA
ATOM     25  H   UNL     1      48.476   3.938  18.793  0.00  0.00    +0.000 HD
ATOM     26  H   UNL     1      49.105   5.207  17.804  0.00  0.00    +0.000 HD
ENDBRANCH  16  23
ENDBRANCH  15  19
ENDBRANCH   1  15
TORSDOF 5
ENDMDL
MODEL 9
REMARK VINA RESULT:    -6.798      4.663      8.422
REMARK INTER + INTRA:          -9.360
REMARK INTER:                  -8.737
REMARK INTRA:                  -0.624
REMARK UNBOUND:                -0.576
REMARK  Name = 
REMARK  5 active torsions:
REMARK  status: ('A' for Active; 'I' for Inactive)
REMARK    1  A    between atoms: C_2  and  C_4
REMARK    2  A    between atoms: C_7  and  O_8
REMARK    3  A    between atoms: O_8  and  C_9
REMARK    4  A    between atoms: C_9  and  C_10
REMARK    5  A    between atoms: C_12  and  C_13
REMARK                            x       y       z     vdW  Elec       q    Type
REMARK                         _______ _______ _______ _____ _____    ______ ____
ROOT
ATOM      1  C   UNL     1      48.293   7.369  14.209  0.00  0.00    +0.000 C 
ENDROOT
BRANCH   1   2
ATOM      2  C   UNL     1      47.137   7.402  13.234  0.00  0.00    +0.000 A 
ATOM      3  C   UNL     1      46.829   6.294  12.465  0.00  0.00    +0.000 A 
ATOM      4  C   UNL     1      45.726   6.377  11.635  0.00  0.00    +0.000 A 
ATOM      5  N   UNL     1      44.973   7.496  11.568  0.00  0.00    +0.000 NA
ATOM      6  C   UNL     1      45.337   8.511  12.365  0.00  0.00    +0.000 A 
ATOM      7  N   UNL     1      46.382   8.521  13.203  0.00  0.00    +0.000 NA
BRANCH   4   8
ATOM      8  C   UNL     1      45.298   5.253  10.781  0.00  0.00    +0.000 A 
ATOM      9  C   UNL     1      45.635   5.208   9.415  0.00  0.00    +0.000 A 
ATOM     10  C   UNL     1      45.239   4.142   8.596  0.00  0.00    +0.000 A 
ATOM     11  C   UNL     1      44.491   3.099   9.133  0.00  0.00    +0.000 A 
ATOM     12  C   UNL     1      44.145   3.131  10.474  0.00  0.00    +0.000 A 
ATOM     13  F   UNL     1      43.422   2.132  10.997  0.00  0.00    +0.000 F 
ATOM     14  C   UNL     1      44.536   4.187  11.293  0.00  0.00    +0.000 A 
ENDBRANCH   4   8
ENDBRANCH   1   2
BRANCH   1  15
ATOM     15  O   UNL     1      48.600   6.016  14.578  0.00  0.00    +0.000 OA
BRANCH  15  19
ATOM     16  C   UNL     1      48.240   5.335  18.618  0.00  0.00    +0.000 A 
ATOM     17  C   UNL     1      47.663   4.439  17.714  0.00  0.00    +0.000 A 
ATOM     18  C   UNL     1      47.791   4.683  16.345  0.00  0.00    +0.000 A 
ATOM     19  C   UNL     1      48.489   5.810  15.936  0.00  0.00    +0.000 A 
ATOM     20  N   UNL     1      49.046   6.694  16.787  0.00  0.00    +0.000 NA
ATOM     21  C   UNL     1      48.904   6.442  18.109  0.00  0.00    +0.000 A 
BRANCH  16  23
ATOM     22  N   UNL     1      48.566   3.988  20.615  0.00  0.00    +0.000 N 
ATOM     23  C   UNL     1      48.163   5.180  20.084  0.00  0.00    +0.000 C 
ATOM     24  O   UNL     1      47.791   6.099  20.802  0.00  0.00    +0.000 OA
ATOM     25  H   UNL     1      48.614   3.949  21.626  0.00  0.00    +0.000 HD
ATOM     26  H   UNL     1      49.117   3.319  20.098  0.00  0.00    +0.000 HD
ENDBRANCH  16  23
ENDBRANCH  15  19
ENDBRANCH   1  15
TORSDOF 5
ENDMDL
