MODEL 1
REMARK VINA RESULT:    -9.337      0.000      0.000
REMARK INTER + INTRA:         -11.680
REMARK INTER:                 -11.520
REMARK INTRA:                  -0.159
REMARK UNBOUND:                -0.159
REMARK  Name = 
REMARK  4 active torsions:
REMARK  status: ('A' for Active; 'I' for Inactive)
REMARK    1  A    between atoms: C_2  and  C_4
REMARK    2  A    between atoms: N_8  and  C_9
REMARK    3  A    between atoms: C_9  and  C_10
REMARK    4  A    between atoms: C_14  and  C_15
REMARK                            x       y       z     vdW  Elec       q    Type
REMARK                         _______ _______ _______ _____ _____    ______ ____
ROOT
ATOM      1  C   UNL     1      44.013   4.709  11.689  0.00  0.00    +0.000 C 
ATOM      2  C   UNL     1      42.746   5.080  12.425  0.00  0.00    +0.000 C 
ATOM      3  C   UNL     1      43.049   5.736  11.117  0.00  0.00    +0.000 C 
ENDROOT
BRANCH   1   8
ATOM      4  C   UNL     1      46.344   2.658   7.576  0.00  0.00    +0.000 A 
ATOM      5  C   UNL     1      46.168   3.982   7.973  0.00  0.00    +0.000 A 
ATOM      6  C   UNL     1      45.358   4.251   9.066  0.00  0.00    +0.000 A 
ATOM      7  C   UNL     1      44.784   3.210   9.795  0.00  0.00    +0.000 A 
ATOM      8  N   UNL     1      44.062   3.427  10.969  0.00  0.00    +0.000 N 
ATOM      9  N   UNL     1      44.904   1.929   9.391  0.00  0.00    +0.000 NA
ATOM     10  C   UNL     1      45.653   1.682   8.284  0.00  0.00    +0.000 A 
ATOM     11  H   UNL     1      43.799   2.551  11.406  0.00  0.00    +0.000 HD
BRANCH   4  13
ATOM     12  N   UNL     1      47.176   3.082   5.351  0.00  0.00    +0.000 N 
ATOM     13  C   UNL     1      47.227   2.280   6.451  0.00  0.00    +0.000 C 
ATOM     14  O   UNL     1      47.978   1.324   6.527  0.00  0.00    +0.000 OA
ATOM     15  H   UNL     1      47.862   2.898   4.631  0.00  0.00    +0.000 HD
ATOM     16  H   UNL     1      46.758   4.007   5.363  0.00  0.00    +0.000 HD
ENDBRANCH   4  13
ENDBRANCH   1   8
BRANCH   1  17
ATOM     17  C   UNL     1      45.371   5.148  12.252  0.00  0.00    +0.000 A 
ATOM     18  C   UNL     1      45.912   6.404  11.971  0.00  0.00    +0.000 A 
ATOM     19  C   UNL     1      46.925   6.902  12.780  0.00  0.00    +0.000 A 
ATOM     20  N   UNL     1      47.439   6.244  13.845  0.00  0.00    +0.000 NA
ATOM     21  C   UNL     1      46.969   4.994  14.091  0.00  0.00    +0.000 A 
ATOM     22  C   UNL     1      46.005   4.412  13.266  0.00  0.00    +0.000 A 
BRANCH  21  23
ATOM     23  C   UNL     1      47.414   4.318  15.336  0.00  0.00    +0.000 A 
ATOM     24  C   UNL     1      47.391   4.946  16.581  0.00  0.00    +0.000 A 
ATOM     25  C   UNL     1      47.800   4.236  17.714  0.00  0.00    +0.000 A 
ATOM     26  C   UNL     1      48.217   2.922  17.583  0.00  0.00    +0.000 A 
ATOM     27  C   UNL     1      48.195   2.357  16.325  0.00  0.00    +0.000 A 
ATOM     28  N   UNL     1      47.802   3.013  15.211  0.00  0.00    +0.000 NA
ENDBRANCH  21  23
ENDBRANCH   1  17
TORSDOF 4
ENDMDL
MODEL 2
REMARK VINA RESULT:    -7.386      3.273      7.204
REMARK INTER + INTRA:          -9.272
REMARK INTER:                  -9.069
REMARK INTRA:                  -0.203
REMARK UNBOUND:                -0.159
REMARK  Name = 
REMARK  4 active torsions:
REMARK  status: ('A' for Active; 'I' for Inactive)
REMARK    1  A    between atoms: C_2  and  C_4
REMARK    2  A    between atoms: N_8  and  C_9
REMARK    3  A    between atoms: C_9  and  C_10
REMARK    4  A    between atoms: C_14  and  C_15
REMARK                            x       y       z     vdW  Elec       q    Type
REMARK                         _______ _______ _______ _____ _____    ______ ____
ROOT
ATOM      1  C   UNL     1      45.091   5.972  12.337  0.00  0.00    +0.000 C 
ATOM      2  C   UNL     1      44.945   7.163  11.419  0.00  0.00    +0.000 C 
ATOM      3  C   UNL     1      43.946   6.958  12.510  0.00  0.00    +0.000 C 
ENDROOT
BRANCH   1   8
ATOM      4  C   UNL     1      49.894   7.719  13.003  0.00  0.00    +0.000 A 
ATOM      5  C   UNL     1      49.146   7.490  11.850  0.00  0.00    +0.000 A 
ATOM      6  C   UNL     1      47.913   6.866  11.964  0.00  0.00    +0.000 A 
ATOM      7  C   UNL     1      47.402   6.534  13.219  0.00  0.00    +0.000 A 
ATOM      8  N   UNL     1      46.118   6.015  13.391  0.00  0.00    +0.000 N 
ATOM      9  N   UNL     1      48.137   6.702  14.336  0.00  0.00    +0.000 NA
ATOM     10  C   UNL     1      49.368   7.262  14.205  0.00  0.00    +0.000 A 
ATOM     11  H   UNL     1      45.889   5.919  14.373  0.00  0.00    +0.000 HD
BRANCH   4  13
ATOM     12  N   UNL     1      52.110   8.027  13.907  0.00  0.00    +0.000 N 
ATOM     13  C   UNL     1      51.197   8.419  12.975  0.00  0.00    +0.000 C 
ATOM     14  O   UNL     1      51.441   9.272  12.140  0.00  0.00    +0.000 OA
ATOM     15  H   UNL     1      53.039   8.417  13.814  0.00  0.00    +0.000 HD
ATOM     16  H   UNL     1      52.023   7.164  14.434  0.00  0.00    +0.000 HD
ENDBRANCH   4  13
ENDBRANCH   1   8
BRANCH   1  17
ATOM     17  C   UNL     1      44.827   4.562  11.796  0.00  0.00    +0.000 A 
ATOM     18  C   UNL     1      43.695   3.832  12.167  0.00  0.00    +0.000 A 
ATOM     19  C   UNL     1      43.300   2.752  11.388  0.00  0.00    +0.000 A 
ATOM     20  N   UNL     1      43.945   2.345  10.271  0.00  0.00    +0.000 NA
ATOM     21  C   UNL     1      45.084   3.004   9.935  0.00  0.00    +0.000 A 
ATOM     22  C   UNL     1      45.571   4.048  10.722  0.00  0.00    +0.000 A 
BRANCH  21  23
ATOM     23  C   UNL     1      45.723   2.667   8.637  0.00  0.00    +0.000 A 
ATOM     24  C   UNL     1      45.930   3.613   7.634  0.00  0.00    +0.000 A 
ATOM     25  C   UNL     1      46.563   3.228   6.449  0.00  0.00    +0.000 A 
ATOM     26  C   UNL     1      46.979   1.917   6.292  0.00  0.00    +0.000 A 
ATOM     27  C   UNL     1      46.761   1.038   7.333  0.00  0.00    +0.000 A 
ATOM     28  N   UNL     1      46.156   1.379   8.492  0.00  0.00    +0.000 NA
ENDBRANCH  21  23
ENDBRANCH   1  17
TORSDOF 4
ENDMDL
MODEL 3
REMARK VINA RESULT:    -7.246      3.027      7.632
REMARK INTER + INTRA:          -9.100
REMARK INTER:                  -9.077
REMARK INTRA:                  -0.023
REMARK UNBOUND:                -0.159
REMARK  Name = 
REMARK  4 active torsions:
REMARK  status: ('A' for Active; 'I' for Inactive)
REMARK    1  A    between atoms: C_2  and  C_4
REMARK    2  A    between atoms: N_8  and  C_9
REMARK    3  A    between atoms: C_9  and  C_10
REMARK    4  A    between atoms: C_14  and  C_15
REMARK                            x       y       z     vdW  Elec       q    Type
REMARK                         _______ _______ _______ _____ _____    ______ ____
ROOT
ATOM      1  C   UNL     1      48.329   7.631  12.794  0.00  0.00    +0.000 C 
ATOM      2  C   UNL     1      49.451   7.233  11.864  0.00  0.00    +0.000 C 
ATOM      3  C   UNL     1      49.116   8.680  12.025  0.00  0.00    +0.000 C 
ENDROOT
BRANCH   1   8
ATOM      4  C   UNL     1      47.860   4.357  16.747  0.00  0.00    +0.000 A 
ATOM      5  C   UNL     1      47.314   4.342  15.465  0.00  0.00    +0.000 A 
ATOM      6  C   UNL     1      47.494   5.447  14.648  0.00  0.00    +0.000 A 
ATOM      7  C   UNL     1      48.265   6.527  15.076  0.00  0.00    +0.000 A 
ATOM      8  N   UNL     1      48.572   7.605  14.246  0.00  0.00    +0.000 N 
ATOM      9  N   UNL     1      48.755   6.577  16.332  0.00  0.00    +0.000 NA
ATOM     10  C   UNL     1      48.523   5.512  17.144  0.00  0.00    +0.000 A 
ATOM     11  H   UNL     1      49.212   8.247  14.698  0.00  0.00    +0.000 HD
BRANCH   4  13
ATOM     12  N   UNL     1      48.817   2.993  18.492  0.00  0.00    +0.000 N 
ATOM     13  C   UNL     1      47.755   3.203  17.667  0.00  0.00    +0.000 C 
ATOM     14  O   UNL     1      46.755   2.507  17.699  0.00  0.00    +0.000 OA
ATOM     15  H   UNL     1      48.699   2.282  19.202  0.00  0.00    +0.000 HD
ATOM     16  H   UNL     1      49.534   3.693  18.658  0.00  0.00    +0.000 HD
ENDBRANCH   4  13
ENDBRANCH   1   8
BRANCH   1  17
ATOM     17  C   UNL     1      46.879   7.312  12.410  0.00  0.00    +0.000 A 
ATOM     18  C   UNL     1      45.877   8.285  12.447  0.00  0.00    +0.000 A 
ATOM     19  C   UNL     1      44.697   8.069  11.748  0.00  0.00    +0.000 A 
ATOM     20  N   UNL     1      44.439   6.960  11.018  0.00  0.00    +0.000 NA
ATOM     21  C   UNL     1      45.375   5.978  11.026  0.00  0.00    +0.000 A 
ATOM     22  C   UNL     1      46.548   6.106  11.771  0.00  0.00    +0.000 A 
BRANCH  21  23
ATOM     23  C   UNL     1      45.175   4.820  10.116  0.00  0.00    +0.000 A 
ATOM     24  C   UNL     1      45.637   4.810   8.801  0.00  0.00    +0.000 A 
ATOM     25  C   UNL     1      45.436   3.673   8.012  0.00  0.00    +0.000 A 
ATOM     26  C   UNL     1      44.785   2.576   8.551  0.00  0.00    +0.000 A 
ATOM     27  C   UNL     1      44.373   2.646   9.865  0.00  0.00    +0.000 A 
ATOM     28  N   UNL     1      44.555   3.727  10.654  0.00  0.00    +0.000 NA
ENDBRANCH  21  23
ENDBRANCH   1  17
TORSDOF 4
ENDMDL
MODEL 4
REMARK VINA RESULT:    -6.780      2.786      7.359
REMARK INTER + INTRA:          -8.524
REMARK INTER:                  -8.191
REMARK INTRA:                  -0.334
REMARK UNBOUND:                -0.159
REMARK  Name = 
REMARK  4 active torsions:
REMARK  status: ('A' for Active; 'I' for Inactive)
REMARK    1  A    between atoms: C_2  and  C_4
REMARK    2  A    between atoms: N_8  and  C_9
REMARK    3  A    between atoms: C_9  and  C_10
REMARK    4  A    between atoms: C_14  and  C_15
REMARK                            x       y       z     vdW  Elec       q    Type
REMARK                         _______ _______ _______ _____ _____    ______ ____
ROOT
ATOM      1  C   UNL     1      44.403   3.799  12.301  0.00  0.00    +0.000 C 
ATOM      2  C   UNL     1      43.221   4.353  13.061  0.00  0.00    +0.000 C 
ATOM      3  C   UNL     1      43.121   2.995  12.446  0.00  0.00    +0.000 C 
ENDROOT
BRANCH   1   8
ATOM      4  C   UNL     1      48.157   5.596  15.342  0.00  0.00    +0.000 A 
ATOM      5  C   UNL     1      47.303   6.240  14.449  0.00  0.00    +0.000 A 
ATOM      6  C   UNL     1      46.477   5.474  13.641  0.00  0.00    +0.000 A 
ATOM      7  C   UNL     1      46.452   4.086  13.768  0.00  0.00    +0.000 A 
ATOM      8  N   UNL     1      45.553   3.285  13.062  0.00  0.00    +0.000 N 
ATOM      9  N   UNL     1      47.310   3.447  14.590  0.00  0.00    +0.000 NA
ATOM     10  C   UNL     1      48.156   4.206  15.335  0.00  0.00    +0.000 A 
ATOM     11  H   UNL     1      45.623   2.316  13.348  0.00  0.00    +0.000 HD
BRANCH   4  13
ATOM     12  N   UNL     1      48.412   7.083  17.224  0.00  0.00    +0.000 N 
ATOM     13  C   UNL     1      49.037   6.337  16.271  0.00  0.00    +0.000 C 
ATOM     14  O   UNL     1      50.250   6.252  16.201  0.00  0.00    +0.000 OA
ATOM     15  H   UNL     1      49.006   7.494  17.932  0.00  0.00    +0.000 HD
ATOM     16  H   UNL     1      47.430   6.970  17.456  0.00  0.00    +0.000 HD
ENDBRANCH   4  13
ENDBRANCH   1   8
BRANCH   1  17
ATOM     17  C   UNL     1      44.788   4.410  10.948  0.00  0.00    +0.000 A 
ATOM     18  C   UNL     1      45.101   5.766  10.816  0.00  0.00    +0.000 A 
ATOM     19  C   UNL     1      45.796   6.194   9.693  0.00  0.00    +0.000 A 
ATOM     20  N   UNL     1      46.201   5.377   8.694  0.00  0.00    +0.000 NA
ATOM     21  C   UNL     1      45.848   4.069   8.776  0.00  0.00    +0.000 A 
ATOM     22  C   UNL     1      45.084   3.595   9.844  0.00  0.00    +0.000 A 
BRANCH  21  23
ATOM     23  C   UNL     1      46.406   3.134   7.766  0.00  0.00    +0.000 A 
ATOM     24  C   UNL     1      46.843   3.558   6.511  0.00  0.00    +0.000 A 
ATOM     25  C   UNL     1      47.383   2.624   5.623  0.00  0.00    +0.000 A 
ATOM     26  C   UNL     1      47.479   1.296   6.003  0.00  0.00    +0.000 A 
ATOM     27  C   UNL     1      47.046   0.950   7.266  0.00  0.00    +0.000 A 
ATOM     28  N   UNL     1      46.524   1.828   8.150  0.00  0.00    +0.000 NA
ENDBRANCH  21  23
ENDBRANCH   1  17
TORSDOF 4
ENDMDL
MODEL 5
REMARK VINA RESULT:    -6.764      3.340      5.205
REMARK INTER + INTRA:          -8.505
REMARK INTER:                  -7.691
REMARK INTRA:                  -0.813
REMARK UNBOUND:                -0.159
REMARK  Name = 
REMARK  4 active torsions:
REMARK  status: ('A' for Active; 'I' for Inactive)
REMARK    1  A    between atoms: C_2  and  C_4
REMARK    2  A    between atoms: N_8  and  C_9
REMARK    3  A    between atoms: C_9  and  C_10
REMARK    4  A    between atoms: C_14  and  C_15
REMARK                            x       y       z     vdW  Elec       q    Type
REMARK                         _______ _______ _______ _____ _____    ______ ____
ROOT
ATOM      1  C   UNL     1      48.740   8.589  12.543  0.00  0.00    +0.000 C 
ATOM      2  C   UNL     1      48.313   9.930  11.993  0.00  0.00    +0.000 C 
ATOM      3  C   UNL     1      49.705   9.449  11.743  0.00  0.00    +0.000 C 
ENDROOT
BRANCH   1   8
ATOM      4  C   UNL     1      44.346   6.009  11.767  0.00  0.00    +0.000 A 
ATOM      5  C   UNL     1      44.684   7.003  12.683  0.00  0.00    +0.000 A 
ATOM      6  C   UNL     1      46.005   7.418  12.764  0.00  0.00    +0.000 A 
ATOM      7  C   UNL     1      46.965   6.896  11.898  0.00  0.00    +0.000 A 
ATOM      8  N   UNL     1      48.278   7.368  11.863  0.00  0.00    +0.000 N 
ATOM      9  N   UNL     1      46.662   5.897  11.044  0.00  0.00    +0.000 NA
ATOM     10  C   UNL     1      45.376   5.459  11.014  0.00  0.00    +0.000 A 
ATOM     11  H   UNL     1      48.804   6.934  11.114  0.00  0.00    +0.000 HD
BRANCH   4  13
ATOM     12  N   UNL     1      41.982   6.487  11.708  0.00  0.00    +0.000 N 
ATOM     13  C   UNL     1      42.955   5.541  11.584  0.00  0.00    +0.000 C 
ATOM     14  O   UNL     1      42.706   4.382  11.303  0.00  0.00    +0.000 OA
ATOM     15  H   UNL     1      41.043   6.197  11.466  0.00  0.00    +0.000 HD
ATOM     16  H   UNL     1      42.176   7.483  11.689  0.00  0.00    +0.000 HD
ENDBRANCH   4  13
ENDBRANCH   1   8
BRANCH   1  17
ATOM     17  C   UNL     1      48.925   8.415  14.055  0.00  0.00    +0.000 A 
ATOM     18  C   UNL     1      48.602   9.431  14.958  0.00  0.00    +0.000 A 
ATOM     19  C   UNL     1      48.424   9.115  16.298  0.00  0.00    +0.000 A 
ATOM     20  N   UNL     1      48.542   7.868  16.806  0.00  0.00    +0.000 NA
ATOM     21  C   UNL     1      48.920   6.881  15.954  0.00  0.00    +0.000 A 
ATOM     22  C   UNL     1      49.188   7.152  14.611  0.00  0.00    +0.000 A 
BRANCH  21  23
ATOM     23  C   UNL     1      48.913   5.485  16.461  0.00  0.00    +0.000 A 
ATOM     24  C   UNL     1      47.796   4.656  16.364  0.00  0.00    +0.000 A 
ATOM     25  C   UNL     1      47.873   3.344  16.839  0.00  0.00    +0.000 A 
ATOM     26  C   UNL     1      49.057   2.887  17.394  0.00  0.00    +0.000 A 
ATOM     27  C   UNL     1      50.129   3.754  17.439  0.00  0.00    +0.000 A 
ATOM     28  N   UNL     1      50.089   5.026  16.985  0.00  0.00    +0.000 NA
ENDBRANCH  21  23
ENDBRANCH   1  17
TORSDOF 4
ENDMDL
MODEL 6
REMARK VINA RESULT:    -6.579      4.146      8.697
REMARK INTER + INTRA:          -8.277
REMARK INTER:                  -7.879
REMARK INTRA:                  -0.398
REMARK UNBOUND:                -0.159
REMARK  Name = 
REMARK  4 active torsions:
REMARK  status: ('A' for Active; 'I' for Inactive)
REMARK    1  A    between atoms: C_2  and  C_4
REMARK    2  A    between atoms: N_8  and  C_9
REMARK    3  A    between atoms: C_9  and  C_10
REMARK    4  A    between atoms: C_14  and  C_15
REMARK                            x       y       z     vdW  Elec       q    Type
REMARK                         _______ _______ _______ _____ _____    ______ ____
ROOT
ATOM      1  C   UNL     1      48.795   4.553  17.643  0.00  0.00    +0.000 C 
ATOM      2  C   UNL     1      49.264   5.154  18.948  0.00  0.00    +0.000 C 
ATOM      3  C   UNL     1      47.877   4.608  18.853  0.00  0.00    +0.000 C 
ENDROOT
BRANCH   1   8
ATOM      4  C   UNL     1      53.106   1.743  17.928  0.00  0.00    +0.000 A 
ATOM      5  C   UNL     1      52.886   3.113  18.055  0.00  0.00    +0.000 A 
ATOM      6  C   UNL     1      51.625   3.618  17.778  0.00  0.00    +0.000 A 
ATOM      7  C   UNL     1      50.577   2.760  17.444  0.00  0.00    +0.000 A 
ATOM      8  N   UNL     1      49.267   3.209  17.275  0.00  0.00    +0.000 N 
ATOM      9  N   UNL     1      50.789   1.440  17.267  0.00  0.00    +0.000 NA
ATOM     10  C   UNL     1      52.043   0.965  17.485  0.00  0.00    +0.000 A 
ATOM     11  H   UNL     1      48.631   2.435  17.124  0.00  0.00    +0.000 HD
BRANCH   4  13
ATOM     12  N   UNL     1      54.635   0.840  19.561  0.00  0.00    +0.000 N 
ATOM     13  C   UNL     1      54.408   1.117  18.247  0.00  0.00    +0.000 C 
ATOM     14  O   UNL     1      55.209   0.837  17.373  0.00  0.00    +0.000 OA
ATOM     15  H   UNL     1      55.469   0.306  19.769  0.00  0.00    +0.000 HD
ATOM     16  H   UNL     1      53.897   0.830  20.258  0.00  0.00    +0.000 HD
ENDBRANCH   4  13
ENDBRANCH   1   8
BRANCH   1  17
ATOM     17  C   UNL     1      48.545   5.466  16.436  0.00  0.00    +0.000 A 
ATOM     18  C   UNL     1      49.459   6.452  16.056  0.00  0.00    +0.000 A 
ATOM     19  C   UNL     1      49.389   6.984  14.776  0.00  0.00    +0.000 A 
ATOM     20  N   UNL     1      48.479   6.611  13.848  0.00  0.00    +0.000 NA
ATOM     21  C   UNL     1      47.543   5.702  14.223  0.00  0.00    +0.000 A 
ATOM     22  C   UNL     1      47.517   5.189  15.520  0.00  0.00    +0.000 A 
BRANCH  21  23
ATOM     23  C   UNL     1      46.629   5.174  13.177  0.00  0.00    +0.000 A 
ATOM     24  C   UNL     1      46.288   5.906  12.039  0.00  0.00    +0.000 A 
ATOM     25  C   UNL     1      45.444   5.333  11.084  0.00  0.00    +0.000 A 
ATOM     26  C   UNL     1      44.963   4.049  11.280  0.00  0.00    +0.000 A 
ATOM     27  C   UNL     1      45.357   3.375  12.418  0.00  0.00    +0.000 A 
ATOM     28  N   UNL     1      46.174   3.899  13.358  0.00  0.00    +0.000 NA
ENDBRANCH  21  23
ENDBRANCH   1  17
TORSDOF 4
ENDMDL
MODEL 7
REMARK VINA RESULT:    -6.400      4.106      7.013
REMARK INTER + INTRA:          -8.056
REMARK INTER:                  -7.702
REMARK INTRA:                  -0.354
REMARK UNBOUND:                -0.159
REMARK  Name = 
REMARK  4 active torsions:
REMARK  status: ('A' for Active; 'I' for Inactive)
REMARK    1  A    between atoms: C_2  and  C_4
REMARK    2  A    between atoms: N_8  and  C_9
REMARK    3  A    between atoms: C_9  and  C_10
REMARK    4  A    between atoms: C_14  and  C_15
REMARK                            x       y       z     vdW  Elec       q    Type
REMARK                         _______ _______ _______ _____ _____    ______ ____
ROOT
ATOM      1  C   UNL     1      45.886   4.169  12.958  0.00  0.00    +0.000 C 
ATOM      2  C   UNL     1      44.437   3.828  13.216  0.00  0.00    +0.000 C 
ATOM      3  C   UNL     1      45.056   3.441  11.913  0.00  0.00    +0.000 C 
ENDROOT
BRANCH   1   8
ATOM      4  C   UNL     1      48.203   3.779  17.545  0.00  0.00    +0.000 A 
ATOM      5  C   UNL     1      47.431   4.794  16.983  0.00  0.00    +0.000 A 
ATOM      6  C   UNL     1      47.055   4.691  15.652  0.00  0.00    +0.000 A 
ATOM      7  C   UNL     1      47.386   3.559  14.909  0.00  0.00    +0.000 A 
ATOM      8  N   UNL     1      46.929   3.358  13.606  0.00  0.00    +0.000 N 
ATOM      9  N   UNL     1      48.177   2.595  15.424  0.00  0.00    +0.000 NA
ATOM     10  C   UNL     1      48.587   2.735  16.712  0.00  0.00    +0.000 A 
ATOM     11  H   UNL     1      47.196   2.444  13.259  0.00  0.00    +0.000 HD
BRANCH   4  13
ATOM     12  N   UNL     1      48.227   2.710  19.708  0.00  0.00    +0.000 N 
ATOM     13  C   UNL     1      48.609   3.787  18.967  0.00  0.00    +0.000 C 
ATOM     14  O   UNL     1      49.276   4.695  19.431  0.00  0.00    +0.000 OA
ATOM     15  H   UNL     1      48.603   2.655  20.645  0.00  0.00    +0.000 HD
ATOM     16  H   UNL     1      47.899   1.844  19.292  0.00  0.00    +0.000 HD
ENDBRANCH   4  13
ENDBRANCH   1   8
BRANCH   1  17
ATOM     17  C   UNL     1      46.292   5.632  12.744  0.00  0.00    +0.000 A 
ATOM     18  C   UNL     1      45.349   6.663  12.727  0.00  0.00    +0.000 A 
ATOM     19  C   UNL     1      45.773   7.972  12.912  0.00  0.00    +0.000 A 
ATOM     20  N   UNL     1      47.061   8.332  13.111  0.00  0.00    +0.000 NA
ATOM     21  C   UNL     1      47.997   7.350  13.065  0.00  0.00    +0.000 A 
ATOM     22  C   UNL     1      47.639   6.026  12.807  0.00  0.00    +0.000 A 
BRANCH  21  23
ATOM     23  C   UNL     1      49.394   7.704  13.424  0.00  0.00    +0.000 A 
ATOM     24  C   UNL     1      49.936   7.439  14.682  0.00  0.00    +0.000 A 
ATOM     25  C   UNL     1      51.268   7.776  14.939  0.00  0.00    +0.000 A 
ATOM     26  C   UNL     1      52.028   8.362  13.941  0.00  0.00    +0.000 A 
ATOM     27  C   UNL     1      51.435   8.577  12.715  0.00  0.00    +0.000 A 
ATOM     28  N   UNL     1      50.152   8.260  12.433  0.00  0.00    +0.000 NA
ENDBRANCH  21  23
ENDBRANCH   1  17
TORSDOF 4
ENDMDL
MODEL 8
REMARK VINA RESULT:    -6.381      4.128      7.887
REMARK INTER + INTRA:          -8.033
REMARK INTER:                  -7.962
REMARK INTRA:                  -0.071
REMARK UNBOUND:                -0.159
REMARK  Name = 
REMARK  4 active torsions:
REMARK  status: ('A' for Active; 'I' for Inactive)
REMARK    1  A    between atoms: C_2  and  C_4
REMARK    2  A    between atoms: N_8  and  C_9
REMARK    3  A    between atoms: C_9  and  C_10
REMARK    4  A    between atoms: C_14  and  C_15
REMARK                            x       y       z     vdW  Elec       q    Type
REMARK                         _______ _______ _______ _____ _____    ______ ____
ROOT
ATOM      1  C   UNL     1      45.795   4.513  13.017  0.00  0.00    +0.000 C 
ATOM      2  C   UNL     1      44.313   4.315  13.239  0.00  0.00    +0.000 C 
ATOM      3  C   UNL     1      44.915   3.915  11.931  0.00  0.00    +0.000 C 
ENDROOT
BRANCH   1   8
ATOM      4  C   UNL     1      48.187   3.872  17.538  0.00  0.00    +0.000 A 
ATOM      5  C   UNL     1      47.546   4.977  16.980  0.00  0.00    +0.000 A 
ATOM      6  C   UNL     1      47.115   4.907  15.664  0.00  0.00    +0.000 A 
ATOM      7  C   UNL     1      47.260   3.728  14.933  0.00  0.00    +0.000 A 
ATOM      8  N   UNL     1      46.735   3.573  13.649  0.00  0.00    +0.000 N 
ATOM      9  N   UNL     1      47.924   2.671  15.443  0.00  0.00    +0.000 NA
ATOM     10  C   UNL     1      48.393   2.772  16.715  0.00  0.00    +0.000 A 
ATOM     11  H   UNL     1      46.860   2.626  13.314  0.00  0.00    +0.000 HD
BRANCH   4  13
ATOM     12  N   UNL     1      48.235   2.775  19.686  0.00  0.00    +0.000 N 
ATOM     13  C   UNL     1      48.637   3.846  18.946  0.00  0.00    +0.000 C 
ATOM     14  O   UNL     1      49.354   4.720  19.400  0.00  0.00    +0.000 OA
ATOM     15  H   UNL     1      48.638   2.692  20.610  0.00  0.00    +0.000 HD
ATOM     16  H   UNL     1      47.860   1.928  19.271  0.00  0.00    +0.000 HD
ENDBRANCH   4  13
ENDBRANCH   1   8
BRANCH   1  17
ATOM     17  C   UNL     1      46.356   5.933  12.869  0.00  0.00    +0.000 A 
ATOM     18  C   UNL     1      47.718   6.169  12.666  0.00  0.00    +0.000 A 
ATOM     19  C   UNL     1      48.125   7.398  12.166  0.00  0.00    +0.000 A 
ATOM     20  N   UNL     1      47.282   8.408  11.854  0.00  0.00    +0.000 NA
ATOM     21  C   UNL     1      45.962   8.218  12.107  0.00  0.00    +0.000 A 
ATOM     22  C   UNL     1      45.502   7.031  12.680  0.00  0.00    +0.000 A 
BRANCH  21  23
ATOM     23  C   UNL     1      45.008   9.256  11.638  0.00  0.00    +0.000 A 
ATOM     24  C   UNL     1      43.856   8.946  10.916  0.00  0.00    +0.000 A 
ATOM     25  C   UNL     1      42.991   9.974  10.531  0.00  0.00    +0.000 A 
ATOM     26  C   UNL     1      43.288  11.281  10.877  0.00  0.00    +0.000 A 
ATOM     27  C   UNL     1      44.433  11.514  11.610  0.00  0.00    +0.000 A 
ATOM     28  N   UNL     1      45.288  10.544  12.001  0.00  0.00    +0.000 NA
ENDBRANCH  21  23
ENDBRANCH   1  17
TORSDOF 4
ENDMDL
