MODEL 1
REMARK VINA RESULT:    -9.234      0.000      0.000
REMARK INTER + INTRA:         -13.092
REMARK INTER:                 -12.202
REMARK INTRA:                  -0.889
REMARK UNBOUND:                -0.889
REMARK  Name = 
REMARK  6 active torsions:
REMARK  status: ('A' for Active; 'I' for Inactive)
REMARK    1  A    between atoms: C_2  and  C_19
REMARK    2  A    between atoms: N_3  and  C_4
REMARK    3  A    between atoms: C_4  and  C_5
REMARK    4  A    between atoms: C_8  and  C_9
REMARK    5  A    between atoms: C_9  and  C_10
REMARK    6  A    between atoms: C_14  and  O_15
REMARK                            x       y       z     vdW  Elec       q    Type
REMARK                         _______ _______ _______ _____ _____    ______ ____
ROOT
ATOM      1  C   UNL     1      46.156   7.530  12.831  0.00  0.00    +0.000 C 
ENDROOT
BRANCH   1   2
ATOM      2  C   UNL     1      45.716   6.446  11.882  0.00  0.00    +0.000 A 
ATOM      3  C   UNL     1      44.838   5.446  12.314  0.00  0.00    +0.000 A 
ATOM      4  C   UNL     1      44.398   4.457  11.430  0.00  0.00    +0.000 A 
ATOM      5  C   UNL     1      44.842   4.437  10.101  0.00  0.00    +0.000 A 
ATOM      6  C   UNL     1      45.749   5.418   9.680  0.00  0.00    +0.000 A 
ATOM      7  C   UNL     1      46.190   6.407  10.564  0.00  0.00    +0.000 A 
BRANCH   5   8
ATOM      8  C   UNL     1      44.360   3.372   9.144  0.00  0.00    +0.000 C 
BRANCH   8   9
ATOM      9  C   UNL     1      45.434   2.768   8.267  0.00  0.00    +0.000 A 
ATOM     10  C   UNL     1      46.018   3.515   7.233  0.00  0.00    +0.000 A 
ATOM     11  C   UNL     1      46.966   2.936   6.383  0.00  0.00    +0.000 A 
ATOM     12  C   UNL     1      47.357   1.611   6.568  0.00  0.00    +0.000 A 
ATOM     13  C   UNL     1      46.804   0.878   7.613  0.00  0.00    +0.000 A 
ATOM     14  C   UNL     1      45.850   1.443   8.457  0.00  0.00    +0.000 A 
BRANCH  13  15
ATOM     15  O   UNL     1      47.172  -0.415   7.844  0.00  0.00    +0.000 OA
ATOM     16  H   UNL     1      47.484  -0.484   8.761  0.00  0.00    +0.000 HD
ENDBRANCH  13  15
ENDBRANCH   8   9
ENDBRANCH   5   8
ENDBRANCH   1   2
BRANCH   1  19
ATOM     17  O   UNL     1      48.891   6.875  13.054  0.00  0.00    +0.000 OA
ATOM     18  C   UNL     1      48.161   6.740  14.032  0.00  0.00    +0.000 C 
ATOM     19  N   UNL     1      46.814   6.980  13.988  0.00  0.00    +0.000 N 
ATOM     20  H   UNL     1      46.289   7.026  14.854  0.00  0.00    +0.000 HD
BRANCH  18  21
ATOM     21  C   UNL     1      48.683   6.251  15.315  0.00  0.00    +0.000 A 
ATOM     22  C   UNL     1      49.736   6.916  15.930  0.00  0.00    +0.000 A 
ATOM     23  S   UNL     1      50.221   6.210  17.405  0.00  0.00    +0.000 S 
ATOM     24  C   UNL     1      49.013   5.017  17.295  0.00  0.00    +0.000 A 
ATOM     25  N   UNL     1      48.855   4.088  18.277  0.00  0.00    +0.000 NA
ATOM     26  C   UNL     1      47.875   3.273  18.084  0.00  0.00    +0.000 A 
ATOM     27  N   UNL     1      47.050   3.285  16.991  0.00  0.00    +0.000 N 
ATOM     28  C   UNL     1      47.223   4.150  15.939  0.00  0.00    +0.000 A 
ATOM     29  O   UNL     1      46.560   4.036  14.913  0.00  0.00    +0.000 OA
ATOM     30  C   UNL     1      48.272   5.133  16.131  0.00  0.00    +0.000 A 
ATOM     31  H   UNL     1      46.322   2.593  16.883  0.00  0.00    +0.000 HD
ENDBRANCH  18  21
ENDBRANCH   1  19
TORSDOF 6
ENDMDL
MODEL 2
REMARK VINA RESULT:    -8.738      1.672      2.157
REMARK INTER + INTRA:         -12.437
REMARK INTER:                 -11.536
REMARK INTRA:                  -0.901
REMARK UNBOUND:                -0.889
REMARK  Name = 
REMARK  6 active torsions:
REMARK  status: ('A' for Active; 'I' for Inactive)
REMARK    1  A    between atoms: C_2  and  C_19
REMARK    2  A    between atoms: N_3  and  C_4
REMARK    3  A    between atoms: C_4  and  C_5
REMARK    4  A    between atoms: C_8  and  C_9
REMARK    5  A    between atoms: C_9  and  C_10
REMARK    6  A    between atoms: C_14  and  O_15
REMARK                            x       y       z     vdW  Elec       q    Type
REMARK                         _______ _______ _______ _____ _____    ______ ____
ROOT
ATOM      1  C   UNL     1      46.727   6.691  13.345  0.00  0.00    +0.000 C 
ENDROOT
BRANCH   1   2
ATOM      2  C   UNL     1      46.183   5.865  12.210  0.00  0.00    +0.000 A 
ATOM      3  C   UNL     1      45.613   4.612  12.460  0.00  0.00    +0.000 A 
ATOM      4  C   UNL     1      45.074   3.855  11.417  0.00  0.00    +0.000 A 
ATOM      5  C   UNL     1      45.111   4.327  10.098  0.00  0.00    +0.000 A 
ATOM      6  C   UNL     1      45.714   5.566   9.843  0.00  0.00    +0.000 A 
ATOM      7  C   UNL     1      46.254   6.322  10.887  0.00  0.00    +0.000 A 
BRANCH   5   8
ATOM      8  C   UNL     1      44.522   3.511   8.971  0.00  0.00    +0.000 C 
BRANCH   8   9
ATOM      9  C   UNL     1      45.534   2.803   8.099  0.00  0.00    +0.000 A 
ATOM     10  C   UNL     1      46.072   3.435   6.968  0.00  0.00    +0.000 A 
ATOM     11  C   UNL     1      46.960   2.757   6.127  0.00  0.00    +0.000 A 
ATOM     12  C   UNL     1      47.337   1.447   6.416  0.00  0.00    +0.000 A 
ATOM     13  C   UNL     1      46.831   0.829   7.555  0.00  0.00    +0.000 A 
ATOM     14  C   UNL     1      45.936   1.492   8.391  0.00  0.00    +0.000 A 
BRANCH  13  15
ATOM     15  O   UNL     1      47.189  -0.445   7.888  0.00  0.00    +0.000 OA
ATOM     16  H   UNL     1      47.648  -0.840   7.130  0.00  0.00    +0.000 HD
ENDBRANCH  13  15
ENDBRANCH   8   9
ENDBRANCH   5   8
ENDBRANCH   1   2
BRANCH   1  19
ATOM     17  O   UNL     1      49.146   6.398  14.766  0.00  0.00    +0.000 OA
ATOM     18  C   UNL     1      48.134   5.844  15.187  0.00  0.00    +0.000 C 
ATOM     19  N   UNL     1      46.937   5.890  14.524  0.00  0.00    +0.000 N 
ATOM     20  H   UNL     1      46.097   5.572  14.994  0.00  0.00    +0.000 HD
BRANCH  18  21
ATOM     21  C   UNL     1      48.156   5.040  16.416  0.00  0.00    +0.000 A 
ATOM     22  C   UNL     1      47.868   3.683  16.358  0.00  0.00    +0.000 A 
ATOM     23  S   UNL     1      47.930   2.906  17.875  0.00  0.00    +0.000 S 
ATOM     24  C   UNL     1      48.386   4.348  18.656  0.00  0.00    +0.000 A 
ATOM     25  N   UNL     1      48.635   4.371  19.993  0.00  0.00    +0.000 NA
ATOM     26  C   UNL     1      49.012   5.519  20.444  0.00  0.00    +0.000 A 
ATOM     27  N   UNL     1      49.142   6.652  19.686  0.00  0.00    +0.000 N 
ATOM     28  C   UNL     1      48.823   6.696  18.352  0.00  0.00    +0.000 A 
ATOM     29  O   UNL     1      48.811   7.759  17.741  0.00  0.00    +0.000 OA
ATOM     30  C   UNL     1      48.454   5.416  17.778  0.00  0.00    +0.000 A 
ATOM     31  H   UNL     1      49.406   7.531  20.110  0.00  0.00    +0.000 HD
ENDBRANCH  18  21
ENDBRANCH   1  19
TORSDOF 6
ENDMDL
MODEL 3
REMARK VINA RESULT:    -8.411      2.215      3.772
REMARK INTER + INTRA:         -12.005
REMARK INTER:                 -10.935
REMARK INTRA:                  -1.070
REMARK UNBOUND:                -0.889
REMARK  Name = 
REMARK  6 active torsions:
REMARK  status: ('A' for Active; 'I' for Inactive)
REMARK    1  A    between atoms: C_2  and  C_19
REMARK    2  A    between atoms: N_3  and  C_4
REMARK    3  A    between atoms: C_4  and  C_5
REMARK    4  A    between atoms: C_8  and  C_9
REMARK    5  A    between atoms: C_9  and  C_10
REMARK    6  A    between atoms: C_14  and  O_15
REMARK                            x       y       z     vdW  Elec       q    Type
REMARK                         _______ _______ _______ _____ _____    ______ ____
ROOT
ATOM      1  C   UNL     1      46.340   5.110  14.241  0.00  0.00    +0.000 C 
ENDROOT
BRANCH   1   2
ATOM      2  C   UNL     1      45.894   4.826  12.830  0.00  0.00    +0.000 A 
ATOM      3  C   UNL     1      46.053   5.795  11.833  0.00  0.00    +0.000 A 
ATOM      4  C   UNL     1      45.675   5.526  10.515  0.00  0.00    +0.000 A 
ATOM      5  C   UNL     1      45.111   4.290  10.171  0.00  0.00    +0.000 A 
ATOM      6  C   UNL     1      44.920   3.334  11.177  0.00  0.00    +0.000 A 
ATOM      7  C   UNL     1      45.298   3.603  12.496  0.00  0.00    +0.000 A 
BRANCH   5   8
ATOM      8  C   UNL     1      44.709   3.998   8.744  0.00  0.00    +0.000 C 
BRANCH   8   9
ATOM      9  C   UNL     1      45.679   3.132   7.972  0.00  0.00    +0.000 A 
ATOM     10  C   UNL     1      46.400   3.655   6.889  0.00  0.00    +0.000 A 
ATOM     11  C   UNL     1      47.250   2.838   6.136  0.00  0.00    +0.000 A 
ATOM     12  C   UNL     1      47.404   1.493   6.469  0.00  0.00    +0.000 A 
ATOM     13  C   UNL     1      46.715   0.979   7.563  0.00  0.00    +0.000 A 
ATOM     14  C   UNL     1      45.857   1.783   8.310  0.00  0.00    +0.000 A 
BRANCH  13  15
ATOM     15  O   UNL     1      46.852  -0.326   7.937  0.00  0.00    +0.000 OA
ATOM     16  H   UNL     1      47.108  -0.349   8.873  0.00  0.00    +0.000 HD
ENDBRANCH  13  15
ENDBRANCH   8   9
ENDBRANCH   5   8
ENDBRANCH   1   2
BRANCH   1  19
ATOM     17  O   UNL     1      48.693   5.406  15.768  0.00  0.00    +0.000 OA
ATOM     18  C   UNL     1      48.340   6.321  15.028  0.00  0.00    +0.000 C 
ATOM     19  N   UNL     1      47.181   6.277  14.301  0.00  0.00    +0.000 N 
ATOM     20  H   UNL     1      47.023   6.970  13.578  0.00  0.00    +0.000 HD
BRANCH  18  21
ATOM     21  C   UNL     1      49.120   7.560  14.918  0.00  0.00    +0.000 A 
ATOM     22  C   UNL     1      49.337   8.342  16.046  0.00  0.00    +0.000 A 
ATOM     23  S   UNL     1      50.253   9.747  15.737  0.00  0.00    +0.000 S 
ATOM     24  C   UNL     1      50.427   9.339  14.093  0.00  0.00    +0.000 A 
ATOM     25  N   UNL     1      51.148  10.126  13.250  0.00  0.00    +0.000 NA
ATOM     26  C   UNL     1      51.232   9.675  12.045  0.00  0.00    +0.000 A 
ATOM     27  N   UNL     1      50.646   8.520  11.599  0.00  0.00    +0.000 N 
ATOM     28  C   UNL     1      49.844   7.739  12.393  0.00  0.00    +0.000 A 
ATOM     29  O   UNL     1      49.218   6.795  11.921  0.00  0.00    +0.000 OA
ATOM     30  C   UNL     1      49.765   8.165  13.777  0.00  0.00    +0.000 A 
ATOM     31  H   UNL     1      50.721   8.242  10.630  0.00  0.00    +0.000 HD
ENDBRANCH  18  21
ENDBRANCH   1  19
TORSDOF 6
ENDMDL
MODEL 4
REMARK VINA RESULT:    -8.279      1.452      2.023
REMARK INTER + INTRA:         -11.830
REMARK INTER:                 -10.703
REMARK INTRA:                  -1.126
REMARK UNBOUND:                -0.889
REMARK  Name = 
REMARK  6 active torsions:
REMARK  status: ('A' for Active; 'I' for Inactive)
REMARK    1  A    between atoms: C_2  and  C_19
REMARK    2  A    between atoms: N_3  and  C_4
REMARK    3  A    between atoms: C_4  and  C_5
REMARK    4  A    between atoms: C_8  and  C_9
REMARK    5  A    between atoms: C_9  and  C_10
REMARK    6  A    between atoms: C_14  and  O_15
REMARK                            x       y       z     vdW  Elec       q    Type
REMARK                         _______ _______ _______ _____ _____    ______ ____
ROOT
ATOM      1  C   UNL     1      47.425   8.198  13.678  0.00  0.00    +0.000 C 
ENDROOT
BRANCH   1   2
ATOM      2  C   UNL     1      46.558   7.320  12.814  0.00  0.00    +0.000 A 
ATOM      3  C   UNL     1      46.877   5.969  12.639  0.00  0.00    +0.000 A 
ATOM      4  C   UNL     1      46.058   5.141  11.868  0.00  0.00    +0.000 A 
ATOM      5  C   UNL     1      44.914   5.651  11.240  0.00  0.00    +0.000 A 
ATOM      6  C   UNL     1      44.615   7.012  11.387  0.00  0.00    +0.000 A 
ATOM      7  C   UNL     1      45.435   7.841  12.158  0.00  0.00    +0.000 A 
BRANCH   5   8
ATOM      8  C   UNL     1      44.025   4.753  10.411  0.00  0.00    +0.000 C 
BRANCH   8   9
ATOM      9  C   UNL     1      44.754   3.856   9.436  0.00  0.00    +0.000 A 
ATOM     10  C   UNL     1      44.732   2.462   9.591  0.00  0.00    +0.000 A 
ATOM     11  C   UNL     1      45.457   1.637   8.726  0.00  0.00    +0.000 A 
ATOM     12  C   UNL     1      46.197   2.193   7.683  0.00  0.00    +0.000 A 
ATOM     13  C   UNL     1      46.193   3.573   7.507  0.00  0.00    +0.000 A 
ATOM     14  C   UNL     1      45.484   4.403   8.372  0.00  0.00    +0.000 A 
BRANCH  13  15
ATOM     15  O   UNL     1      46.886   4.159   6.488  0.00  0.00    +0.000 OA
ATOM     16  H   UNL     1      47.834   4.010   6.639  0.00  0.00    +0.000 HD
ENDBRANCH  13  15
ENDBRANCH   8   9
ENDBRANCH   5   8
ENDBRANCH   1   2
BRANCH   1  19
ATOM     17  O   UNL     1      50.089   7.504  14.296  0.00  0.00    +0.000 OA
ATOM     18  C   UNL     1      49.200   7.245  15.103  0.00  0.00    +0.000 C 
ATOM     19  N   UNL     1      47.878   7.496  14.852  0.00  0.00    +0.000 N 
ATOM     20  H   UNL     1      47.208   7.430  15.610  0.00  0.00    +0.000 HD
BRANCH  18  21
ATOM     21  C   UNL     1      49.497   6.588  16.383  0.00  0.00    +0.000 A 
ATOM     22  C   UNL     1      50.401   7.168  17.263  0.00  0.00    +0.000 A 
ATOM     23  S   UNL     1      50.632   6.269  18.694  0.00  0.00    +0.000 S 
ATOM     24  C   UNL     1      49.500   5.096  18.206  0.00  0.00    +0.000 A 
ATOM     25  N   UNL     1      49.195   4.041  19.009  0.00  0.00    +0.000 NA
ATOM     26  C   UNL     1      48.291   3.255  18.533  0.00  0.00    +0.000 A 
ATOM     27  N   UNL     1      47.678   3.413  17.319  0.00  0.00    +0.000 N 
ATOM     28  C   UNL     1      48.012   4.414  16.442  0.00  0.00    +0.000 A 
ATOM     29  O   UNL     1      47.548   4.438  15.306  0.00  0.00    +0.000 OA
ATOM     30  C   UNL     1      48.979   5.366  16.952  0.00  0.00    +0.000 A 
ATOM     31  H   UNL     1      47.002   2.738  16.988  0.00  0.00    +0.000 HD
ENDBRANCH  18  21
ENDBRANCH   1  19
TORSDOF 6
ENDMDL
MODEL 5
REMARK VINA RESULT:    -8.158      2.216      2.872
REMARK INTER + INTRA:         -11.670
REMARK INTER:                 -10.706
REMARK INTRA:                  -0.964
REMARK UNBOUND:                -0.889
REMARK  Name = 
REMARK  6 active torsions:
REMARK  status: ('A' for Active; 'I' for Inactive)
REMARK    1  A    between atoms: C_2  and  C_19
REMARK    2  A    between atoms: N_3  and  C_4
REMARK    3  A    between atoms: C_4  and  C_5
REMARK    4  A    between atoms: C_8  and  C_9
REMARK    5  A    between atoms: C_9  and  C_10
REMARK    6  A    between atoms: C_14  and  O_15
REMARK                            x       y       z     vdW  Elec       q    Type
REMARK                         _______ _______ _______ _____ _____    ______ ____
ROOT
ATOM      1  C   UNL     1      46.336   5.586  14.054  0.00  0.00    +0.000 C 
ENDROOT
BRANCH   1   2
ATOM      2  C   UNL     1      45.914   5.130  12.682  0.00  0.00    +0.000 A 
ATOM      3  C   UNL     1      45.362   3.857  12.501  0.00  0.00    +0.000 A 
ATOM      4  C   UNL     1      44.936   3.440  11.238  0.00  0.00    +0.000 A 
ATOM      5  C   UNL     1      45.070   4.281  10.125  0.00  0.00    +0.000 A 
ATOM      6  C   UNL     1      45.655   5.542  10.300  0.00  0.00    +0.000 A 
ATOM      7  C   UNL     1      46.083   5.959  11.564  0.00  0.00    +0.000 A 
BRANCH   5   8
ATOM      8  C   UNL     1      44.603   3.832   8.760  0.00  0.00    +0.000 C 
BRANCH   8   9
ATOM      9  C   UNL     1      45.606   3.014   7.978  0.00  0.00    +0.000 A 
ATOM     10  C   UNL     1      46.276   3.565   6.876  0.00  0.00    +0.000 A 
ATOM     11  C   UNL     1      47.157   2.789   6.116  0.00  0.00    +0.000 A 
ATOM     12  C   UNL     1      47.395   1.459   6.460  0.00  0.00    +0.000 A 
ATOM     13  C   UNL     1      46.757   0.920   7.573  0.00  0.00    +0.000 A 
ATOM     14  C   UNL     1      45.868   1.682   8.328  0.00  0.00    +0.000 A 
BRANCH  13  15
ATOM     15  O   UNL     1      46.975  -0.370   7.958  0.00  0.00    +0.000 OA
ATOM     16  H   UNL     1      46.143  -0.861   7.865  0.00  0.00    +0.000 HD
ENDBRANCH  13  15
ENDBRANCH   8   9
ENDBRANCH   5   8
ENDBRANCH   1   2
BRANCH   1  19
ATOM     17  O   UNL     1      47.084   8.304  13.944  0.00  0.00    +0.000 OA
ATOM     18  C   UNL     1      47.957   7.446  14.044  0.00  0.00    +0.000 C 
ATOM     19  N   UNL     1      47.679   6.106  14.045  0.00  0.00    +0.000 N 
ATOM     20  H   UNL     1      48.406   5.449  14.306  0.00  0.00    +0.000 HD
BRANCH  18  21
ATOM     21  C   UNL     1      49.379   7.806  14.115  0.00  0.00    +0.000 A 
ATOM     22  C   UNL     1      49.905   8.721  13.211  0.00  0.00    +0.000 A 
ATOM     23  S   UNL     1      51.571   9.015  13.431  0.00  0.00    +0.000 S 
ATOM     24  C   UNL     1      51.638   7.964  14.768  0.00  0.00    +0.000 A 
ATOM     25  N   UNL     1      52.796   7.781  15.456  0.00  0.00    +0.000 NA
ATOM     26  C   UNL     1      52.692   6.992  16.470  0.00  0.00    +0.000 A 
ATOM     27  N   UNL     1      51.542   6.352  16.849  0.00  0.00    +0.000 N 
ATOM     28  C   UNL     1      50.372   6.442  16.137  0.00  0.00    +0.000 A 
ATOM     29  O   UNL     1      49.406   5.741  16.420  0.00  0.00    +0.000 OA
ATOM     30  C   UNL     1      50.414   7.368  15.021  0.00  0.00    +0.000 A 
ATOM     31  H   UNL     1      51.537   5.715  17.634  0.00  0.00    +0.000 HD
ENDBRANCH  18  21
ENDBRANCH   1  19
TORSDOF 6
ENDMDL
MODEL 6
REMARK VINA RESULT:    -7.765      2.800      4.111
REMARK INTER + INTRA:         -11.151
REMARK INTER:                 -10.239
REMARK INTRA:                  -0.911
REMARK UNBOUND:                -0.889
REMARK  Name = 
REMARK  6 active torsions:
REMARK  status: ('A' for Active; 'I' for Inactive)
REMARK    1  A    between atoms: C_2  and  C_19
REMARK    2  A    between atoms: N_3  and  C_4
REMARK    3  A    between atoms: C_4  and  C_5
REMARK    4  A    between atoms: C_8  and  C_9
REMARK    5  A    between atoms: C_9  and  C_10
REMARK    6  A    between atoms: C_14  and  O_15
REMARK                            x       y       z     vdW  Elec       q    Type
REMARK                         _______ _______ _______ _____ _____    ______ ____
ROOT
ATOM      1  C   UNL     1      46.471   6.351  13.578  0.00  0.00    +0.000 C 
ENDROOT
BRANCH   1   2
ATOM      2  C   UNL     1      45.956   5.679  12.333  0.00  0.00    +0.000 A 
ATOM      3  C   UNL     1      46.160   6.268  11.079  0.00  0.00    +0.000 A 
ATOM      4  C   UNL     1      45.716   5.634   9.916  0.00  0.00    +0.000 A 
ATOM      5  C   UNL     1      45.043   4.407   9.983  0.00  0.00    +0.000 A 
ATOM      6  C   UNL     1      44.808   3.836  11.241  0.00  0.00    +0.000 A 
ATOM      7  C   UNL     1      45.251   4.471  12.405  0.00  0.00    +0.000 A 
BRANCH   5   8
ATOM      8  C   UNL     1      44.570   3.719   8.724  0.00  0.00    +0.000 C 
BRANCH   8   9
ATOM      9  C   UNL     1      45.621   2.899   8.010  0.00  0.00    +0.000 A 
ATOM     10  C   UNL     1      46.408   3.468   6.998  0.00  0.00    +0.000 A 
ATOM     11  C   UNL     1      47.337   2.694   6.296  0.00  0.00    +0.000 A 
ATOM     12  C   UNL     1      47.506   1.346   6.611  0.00  0.00    +0.000 A 
ATOM     13  C   UNL     1      46.751   0.787   7.637  0.00  0.00    +0.000 A 
ATOM     14  C   UNL     1      45.814   1.548   8.333  0.00  0.00    +0.000 A 
BRANCH  13  15
ATOM     15  O   UNL     1      46.898  -0.522   7.993  0.00  0.00    +0.000 OA
ATOM     16  H   UNL     1      46.186  -0.752   8.611  0.00  0.00    +0.000 HD
ENDBRANCH  13  15
ENDBRANCH   8   9
ENDBRANCH   5   8
ENDBRANCH   1   2
BRANCH   1  19
ATOM     17  O   UNL     1      49.034   6.173  14.742  0.00  0.00    +0.000 OA
ATOM     18  C   UNL     1      48.832   7.006  13.863  0.00  0.00    +0.000 C 
ATOM     19  N   UNL     1      47.603   7.194  13.291  0.00  0.00    +0.000 N 
ATOM     20  H   UNL     1      47.526   7.762  12.456  0.00  0.00    +0.000 HD
BRANCH  18  21
ATOM     21  C   UNL     1      49.898   7.906  13.402  0.00  0.00    +0.000 A 
ATOM     22  C   UNL     1      50.275   7.901  12.065  0.00  0.00    +0.000 A 
ATOM     23  S   UNL     1      51.530   8.999  11.706  0.00  0.00    +0.000 S 
ATOM     24  C   UNL     1      51.584   9.549  13.316  0.00  0.00    +0.000 A 
ATOM     25  N   UNL     1      52.442  10.536  13.689  0.00  0.00    +0.000 NA
ATOM     26  C   UNL     1      52.347  10.883  14.927  0.00  0.00    +0.000 A 
ATOM     27  N   UNL     1      51.486  10.322  15.832  0.00  0.00    +0.000 N 
ATOM     28  C   UNL     1      50.662   9.270  15.521  0.00  0.00    +0.000 A 
ATOM     29  O   UNL     1      50.014   8.697  16.391  0.00  0.00    +0.000 OA
ATOM     30  C   UNL     1      50.682   8.879  14.124  0.00  0.00    +0.000 A 
ATOM     31  H   UNL     1      51.488  10.616  16.799  0.00  0.00    +0.000 HD
ENDBRANCH  18  21
ENDBRANCH   1  19
TORSDOF 6
ENDMDL
MODEL 7
REMARK VINA RESULT:    -7.232      4.276      8.768
REMARK INTER + INTRA:         -10.447
REMARK INTER:                 -10.077
REMARK INTRA:                  -0.370
REMARK UNBOUND:                -0.889
REMARK  Name = 
REMARK  6 active torsions:
REMARK  status: ('A' for Active; 'I' for Inactive)
REMARK    1  A    between atoms: C_2  and  C_19
REMARK    2  A    between atoms: N_3  and  C_4
REMARK    3  A    between atoms: C_4  and  C_5
REMARK    4  A    between atoms: C_8  and  C_9
REMARK    5  A    between atoms: C_9  and  C_10
REMARK    6  A    between atoms: C_14  and  O_15
REMARK                            x       y       z     vdW  Elec       q    Type
REMARK                         _______ _______ _______ _____ _____    ______ ____
ROOT
ATOM      1  C   UNL     1      47.185   3.387  16.814  0.00  0.00    +0.000 C 
ENDROOT
BRANCH   1   2
ATOM      2  C   UNL     1      48.656   3.444  17.129  0.00  0.00    +0.000 A 
ATOM      3  C   UNL     1      49.240   4.642  17.555  0.00  0.00    +0.000 A 
ATOM      4  C   UNL     1      50.596   4.694  17.883  0.00  0.00    +0.000 A 
ATOM      5  C   UNL     1      51.403   3.553  17.773  0.00  0.00    +0.000 A 
ATOM      6  C   UNL     1      50.826   2.363  17.312  0.00  0.00    +0.000 A 
ATOM      7  C   UNL     1      49.468   2.311  16.983  0.00  0.00    +0.000 A 
BRANCH   5   8
ATOM      8  C   UNL     1      52.869   3.609  18.135  0.00  0.00    +0.000 C 
BRANCH   8   9
ATOM      9  C   UNL     1      53.672   2.391  17.738  0.00  0.00    +0.000 A 
ATOM     10  C   UNL     1      54.787   2.511  16.896  0.00  0.00    +0.000 A 
ATOM     11  C   UNL     1      55.491   1.377  16.479  0.00  0.00    +0.000 A 
ATOM     12  C   UNL     1      55.102   0.111  16.914  0.00  0.00    +0.000 A 
ATOM     13  C   UNL     1      54.016  -0.008  17.775  0.00  0.00    +0.000 A 
ATOM     14  C   UNL     1      53.301   1.114  18.186  0.00  0.00    +0.000 A 
BRANCH  13  15
ATOM     15  O   UNL     1      53.613  -1.225  18.242  0.00  0.00    +0.000 OA
ATOM     16  H   UNL     1      52.703  -1.140  18.570  0.00  0.00    +0.000 HD
ENDBRANCH  13  15
ENDBRANCH   8   9
ENDBRANCH   5   8
ENDBRANCH   1   2
BRANCH   1  19
ATOM     17  O   UNL     1      47.294   3.090  14.011  0.00  0.00    +0.000 OA
ATOM     18  C   UNL     1      46.851   4.132  14.486  0.00  0.00    +0.000 C 
ATOM     19  N   UNL     1      46.819   4.375  15.832  0.00  0.00    +0.000 N 
ATOM     20  H   UNL     1      46.287   5.165  16.181  0.00  0.00    +0.000 HD
BRANCH  18  21
ATOM     21  C   UNL     1      46.371   5.222  13.626  0.00  0.00    +0.000 A 
ATOM     22  C   UNL     1      47.183   6.324  13.391  0.00  0.00    +0.000 A 
ATOM     23  S   UNL     1      46.466   7.496  12.379  0.00  0.00    +0.000 S 
ATOM     24  C   UNL     1      45.064   6.551  12.185  0.00  0.00    +0.000 A 
ATOM     25  N   UNL     1      44.042   6.972  11.392  0.00  0.00    +0.000 NA
ATOM     26  C   UNL     1      43.062   6.139  11.302  0.00  0.00    +0.000 A 
ATOM     27  N   UNL     1      43.000   4.932  11.947  0.00  0.00    +0.000 N 
ATOM     28  C   UNL     1      43.969   4.504  12.820  0.00  0.00    +0.000 A 
ATOM     29  O   UNL     1      43.810   3.489  13.491  0.00  0.00    +0.000 OA
ATOM     30  C   UNL     1      45.126   5.374  12.911  0.00  0.00    +0.000 A 
ATOM     31  H   UNL     1      42.184   4.341  11.863  0.00  0.00    +0.000 HD
ENDBRANCH  18  21
ENDBRANCH   1  19
TORSDOF 6
ENDMDL
MODEL 8
REMARK VINA RESULT:    -7.118      3.835      5.288
REMARK INTER + INTRA:         -10.295
REMARK INTER:                  -8.984
REMARK INTRA:                  -1.311
REMARK UNBOUND:                -0.889
REMARK  Name = 
REMARK  6 active torsions:
REMARK  status: ('A' for Active; 'I' for Inactive)
REMARK    1  A    between atoms: C_2  and  C_19
REMARK    2  A    between atoms: N_3  and  C_4
REMARK    3  A    between atoms: C_4  and  C_5
REMARK    4  A    between atoms: C_8  and  C_9
REMARK    5  A    between atoms: C_9  and  C_10
REMARK    6  A    between atoms: C_14  and  O_15
REMARK                            x       y       z     vdW  Elec       q    Type
REMARK                         _______ _______ _______ _____ _____    ______ ____
ROOT
ATOM      1  C   UNL     1      48.785   7.034  14.516  0.00  0.00    +0.000 C 
ENDROOT
BRANCH   1   2
ATOM      2  C   UNL     1      47.736   6.563  13.544  0.00  0.00    +0.000 A 
ATOM      3  C   UNL     1      47.192   5.279  13.662  0.00  0.00    +0.000 A 
ATOM      4  C   UNL     1      46.193   4.847  12.786  0.00  0.00    +0.000 A 
ATOM      5  C   UNL     1      45.730   5.684  11.762  0.00  0.00    +0.000 A 
ATOM      6  C   UNL     1      46.300   6.956  11.623  0.00  0.00    +0.000 A 
ATOM      7  C   UNL     1      47.301   7.388  12.498  0.00  0.00    +0.000 A 
BRANCH   5   8
ATOM      8  C   UNL     1      44.644   5.219  10.819  0.00  0.00    +0.000 C 
BRANCH   8   9
ATOM      9  C   UNL     1      45.093   4.232   9.765  0.00  0.00    +0.000 A 
ATOM     10  C   UNL     1      44.873   2.857   9.930  0.00  0.00    +0.000 A 
ATOM     11  C   UNL     1      45.343   1.940   8.985  0.00  0.00    +0.000 A 
ATOM     12  C   UNL     1      46.022   2.388   7.853  0.00  0.00    +0.000 A 
ATOM     13  C   UNL     1      46.213   3.753   7.669  0.00  0.00    +0.000 A 
ATOM     14  C   UNL     1      45.759   4.673   8.612  0.00  0.00    +0.000 A 
BRANCH  13  15
ATOM     15  O   UNL     1      46.854   4.237   6.566  0.00  0.00    +0.000 OA
ATOM     16  H   UNL     1      47.674   3.731   6.443  0.00  0.00    +0.000 HD
ENDBRANCH  13  15
ENDBRANCH   8   9
ENDBRANCH   5   8
ENDBRANCH   1   2
BRANCH   1  19
ATOM     17  O   UNL     1      50.128   9.507  14.326  0.00  0.00    +0.000 OA
ATOM     18  C   UNL     1      50.654   8.502  13.854  0.00  0.00    +0.000 C 
ATOM     19  N   UNL     1      50.041   7.278  13.855  0.00  0.00    +0.000 N 
ATOM     20  H   UNL     1      50.581   6.453  13.618  0.00  0.00    +0.000 HD
BRANCH  18  21
ATOM     21  C   UNL     1      51.968   8.561  13.201  0.00  0.00    +0.000 A 
ATOM     22  C   UNL     1      53.072   9.018  13.910  0.00  0.00    +0.000 A 
ATOM     23  S   UNL     1      54.513   9.029  12.997  0.00  0.00    +0.000 S 
ATOM     24  C   UNL     1      53.721   8.382  11.636  0.00  0.00    +0.000 A 
ATOM     25  N   UNL     1      54.405   8.109  10.493  0.00  0.00    +0.000 NA
ATOM     26  C   UNL     1      53.690   7.583   9.558  0.00  0.00    +0.000 A 
ATOM     27  N   UNL     1      52.348   7.324   9.652  0.00  0.00    +0.000 N 
ATOM     28  C   UNL     1      51.602   7.658  10.755  0.00  0.00    +0.000 A 
ATOM     29  O   UNL     1      50.380   7.546  10.746  0.00  0.00    +0.000 OA
ATOM     30  C   UNL     1      52.368   8.195  11.863  0.00  0.00    +0.000 A 
ATOM     31  H   UNL     1      51.838   6.944   8.867  0.00  0.00    +0.000 HD
ENDBRANCH  18  21
ENDBRANCH   1  19
TORSDOF 6
ENDMDL
MODEL 9
REMARK VINA RESULT:    -7.108      2.207      3.219
REMARK INTER + INTRA:         -10.283
REMARK INTER:                  -9.114
REMARK INTRA:                  -1.168
REMARK UNBOUND:                -0.889
REMARK  Name = 
REMARK  6 active torsions:
REMARK  status: ('A' for Active; 'I' for Inactive)
REMARK    1  A    between atoms: C_2  and  C_19
REMARK    2  A    between atoms: N_3  and  C_4
REMARK    3  A    between atoms: C_4  and  C_5
REMARK    4  A    between atoms: C_8  and  C_9
REMARK    5  A    between atoms: C_9  and  C_10
REMARK    6  A    between atoms: C_14  and  O_15
REMARK                            x       y       z     vdW  Elec       q    Type
REMARK                         _______ _______ _______ _____ _____    ______ ____
ROOT
ATOM      1  C   UNL     1      49.043   8.527  13.991  0.00  0.00    +0.000 C 
ENDROOT
BRANCH   1   2
ATOM      2  C   UNL     1      47.838   8.020  13.244  0.00  0.00    +0.000 A 
ATOM      3  C   UNL     1      46.630   8.725  13.294  0.00  0.00    +0.000 A 
ATOM      4  C   UNL     1      45.518   8.280  12.575  0.00  0.00    +0.000 A 
ATOM      5  C   UNL     1      45.584   7.111  11.806  0.00  0.00    +0.000 A 
ATOM      6  C   UNL     1      46.784   6.386  11.785  0.00  0.00    +0.000 A 
ATOM      7  C   UNL     1      47.896   6.831  12.506  0.00  0.00    +0.000 A 
BRANCH   5   8
ATOM      8  C   UNL     1      44.383   6.634  11.023  0.00  0.00    +0.000 C 
BRANCH   8   9
ATOM      9  C   UNL     1      44.437   5.187  10.589  0.00  0.00    +0.000 A 
ATOM     10  C   UNL     1      45.130   4.813   9.428  0.00  0.00    +0.000 A 
ATOM     11  C   UNL     1      45.127   3.484   8.993  0.00  0.00    +0.000 A 
ATOM     12  C   UNL     1      44.449   2.509   9.723  0.00  0.00    +0.000 A 
ATOM     13  C   UNL     1      43.789   2.871  10.893  0.00  0.00    +0.000 A 
ATOM     14  C   UNL     1      43.776   4.195  11.327  0.00  0.00    +0.000 A 
BRANCH  13  15
ATOM     15  O   UNL     1      43.130   1.947  11.649  0.00  0.00    +0.000 OA
ATOM     16  H   UNL     1      42.491   1.487  11.081  0.00  0.00    +0.000 HD
ENDBRANCH  13  15
ENDBRANCH   8   9
ENDBRANCH   5   8
ENDBRANCH   1   2
BRANCH   1  19
ATOM     17  O   UNL     1      48.007   9.196  16.528  0.00  0.00    +0.000 OA
ATOM     18  C   UNL     1      48.660   8.163  16.401  0.00  0.00    +0.000 C 
ATOM     19  N   UNL     1      49.244   7.800  15.218  0.00  0.00    +0.000 N 
ATOM     20  H   UNL     1      49.618   6.863  15.117  0.00  0.00    +0.000 HD
BRANCH  18  21
ATOM     21  C   UNL     1      48.906   7.268  17.540  0.00  0.00    +0.000 A 
ATOM     22  C   UNL     1      49.369   7.790  18.741  0.00  0.00    +0.000 A 
ATOM     23  S   UNL     1      49.609   6.611  19.950  0.00  0.00    +0.000 S 
ATOM     24  C   UNL     1      49.060   5.368  18.925  0.00  0.00    +0.000 A 
ATOM     25  N   UNL     1      48.982   4.083  19.364  0.00  0.00    +0.000 NA
ATOM     26  C   UNL     1      48.510   3.254  18.497  0.00  0.00    +0.000 A 
ATOM     27  N   UNL     1      48.128   3.585  17.224  0.00  0.00    +0.000 N 
ATOM     28  C   UNL     1      48.267   4.851  16.712  0.00  0.00    +0.000 A 
ATOM     29  O   UNL     1      48.054   5.079  15.526  0.00  0.00    +0.000 OA
ATOM     30  C   UNL     1      48.734   5.840  17.665  0.00  0.00    +0.000 A 
ATOM     31  H   UNL     1      47.801   2.878  16.581  0.00  0.00    +0.000 HD
ENDBRANCH  18  21
ENDBRANCH   1  19
TORSDOF 6
ENDMDL
