MODEL 1
REMARK VINA RESULT:    -7.858      0.000      0.000
REMARK INTER + INTRA:         -12.348
REMARK INTER:                 -11.073
REMARK INTRA:                  -1.275
REMARK UNBOUND:                -1.275
REMARK  Name = 
REMARK  10 active torsions:
REMARK  status: ('A' for Active; 'I' for Inactive)
REMARK    1  A    between atoms: C_1  and  C_2
REMARK    2  A    between atoms: N_5  and  C_6
REMARK    3  A    between atoms: C_6  and  C_7
REMARK    4  A    between atoms: C_6  and  N_8
REMARK    5  A    between atoms: N_8  and  C_9
REMARK    6  A    between atoms: C_9  and  C_10
REMARK    7  A    between atoms: C_9  and  C_11
REMARK    8  A    between atoms: C_14  and  C_15
REMARK    9  A    between atoms: C_15  and  N_16
REMARK   10  A    between atoms: C_17  and  C_19
REMARK                            x       y       z     vdW  Elec       q    Type
REMARK                         _______ _______ _______ _____ _____    ______ ____
ROOT
ATOM      1  C   UNL     1      45.392   5.472  11.776  0.00  0.00    +0.000 A 
ATOM      2  C   UNL     1      45.703   4.765  12.947  0.00  0.00    +0.000 A 
ATOM      3  C   UNL     1      46.772   5.158  13.754  0.00  0.00    +0.000 A 
ATOM      4  C   UNL     1      47.530   6.288  13.422  0.00  0.00    +0.000 A 
ATOM      5  C   UNL     1      47.257   6.959  12.222  0.00  0.00    +0.000 A 
ATOM      6  C   UNL     1      46.202   6.555  11.407  0.00  0.00    +0.000 A 
ENDROOT
BRANCH   1   7
ATOM      7  C   UNL     1      44.211   5.039  10.928  0.00  0.00    +0.000 C 
ATOM      8  C   UNL     1      43.094   6.091  11.000  0.00  0.00    +0.000 C 
BRANCH   7   9
ATOM      9  N   UNL     1      44.584   4.776   9.524  0.00  0.00    +0.000 NA
ATOM     10  H   UNL     1      43.970   5.353   8.940  0.00  0.00    +0.000 HD
BRANCH   9  11
ATOM     11  C   UNL     1      44.320   3.374   9.096  0.00  0.00    +0.000 C 
ATOM     12  C   UNL     1      44.086   2.488  10.319  0.00  0.00    +0.000 C 
BRANCH  11  17
ATOM     13  C   UNL     1      47.193   3.050   5.246  0.00  0.00    +0.000 C 
ATOM     14  C   UNL     1      46.689   2.708   6.595  0.00  0.00    +0.000 A 
ATOM     15  C   UNL     1      46.844   1.500   7.312  0.00  0.00    +0.000 A 
ATOM     16  C   UNL     1      46.060   1.649   8.433  0.00  0.00    +0.000 A 
ATOM     17  N   UNL     1      45.468   2.879   8.320  0.00  0.00    +0.000 N 
ATOM     18  N   UNL     1      45.907   3.576   7.246  0.00  0.00    +0.000 NA
ENDBRANCH  11  17
ENDBRANCH   9  11
ENDBRANCH   7   9
ENDBRANCH   1   7
BRANCH   4  19
ATOM     19  C   UNL     1      48.642   6.762  14.316  0.00  0.00    +0.000 C 
BRANCH  19  20
ATOM     20  N   UNL     1      48.238   6.720  15.694  0.00  0.00    +0.000 N 
ATOM     21  C   UNL     1      49.082   6.300  16.685  0.00  0.00    +0.000 C 
ATOM     22  O   UNL     1      50.192   5.832  16.453  0.00  0.00    +0.000 OA
ATOM     23  H   UNL     1      47.393   7.227  15.933  0.00  0.00    +0.000 HD
BRANCH  21  24
ATOM     24  C   UNL     1      48.572   6.428  18.053  0.00  0.00    +0.000 A 
ATOM     25  C   UNL     1      48.569   5.338  18.911  0.00  0.00    +0.000 A 
ATOM     26  S   UNL     1      48.016   5.715  20.481  0.00  0.00    +0.000 S 
ATOM     27  C   UNL     1      47.832   7.362  20.088  0.00  0.00    +0.000 A 
ATOM     28  N   UNL     1      47.519   8.287  21.029  0.00  0.00    +0.000 NA
ATOM     29  C   UNL     1      47.420   9.492  20.575  0.00  0.00    +0.000 A 
ATOM     30  N   UNL     1      47.563   9.856  19.266  0.00  0.00    +0.000 N 
ATOM     31  C   UNL     1      47.838   8.943  18.273  0.00  0.00    +0.000 A 
ATOM     32  O   UNL     1      47.856   9.289  17.093  0.00  0.00    +0.000 OA
ATOM     33  C   UNL     1      48.068   7.593  18.740  0.00  0.00    +0.000 A 
ATOM     34  H   UNL     1      47.395  10.800  18.964  0.00  0.00    +0.000 HD
ENDBRANCH  21  24
ENDBRANCH  19  20
ENDBRANCH   4  19
TORSDOF 7
ENDMDL
MODEL 2
REMARK VINA RESULT:    -7.751      1.392      2.418
REMARK INTER + INTRA:         -12.198
REMARK INTER:                 -10.959
REMARK INTRA:                  -1.239
REMARK UNBOUND:                -1.275
REMARK  Name = 
REMARK  10 active torsions:
REMARK  status: ('A' for Active; 'I' for Inactive)
REMARK    1  A    between atoms: C_1  and  C_2
REMARK    2  A    between atoms: N_5  and  C_6
REMARK    3  A    between atoms: C_6  and  C_7
REMARK    4  A    between atoms: C_6  and  N_8
REMARK    5  A    between atoms: N_8  and  C_9
REMARK    6  A    between atoms: C_9  and  C_10
REMARK    7  A    between atoms: C_9  and  C_11
REMARK    8  A    between atoms: C_14  and  C_15
REMARK    9  A    between atoms: C_15  and  N_16
REMARK   10  A    between atoms: C_17  and  C_19
REMARK                            x       y       z     vdW  Elec       q    Type
REMARK                         _______ _______ _______ _____ _____    ______ ____
ROOT
ATOM      1  C   UNL     1      45.602   5.541  11.763  0.00  0.00    +0.000 A 
ATOM      2  C   UNL     1      46.351   6.625  11.281  0.00  0.00    +0.000 A 
ATOM      3  C   UNL     1      47.449   7.106  11.995  0.00  0.00    +0.000 A 
ATOM      4  C   UNL     1      47.841   6.488  13.190  0.00  0.00    +0.000 A 
ATOM      5  C   UNL     1      47.059   5.444  13.701  0.00  0.00    +0.000 A 
ATOM      6  C   UNL     1      45.951   4.976  12.998  0.00  0.00    +0.000 A 
ENDROOT
BRANCH   1   7
ATOM      7  C   UNL     1      44.427   5.022  10.956  0.00  0.00    +0.000 C 
ATOM      8  C   UNL     1      43.230   5.977  11.088  0.00  0.00    +0.000 C 
BRANCH   7   9
ATOM      9  N   UNL     1      44.763   4.808   9.535  0.00  0.00    +0.000 NA
ATOM     10  H   UNL     1      44.171   5.443   8.989  0.00  0.00    +0.000 HD
BRANCH   9  11
ATOM     11  C   UNL     1      44.419   3.443   9.046  0.00  0.00    +0.000 C 
ATOM     12  C   UNL     1      44.100   2.529  10.228  0.00  0.00    +0.000 C 
BRANCH  11  17
ATOM     13  C   UNL     1      47.272   2.978   5.195  0.00  0.00    +0.000 C 
ATOM     14  C   UNL     1      46.762   2.672   6.551  0.00  0.00    +0.000 A 
ATOM     15  C   UNL     1      46.886   1.472   7.287  0.00  0.00    +0.000 A 
ATOM     16  C   UNL     1      46.109   1.660   8.407  0.00  0.00    +0.000 A 
ATOM     17  N   UNL     1      45.551   2.904   8.275  0.00  0.00    +0.000 N 
ATOM     18  N   UNL     1      46.007   3.571   7.190  0.00  0.00    +0.000 NA
ENDBRANCH  11  17
ENDBRANCH   9  11
ENDBRANCH   7   9
ENDBRANCH   1   7
BRANCH   4  19
ATOM     19  C   UNL     1      49.061   6.953  13.936  0.00  0.00    +0.000 C 
BRANCH  19  20
ATOM     20  N   UNL     1      48.890   6.771  15.350  0.00  0.00    +0.000 N 
ATOM     21  C   UNL     1      49.244   7.736  16.253  0.00  0.00    +0.000 C 
ATOM     22  O   UNL     1      49.827   8.765  15.927  0.00  0.00    +0.000 OA
ATOM     23  H   UNL     1      48.289   6.007  15.639  0.00  0.00    +0.000 HD
BRANCH  21  24
ATOM     24  C   UNL     1      48.897   7.458  17.650  0.00  0.00    +0.000 A 
ATOM     25  C   UNL     1      48.271   8.422  18.428  0.00  0.00    +0.000 A 
ATOM     26  S   UNL     1      47.876   7.874  19.995  0.00  0.00    +0.000 S 
ATOM     27  C   UNL     1      48.461   6.310  19.663  0.00  0.00    +0.000 A 
ATOM     28  N   UNL     1      48.299   5.288  20.541  0.00  0.00    +0.000 NA
ATOM     29  C   UNL     1      48.792   4.164  20.142  0.00  0.00    +0.000 A 
ATOM     30  N   UNL     1      49.467   3.970  18.971  0.00  0.00    +0.000 N 
ATOM     31  C   UNL     1      49.691   4.987  18.071  0.00  0.00    +0.000 A 
ATOM     32  O   UNL     1      50.391   4.802  17.078  0.00  0.00    +0.000 OA
ATOM     33  C   UNL     1      49.065   6.246  18.415  0.00  0.00    +0.000 A 
ATOM     34  H   UNL     1      49.896   3.086  18.754  0.00  0.00    +0.000 HD
ENDBRANCH  21  24
ENDBRANCH  19  20
ENDBRANCH   4  19
TORSDOF 7
ENDMDL
MODEL 3
REMARK VINA RESULT:    -7.639      2.108      2.906
REMARK INTER + INTRA:         -12.040
REMARK INTER:                 -10.460
REMARK INTRA:                  -1.581
REMARK UNBOUND:                -1.275
REMARK  Name = 
REMARK  10 active torsions:
REMARK  status: ('A' for Active; 'I' for Inactive)
REMARK    1  A    between atoms: C_1  and  C_2
REMARK    2  A    between atoms: N_5  and  C_6
REMARK    3  A    between atoms: C_6  and  C_7
REMARK    4  A    between atoms: C_6  and  N_8
REMARK    5  A    between atoms: N_8  and  C_9
REMARK    6  A    between atoms: C_9  and  C_10
REMARK    7  A    between atoms: C_9  and  C_11
REMARK    8  A    between atoms: C_14  and  C_15
REMARK    9  A    between atoms: C_15  and  N_16
REMARK   10  A    between atoms: C_17  and  C_19
REMARK                            x       y       z     vdW  Elec       q    Type
REMARK                         _______ _______ _______ _____ _____    ______ ____
ROOT
ATOM      1  C   UNL     1      45.169   6.394  11.886  0.00  0.00    +0.000 A 
ATOM      2  C   UNL     1      46.472   5.881  11.808  0.00  0.00    +0.000 A 
ATOM      3  C   UNL     1      47.557   6.615  12.290  0.00  0.00    +0.000 A 
ATOM      4  C   UNL     1      47.354   7.863  12.893  0.00  0.00    +0.000 A 
ATOM      5  C   UNL     1      46.060   8.400  12.919  0.00  0.00    +0.000 A 
ATOM      6  C   UNL     1      44.980   7.676  12.420  0.00  0.00    +0.000 A 
ENDROOT
BRANCH   1   7
ATOM      7  C   UNL     1      44.004   5.566  11.377  0.00  0.00    +0.000 C 
ATOM      8  C   UNL     1      42.705   6.385  11.438  0.00  0.00    +0.000 C 
BRANCH   7   9
ATOM      9  N   UNL     1      44.226   5.051  10.011  0.00  0.00    +0.000 NA
ATOM     10  H   UNL     1      43.487   5.445   9.420  0.00  0.00    +0.000 HD
BRANCH   9  11
ATOM     11  C   UNL     1      44.063   3.574   9.903  0.00  0.00    +0.000 C 
ATOM     12  C   UNL     1      44.457   2.907  11.220  0.00  0.00    +0.000 C 
BRANCH  11  17
ATOM     13  C   UNL     1      46.921   0.409   7.670  0.00  0.00    +0.000 C 
ATOM     14  C   UNL     1      46.206   1.690   7.861  0.00  0.00    +0.000 A 
ATOM     15  C   UNL     1      46.507   2.957   7.313  0.00  0.00    +0.000 A 
ATOM     16  C   UNL     1      45.635   3.826   7.926  0.00  0.00    +0.000 A 
ATOM     17  N   UNL     1      44.904   3.072   8.805  0.00  0.00    +0.000 N 
ATOM     18  N   UNL     1      45.180   1.750   8.717  0.00  0.00    +0.000 NA
ENDBRANCH  11  17
ENDBRANCH   9  11
ENDBRANCH   7   9
ENDBRANCH   1   7
BRANCH   4  19
ATOM     19  C   UNL     1      48.504   8.635  13.476  0.00  0.00    +0.000 C 
BRANCH  19  20
ATOM     20  N   UNL     1      49.042   7.956  14.622  0.00  0.00    +0.000 N 
ATOM     21  C   UNL     1      48.694   8.301  15.899  0.00  0.00    +0.000 C 
ATOM     22  O   UNL     1      47.992   9.275  16.153  0.00  0.00    +0.000 OA
ATOM     23  H   UNL     1      49.503   7.070  14.448  0.00  0.00    +0.000 HD
BRANCH  21  24
ATOM     24  C   UNL     1      49.227   7.440  16.959  0.00  0.00    +0.000 A 
ATOM     25  C   UNL     1      50.042   7.964  17.952  0.00  0.00    +0.000 A 
ATOM     26  S   UNL     1      50.487   6.819  19.136  0.00  0.00    +0.000 S 
ATOM     27  C   UNL     1      49.545   5.604  18.404  0.00  0.00    +0.000 A 
ATOM     28  N   UNL     1      49.363   4.394  18.990  0.00  0.00    +0.000 NA
ATOM     29  C   UNL     1      48.620   3.584  18.313  0.00  0.00    +0.000 A 
ATOM     30  N   UNL     1      48.074   3.850  17.090  0.00  0.00    +0.000 N 
ATOM     31  C   UNL     1      48.268   5.048  16.440  0.00  0.00    +0.000 A 
ATOM     32  O   UNL     1      47.850   5.214  15.296  0.00  0.00    +0.000 OA
ATOM     33  C   UNL     1      49.003   6.036  17.201  0.00  0.00    +0.000 A 
ATOM     34  H   UNL     1      47.569   3.146  16.577  0.00  0.00    +0.000 HD
ENDBRANCH  21  24
ENDBRANCH  19  20
ENDBRANCH   4  19
TORSDOF 7
ENDMDL
MODEL 4
REMARK VINA RESULT:    -7.301      3.580      8.888
REMARK INTER + INTRA:         -11.563
REMARK INTER:                  -9.924
REMARK INTRA:                  -1.640
REMARK UNBOUND:                -1.275
REMARK  Name = 
REMARK  10 active torsions:
REMARK  status: ('A' for Active; 'I' for Inactive)
REMARK    1  A    between atoms: C_1  and  C_2
REMARK    2  A    between atoms: N_5  and  C_6
REMARK    3  A    between atoms: C_6  and  C_7
REMARK    4  A    between atoms: C_6  and  N_8
REMARK    5  A    between atoms: N_8  and  C_9
REMARK    6  A    between atoms: C_9  and  C_10
REMARK    7  A    between atoms: C_9  and  C_11
REMARK    8  A    between atoms: C_14  and  C_15
REMARK    9  A    between atoms: C_15  and  N_16
REMARK   10  A    between atoms: C_17  and  C_19
REMARK                            x       y       z     vdW  Elec       q    Type
REMARK                         _______ _______ _______ _____ _____    ______ ____
ROOT
ATOM      1  C   UNL     1      48.629   7.669  16.436  0.00  0.00    +0.000 A 
ATOM      2  C   UNL     1      48.594   8.914  15.793  0.00  0.00    +0.000 A 
ATOM      3  C   UNL     1      48.554   8.997  14.400  0.00  0.00    +0.000 A 
ATOM      4  C   UNL     1      48.512   7.831  13.624  0.00  0.00    +0.000 A 
ATOM      5  C   UNL     1      48.606   6.588  14.263  0.00  0.00    +0.000 A 
ATOM      6  C   UNL     1      48.666   6.506  15.653  0.00  0.00    +0.000 A 
ENDROOT
BRANCH   1   7
ATOM      7  C   UNL     1      48.649   7.606  17.951  0.00  0.00    +0.000 C 
ATOM      8  C   UNL     1      48.645   9.025  18.541  0.00  0.00    +0.000 C 
BRANCH   7   9
ATOM      9  N   UNL     1      47.531   6.814  18.503  0.00  0.00    +0.000 NA
ATOM     10  H   UNL     1      47.005   7.436  19.127  0.00  0.00    +0.000 HD
BRANCH   9  11
ATOM     11  C   UNL     1      47.977   5.685  19.365  0.00  0.00    +0.000 C 
ATOM     12  C   UNL     1      49.336   6.004  19.985  0.00  0.00    +0.000 C 
BRANCH  11  17
ATOM     13  C   UNL     1      50.220   2.127  17.022  0.00  0.00    +0.000 C 
ATOM     14  C   UNL     1      49.067   2.932  17.482  0.00  0.00    +0.000 A 
ATOM     15  C   UNL     1      47.788   3.056  16.892  0.00  0.00    +0.000 A 
ATOM     16  C   UNL     1      47.154   4.035  17.621  0.00  0.00    +0.000 A 
ATOM     17  N   UNL     1      48.061   4.459  18.555  0.00  0.00    +0.000 N 
ATOM     18  N   UNL     1      49.205   3.736  18.542  0.00  0.00    +0.000 NA
ENDBRANCH  11  17
ENDBRANCH   9  11
ENDBRANCH   7   9
ENDBRANCH   1   7
BRANCH   4  19
ATOM     19  C   UNL     1      48.401   7.904  12.127  0.00  0.00    +0.000 C 
BRANCH  19  20
ATOM     20  N   UNL     1      47.597   6.825  11.624  0.00  0.00    +0.000 N 
ATOM     21  C   UNL     1      46.259   6.969  11.381  0.00  0.00    +0.000 C 
ATOM     22  O   UNL     1      45.640   7.987  11.676  0.00  0.00    +0.000 OA
ATOM     23  H   UNL     1      48.096   6.030  11.240  0.00  0.00    +0.000 HD
BRANCH  21  24
ATOM     24  C   UNL     1      45.598   5.821  10.755  0.00  0.00    +0.000 A 
ATOM     25  C   UNL     1      45.828   5.512   9.422  0.00  0.00    +0.000 A 
ATOM     26  S   UNL     1      45.032   4.093   8.909  0.00  0.00    +0.000 S 
ATOM     27  C   UNL     1      44.415   3.801  10.468  0.00  0.00    +0.000 A 
ATOM     28  N   UNL     1      43.750   2.657  10.768  0.00  0.00    +0.000 NA
ATOM     29  C   UNL     1      43.349   2.583  11.993  0.00  0.00    +0.000 A 
ATOM     30  N   UNL     1      43.511   3.557  12.936  0.00  0.00    +0.000 N 
ATOM     31  C   UNL     1      44.140   4.751  12.664  0.00  0.00    +0.000 A 
ATOM     32  O   UNL     1      44.176   5.646  13.505  0.00  0.00    +0.000 OA
ATOM     33  C   UNL     1      44.708   4.845  11.336  0.00  0.00    +0.000 A 
ATOM     34  H   UNL     1      43.104   3.472  13.853  0.00  0.00    +0.000 HD
ENDBRANCH  21  24
ENDBRANCH  19  20
ENDBRANCH   4  19
TORSDOF 7
ENDMDL
MODEL 5
REMARK VINA RESULT:    -6.835      2.934      3.774
REMARK INTER + INTRA:         -10.907
REMARK INTER:                  -9.537
REMARK INTRA:                  -1.370
REMARK UNBOUND:                -1.275
REMARK  Name = 
REMARK  10 active torsions:
REMARK  status: ('A' for Active; 'I' for Inactive)
REMARK    1  A    between atoms: C_1  and  C_2
REMARK    2  A    between atoms: N_5  and  C_6
REMARK    3  A    between atoms: C_6  and  C_7
REMARK    4  A    between atoms: C_6  and  N_8
REMARK    5  A    between atoms: N_8  and  C_9
REMARK    6  A    between atoms: C_9  and  C_10
REMARK    7  A    between atoms: C_9  and  C_11
REMARK    8  A    between atoms: C_14  and  C_15
REMARK    9  A    between atoms: C_15  and  N_16
REMARK   10  A    between atoms: C_17  and  C_19
REMARK                            x       y       z     vdW  Elec       q    Type
REMARK                         _______ _______ _______ _____ _____    ______ ____
ROOT
ATOM      1  C   UNL     1      45.558   6.222  12.711  0.00  0.00    +0.000 A 
ATOM      2  C   UNL     1      46.800   5.691  13.089  0.00  0.00    +0.000 A 
ATOM      3  C   UNL     1      47.830   6.526  13.522  0.00  0.00    +0.000 A 
ATOM      4  C   UNL     1      47.626   7.908  13.621  0.00  0.00    +0.000 A 
ATOM      5  C   UNL     1      46.405   8.445  13.189  0.00  0.00    +0.000 A 
ATOM      6  C   UNL     1      45.383   7.613  12.738  0.00  0.00    +0.000 A 
ENDROOT
BRANCH   1   7
ATOM      7  C   UNL     1      44.447   5.290  12.266  0.00  0.00    +0.000 C 
ATOM      8  C   UNL     1      43.456   6.041  11.363  0.00  0.00    +0.000 C 
BRANCH   7   9
ATOM      9  N   UNL     1      44.955   4.084  11.583  0.00  0.00    +0.000 NA
ATOM     10  H   UNL     1      45.717   4.388  10.968  0.00  0.00    +0.000 HD
BRANCH   9  11
ATOM     11  C   UNL     1      43.954   3.452  10.678  0.00  0.00    +0.000 C 
ATOM     12  C   UNL     1      43.393   2.185  11.321  0.00  0.00    +0.000 C 
BRANCH  11  17
ATOM     13  C   UNL     1      46.821   0.967   7.713  0.00  0.00    +0.000 C 
ATOM     14  C   UNL     1      45.906   2.059   8.117  0.00  0.00    +0.000 A 
ATOM     15  C   UNL     1      45.778   3.351   7.559  0.00  0.00    +0.000 A 
ATOM     16  C   UNL     1      44.908   4.014   8.394  0.00  0.00    +0.000 A 
ATOM     17  N   UNL     1      44.597   3.131   9.393  0.00  0.00    +0.000 N 
ATOM     18  N   UNL     1      45.129   1.903   9.194  0.00  0.00    +0.000 NA
ENDBRANCH  11  17
ENDBRANCH   9  11
ENDBRANCH   7   9
ENDBRANCH   1   7
BRANCH   4  19
ATOM     19  C   UNL     1      48.703   8.813  14.149  0.00  0.00    +0.000 C 
BRANCH  19  20
ATOM     20  N   UNL     1      49.841   8.049  14.579  0.00  0.00    +0.000 N 
ATOM     21  C   UNL     1      50.525   8.348  15.725  0.00  0.00    +0.000 C 
ATOM     22  O   UNL     1      50.283   9.346  16.398  0.00  0.00    +0.000 OA
ATOM     23  H   UNL     1      49.976   7.149  14.133  0.00  0.00    +0.000 HD
BRANCH  21  24
ATOM     24  C   UNL     1      51.585   7.408  16.099  0.00  0.00    +0.000 A 
ATOM     25  C   UNL     1      52.921   7.760  15.968  0.00  0.00    +0.000 A 
ATOM     26  S   UNL     1      53.995   6.561  16.535  0.00  0.00    +0.000 S 
ATOM     27  C   UNL     1      52.712   5.563  17.042  0.00  0.00    +0.000 A 
ATOM     28  N   UNL     1      52.931   4.426  17.748  0.00  0.00    +0.000 NA
ATOM     29  C   UNL     1      51.857   3.783  18.063  0.00  0.00    +0.000 A 
ATOM     30  N   UNL     1      50.589   4.143  17.706  0.00  0.00    +0.000 N 
ATOM     31  C   UNL     1      50.324   5.265  16.954  0.00  0.00    +0.000 A 
ATOM     32  O   UNL     1      49.183   5.502  16.563  0.00  0.00    +0.000 OA
ATOM     33  C   UNL     1      51.482   6.085  16.665  0.00  0.00    +0.000 A 
ATOM     34  H   UNL     1      49.799   3.555  17.915  0.00  0.00    +0.000 HD
ENDBRANCH  21  24
ENDBRANCH  19  20
ENDBRANCH   4  19
TORSDOF 7
ENDMDL
MODEL 6
REMARK VINA RESULT:    -6.821      3.180      4.585
REMARK INTER + INTRA:         -10.886
REMARK INTER:                 -10.510
REMARK INTRA:                  -0.376
REMARK UNBOUND:                -1.275
REMARK  Name = 
REMARK  10 active torsions:
REMARK  status: ('A' for Active; 'I' for Inactive)
REMARK    1  A    between atoms: C_1  and  C_2
REMARK    2  A    between atoms: N_5  and  C_6
REMARK    3  A    between atoms: C_6  and  C_7
REMARK    4  A    between atoms: C_6  and  N_8
REMARK    5  A    between atoms: N_8  and  C_9
REMARK    6  A    between atoms: C_9  and  C_10
REMARK    7  A    between atoms: C_9  and  C_11
REMARK    8  A    between atoms: C_14  and  C_15
REMARK    9  A    between atoms: C_15  and  N_16
REMARK   10  A    between atoms: C_17  and  C_19
REMARK                            x       y       z     vdW  Elec       q    Type
REMARK                         _______ _______ _______ _____ _____    ______ ____
ROOT
ATOM      1  C   UNL     1      46.316   4.929  13.692  0.00  0.00    +0.000 A 
ATOM      2  C   UNL     1      46.864   6.127  13.213  0.00  0.00    +0.000 A 
ATOM      3  C   UNL     1      47.813   6.826  13.961  0.00  0.00    +0.000 A 
ATOM      4  C   UNL     1      48.259   6.319  15.189  0.00  0.00    +0.000 A 
ATOM      5  C   UNL     1      47.668   5.153  15.694  0.00  0.00    +0.000 A 
ATOM      6  C   UNL     1      46.707   4.466  14.956  0.00  0.00    +0.000 A 
ENDROOT
BRANCH   1   7
ATOM      7  C   UNL     1      45.304   4.176  12.849  0.00  0.00    +0.000 C 
ATOM      8  C   UNL     1      43.885   4.686  13.143  0.00  0.00    +0.000 C 
BRANCH   7   9
ATOM      9  N   UNL     1      45.593   4.260  11.403  0.00  0.00    +0.000 NA
ATOM     10  H   UNL     1      45.640   5.256  11.166  0.00  0.00    +0.000 HD
BRANCH   9  11
ATOM     11  C   UNL     1      44.503   3.710  10.551  0.00  0.00    +0.000 C 
ATOM     12  C   UNL     1      43.839   2.524  11.249  0.00  0.00    +0.000 C 
BRANCH  11  17
ATOM     13  C   UNL     1      46.939   0.830   7.558  0.00  0.00    +0.000 C 
ATOM     14  C   UNL     1      46.187   2.038   7.966  0.00  0.00    +0.000 A 
ATOM     15  C   UNL     1      46.215   3.329   7.391  0.00  0.00    +0.000 A 
ATOM     16  C   UNL     1      45.462   4.111   8.235  0.00  0.00    +0.000 A 
ATOM     17  N   UNL     1      45.063   3.290   9.256  0.00  0.00    +0.000 N 
ATOM     18  N   UNL     1      45.424   2.000   9.064  0.00  0.00    +0.000 NA
ENDBRANCH  11  17
ENDBRANCH   9  11
ENDBRANCH   7   9
ENDBRANCH   1   7
BRANCH   4  19
ATOM     19  C   UNL     1      49.328   7.025  15.974  0.00  0.00    +0.000 C 
BRANCH  19  20
ATOM     20  N   UNL     1      50.401   6.125  16.293  0.00  0.00    +0.000 N 
ATOM     21  C   UNL     1      50.731   5.818  17.585  0.00  0.00    +0.000 C 
ATOM     22  O   UNL     1      50.209   6.370  18.549  0.00  0.00    +0.000 OA
ATOM     23  H   UNL     1      50.751   5.551  15.534  0.00  0.00    +0.000 HD
BRANCH  21  24
ATOM     24  C   UNL     1      51.764   4.793  17.751  0.00  0.00    +0.000 A 
ATOM     25  C   UNL     1      53.054   5.143  18.124  0.00  0.00    +0.000 A 
ATOM     26  S   UNL     1      54.083   3.800  18.347  0.00  0.00    +0.000 S 
ATOM     27  C   UNL     1      52.821   2.702  18.026  0.00  0.00    +0.000 A 
ATOM     28  N   UNL     1      52.984   1.365  18.185  0.00  0.00    +0.000 NA
ATOM     29  C   UNL     1      51.933   0.667  17.907  0.00  0.00    +0.000 A 
ATOM     30  N   UNL     1      50.751   1.171  17.446  0.00  0.00    +0.000 N 
ATOM     31  C   UNL     1      50.557   2.517  17.229  0.00  0.00    +0.000 A 
ATOM     32  O   UNL     1      49.517   2.924  16.716  0.00  0.00    +0.000 OA
ATOM     33  C   UNL     1      51.664   3.359  17.628  0.00  0.00    +0.000 A 
ATOM     34  H   UNL     1      49.995   0.566  17.171  0.00  0.00    +0.000 HD
ENDBRANCH  21  24
ENDBRANCH  19  20
ENDBRANCH   4  19
TORSDOF 7
ENDMDL
MODEL 7
REMARK VINA RESULT:    -6.625      2.990      3.891
REMARK INTER + INTRA:         -10.611
REMARK INTER:                  -9.199
REMARK INTRA:                  -1.412
REMARK UNBOUND:                -1.275
REMARK  Name = 
REMARK  10 active torsions:
REMARK  status: ('A' for Active; 'I' for Inactive)
REMARK    1  A    between atoms: C_1  and  C_2
REMARK    2  A    between atoms: N_5  and  C_6
REMARK    3  A    between atoms: C_6  and  C_7
REMARK    4  A    between atoms: C_6  and  N_8
REMARK    5  A    between atoms: N_8  and  C_9
REMARK    6  A    between atoms: C_9  and  C_10
REMARK    7  A    between atoms: C_9  and  C_11
REMARK    8  A    between atoms: C_14  and  C_15
REMARK    9  A    between atoms: C_15  and  N_16
REMARK   10  A    between atoms: C_17  and  C_19
REMARK                            x       y       z     vdW  Elec       q    Type
REMARK                         _______ _______ _______ _____ _____    ______ ____
ROOT
ATOM      1  C   UNL     1      46.643   7.755  12.233  0.00  0.00    +0.000 A 
ATOM      2  C   UNL     1      46.878   8.456  13.425  0.00  0.00    +0.000 A 
ATOM      3  C   UNL     1      48.180   8.725  13.848  0.00  0.00    +0.000 A 
ATOM      4  C   UNL     1      49.274   8.328  13.068  0.00  0.00    +0.000 A 
ATOM      5  C   UNL     1      49.041   7.578  11.908  0.00  0.00    +0.000 A 
ATOM      6  C   UNL     1      47.741   7.292  11.495  0.00  0.00    +0.000 A 
ENDROOT
BRANCH   1   7
ATOM      7  C   UNL     1      45.218   7.496  11.782  0.00  0.00    +0.000 C 
ATOM      8  C   UNL     1      44.506   8.824  11.485  0.00  0.00    +0.000 C 
BRANCH   7   9
ATOM      9  N   UNL     1      45.145   6.598  10.613  0.00  0.00    +0.000 NA
ATOM     10  H   UNL     1      44.694   7.126   9.859  0.00  0.00    +0.000 HD
BRANCH   9  11
ATOM     11  C   UNL     1      44.270   5.412  10.832  0.00  0.00    +0.000 C 
ATOM     12  C   UNL     1      44.258   5.038  12.314  0.00  0.00    +0.000 C 
BRANCH  11  17
ATOM     13  C   UNL     1      46.100   3.303   6.910  0.00  0.00    +0.000 C 
ATOM     14  C   UNL     1      45.521   3.367   8.270  0.00  0.00    +0.000 A 
ATOM     15  C   UNL     1      44.829   2.359   8.980  0.00  0.00    +0.000 A 
ATOM     16  C   UNL     1      44.372   2.978  10.121  0.00  0.00    +0.000 A 
ATOM     17  N   UNL     1      44.767   4.286  10.026  0.00  0.00    +0.000 N 
ATOM     18  N   UNL     1      45.544   4.522   8.943  0.00  0.00    +0.000 NA
ENDBRANCH  11  17
ENDBRANCH   9  11
ENDBRANCH   7   9
ENDBRANCH   1   7
BRANCH   4  19
ATOM     19  C   UNL     1      50.679   8.669  13.477  0.00  0.00    +0.000 C 
BRANCH  19  20
ATOM     20  N   UNL     1      51.228   7.638  14.314  0.00  0.00    +0.000 N 
ATOM     21  C   UNL     1      51.971   7.925  15.426  0.00  0.00    +0.000 C 
ATOM     22  O   UNL     1      52.308   9.068  15.718  0.00  0.00    +0.000 OA
ATOM     23  H   UNL     1      50.853   6.704  14.185  0.00  0.00    +0.000 HD
BRANCH  21  24
ATOM     24  C   UNL     1      52.358   6.775  16.247  0.00  0.00    +0.000 A 
ATOM     25  C   UNL     1      53.689   6.553  16.572  0.00  0.00    +0.000 A 
ATOM     26  S   UNL     1      53.920   5.214  17.604  0.00  0.00    +0.000 S 
ATOM     27  C   UNL     1      52.245   4.930  17.712  0.00  0.00    +0.000 A 
ATOM     28  N   UNL     1      51.734   4.002  18.559  0.00  0.00    +0.000 NA
ATOM     29  C   UNL     1      50.446   3.909  18.529  0.00  0.00    +0.000 A 
ATOM     30  N   UNL     1      49.623   4.623  17.706  0.00  0.00    +0.000 N 
ATOM     31  C   UNL     1      50.102   5.543  16.801  0.00  0.00    +0.000 A 
ATOM     32  O   UNL     1      49.343   6.090  16.004  0.00  0.00    +0.000 OA
ATOM     33  C   UNL     1      51.530   5.769  16.868  0.00  0.00    +0.000 A 
ATOM     34  H   UNL     1      48.633   4.446  17.674  0.00  0.00    +0.000 HD
ENDBRANCH  21  24
ENDBRANCH  19  20
ENDBRANCH   4  19
TORSDOF 7
ENDMDL
MODEL 8
REMARK VINA RESULT:    -6.604      3.250      9.103
REMARK INTER + INTRA:         -10.581
REMARK INTER:                  -8.970
REMARK INTRA:                  -1.611
REMARK UNBOUND:                -1.275
REMARK  Name = 
REMARK  10 active torsions:
REMARK  status: ('A' for Active; 'I' for Inactive)
REMARK    1  A    between atoms: C_1  and  C_2
REMARK    2  A    between atoms: N_5  and  C_6
REMARK    3  A    between atoms: C_6  and  C_7
REMARK    4  A    between atoms: C_6  and  N_8
REMARK    5  A    between atoms: N_8  and  C_9
REMARK    6  A    between atoms: C_9  and  C_10
REMARK    7  A    between atoms: C_9  and  C_11
REMARK    8  A    between atoms: C_14  and  C_15
REMARK    9  A    between atoms: C_15  and  N_16
REMARK   10  A    between atoms: C_17  and  C_19
REMARK                            x       y       z     vdW  Elec       q    Type
REMARK                         _______ _______ _______ _____ _____    ______ ____
ROOT
ATOM      1  C   UNL     1      49.241   7.869  16.543  0.00  0.00    +0.000 A 
ATOM      2  C   UNL     1      48.493   8.979  16.125  0.00  0.00    +0.000 A 
ATOM      3  C   UNL     1      47.916   9.012  14.854  0.00  0.00    +0.000 A 
ATOM      4  C   UNL     1      48.048   7.918  13.989  0.00  0.00    +0.000 A 
ATOM      5  C   UNL     1      48.843   6.835  14.384  0.00  0.00    +0.000 A 
ATOM      6  C   UNL     1      49.435   6.810  15.645  0.00  0.00    +0.000 A 
ENDROOT
BRANCH   1   7
ATOM      7  C   UNL     1      49.837   7.847  17.938  0.00  0.00    +0.000 C 
ATOM      8  C   UNL     1      49.074   8.814  18.856  0.00  0.00    +0.000 C 
BRANCH   7   9
ATOM      9  N   UNL     1      49.866   6.492  18.523  0.00  0.00    +0.000 NA
ATOM     10  H   UNL     1      50.208   5.859  17.793  0.00  0.00    +0.000 HD
BRANCH   9  11
ATOM     11  C   UNL     1      48.516   5.976  18.883  0.00  0.00    +0.000 C 
ATOM     12  C   UNL     1      48.422   5.759  20.392  0.00  0.00    +0.000 C 
BRANCH  11  17
ATOM     13  C   UNL     1      49.764   1.898  16.647  0.00  0.00    +0.000 C 
ATOM     14  C   UNL     1      48.844   2.948  17.140  0.00  0.00    +0.000 A 
ATOM     15  C   UNL     1      47.562   3.294  16.655  0.00  0.00    +0.000 A 
ATOM     16  C   UNL     1      47.211   4.425  17.355  0.00  0.00    +0.000 A 
ATOM     17  N   UNL     1      48.273   4.711  18.170  0.00  0.00    +0.000 N 
ATOM     18  N   UNL     1      49.245   3.771  18.115  0.00  0.00    +0.000 NA
ENDBRANCH  11  17
ENDBRANCH   9  11
ENDBRANCH   7   9
ENDBRANCH   1   7
BRANCH   4  19
ATOM     19  C   UNL     1      47.377   7.912  12.644  0.00  0.00    +0.000 C 
BRANCH  19  20
ATOM     20  N   UNL     1      46.765   6.638  12.388  0.00  0.00    +0.000 N 
ATOM     21  C   UNL     1      45.407   6.474  12.376  0.00  0.00    +0.000 C 
ATOM     22  O   UNL     1      44.631   7.372  12.688  0.00  0.00    +0.000 OA
ATOM     23  H   UNL     1      47.362   5.921  11.991  0.00  0.00    +0.000 HD
BRANCH  21  24
ATOM     24  C   UNL     1      44.929   5.147  11.980  0.00  0.00    +0.000 A 
ATOM     25  C   UNL     1      44.249   4.342  12.882  0.00  0.00    +0.000 A 
ATOM     26  S   UNL     1      43.703   2.875  12.202  0.00  0.00    +0.000 S 
ATOM     27  C   UNL     1      44.292   3.298  10.662  0.00  0.00    +0.000 A 
ATOM     28  N   UNL     1      44.035   2.538   9.568  0.00  0.00    +0.000 NA
ATOM     29  C   UNL     1      44.545   2.995   8.473  0.00  0.00    +0.000 A 
ATOM     30  N   UNL     1      45.322   4.113   8.372  0.00  0.00    +0.000 N 
ATOM     31  C   UNL     1      45.644   4.889   9.463  0.00  0.00    +0.000 A 
ATOM     32  O   UNL     1      46.429   5.828   9.352  0.00  0.00    +0.000 OA
ATOM     33  C   UNL     1      45.008   4.487  10.699  0.00  0.00    +0.000 A 
ATOM     34  H   UNL     1      45.757   4.372   7.502  0.00  0.00    +0.000 HD
ENDBRANCH  21  24
ENDBRANCH  19  20
ENDBRANCH   4  19
TORSDOF 7
ENDMDL
MODEL 9
REMARK VINA RESULT:    -6.263      3.442      5.827
REMARK INTER + INTRA:         -10.101
REMARK INTER:                  -8.806
REMARK INTRA:                  -1.295
REMARK UNBOUND:                -1.275
REMARK  Name = 
REMARK  10 active torsions:
REMARK  status: ('A' for Active; 'I' for Inactive)
REMARK    1  A    between atoms: C_1  and  C_2
REMARK    2  A    between atoms: N_5  and  C_6
REMARK    3  A    between atoms: C_6  and  C_7
REMARK    4  A    between atoms: C_6  and  N_8
REMARK    5  A    between atoms: N_8  and  C_9
REMARK    6  A    between atoms: C_9  and  C_10
REMARK    7  A    between atoms: C_9  and  C_11
REMARK    8  A    between atoms: C_14  and  C_15
REMARK    9  A    between atoms: C_15  and  N_16
REMARK   10  A    between atoms: C_17  and  C_19
REMARK                            x       y       z     vdW  Elec       q    Type
REMARK                         _______ _______ _______ _____ _____    ______ ____
ROOT
ATOM      1  C   UNL     1      48.177   7.562  13.881  0.00  0.00    +0.000 A 
ATOM      2  C   UNL     1      48.350   8.763  14.585  0.00  0.00    +0.000 A 
ATOM      3  C   UNL     1      48.680   8.752  15.941  0.00  0.00    +0.000 A 
ATOM      4  C   UNL     1      48.879   7.538  16.611  0.00  0.00    +0.000 A 
ATOM      5  C   UNL     1      48.649   6.339  15.923  0.00  0.00    +0.000 A 
ATOM      6  C   UNL     1      48.301   6.350  14.574  0.00  0.00    +0.000 A 
ENDROOT
BRANCH   1   7
ATOM      7  C   UNL     1      47.842   7.600  12.402  0.00  0.00    +0.000 C 
ATOM      8  C   UNL     1      49.111   7.863  11.577  0.00  0.00    +0.000 C 
BRANCH   7   9
ATOM      9  N   UNL     1      47.171   6.369  11.939  0.00  0.00    +0.000 NA
ATOM     10  H   UNL     1      47.683   6.043  11.112  0.00  0.00    +0.000 HD
BRANCH   9  11
ATOM     11  C   UNL     1      45.777   6.599  11.466  0.00  0.00    +0.000 C 
ATOM     12  C   UNL     1      45.328   8.014  11.829  0.00  0.00    +0.000 C 
BRANCH  11  17
ATOM     13  C   UNL     1      43.363   2.442  11.728  0.00  0.00    +0.000 C 
ATOM     14  C   UNL     1      43.785   3.794  12.155  0.00  0.00    +0.000 A 
ATOM     15  C   UNL     1      43.100   4.708  12.988  0.00  0.00    +0.000 A 
ATOM     16  C   UNL     1      43.846   5.863  12.939  0.00  0.00    +0.000 A 
ATOM     17  N   UNL     1      44.884   5.606  12.084  0.00  0.00    +0.000 N 
ATOM     18  N   UNL     1      44.912   4.320  11.663  0.00  0.00    +0.000 NA
ENDBRANCH  11  17
ENDBRANCH   9  11
ENDBRANCH   7   9
ENDBRANCH   1   7
BRANCH   4  19
ATOM     19  C   UNL     1      49.300   7.512  18.054  0.00  0.00    +0.000 C 
BRANCH  19  20
ATOM     20  N   UNL     1      50.405   6.614  18.244  0.00  0.00    +0.000 N 
ATOM     21  C   UNL     1      50.270   5.430  18.916  0.00  0.00    +0.000 C 
ATOM     22  O   UNL     1      49.233   5.111  19.490  0.00  0.00    +0.000 OA
ATOM     23  H   UNL     1      51.223   6.777  17.669  0.00  0.00    +0.000 HD
BRANCH  21  24
ATOM     24  C   UNL     1      51.452   4.564  18.923  0.00  0.00    +0.000 A 
ATOM     25  C   UNL     1      52.566   4.895  19.681  0.00  0.00    +0.000 A 
ATOM     26  S   UNL     1      53.800   3.718  19.620  0.00  0.00    +0.000 S 
ATOM     27  C   UNL     1      52.858   2.692  18.640  0.00  0.00    +0.000 A 
ATOM     28  N   UNL     1      53.264   1.436  18.328  0.00  0.00    +0.000 NA
ATOM     29  C   UNL     1      52.437   0.782  17.582  0.00  0.00    +0.000 A 
ATOM     30  N   UNL     1      51.265   1.275  17.083  0.00  0.00    +0.000 N 
ATOM     31  C   UNL     1      50.836   2.558  17.340  0.00  0.00    +0.000 A 
ATOM     32  O   UNL     1      49.830   3.002  16.791  0.00  0.00    +0.000 OA
ATOM     33  C   UNL     1      51.669   3.301  18.261  0.00  0.00    +0.000 A 
ATOM     34  H   UNL     1      50.704   0.742  16.442  0.00  0.00    +0.000 HD
ENDBRANCH  21  24
ENDBRANCH  19  20
ENDBRANCH   4  19
TORSDOF 7
ENDMDL
