MODEL 1
REMARK VINA RESULT:    -7.771      0.000      0.000
REMARK INTER + INTRA:         -13.224
REMARK INTER:                 -12.314
REMARK INTRA:                  -0.910
REMARK UNBOUND:                -0.910
REMARK  Name = 
REMARK  12 active torsions:
REMARK  status: ('A' for Active; 'I' for Inactive)
REMARK    1  A    between atoms: C_1  and  N_2
REMARK    2  A    between atoms: N_2  and  C_3
REMARK    3  A    between atoms: N_2  and  C_4
REMARK    4  A    between atoms: C_4  and  C_5
REMARK    5  A    between atoms: C_5  and  C_6
REMARK    6  A    between atoms: C_6  and  C_7
REMARK    7  A    between atoms: C_7  and  O_8
REMARK    8  A    between atoms: O_8  and  C_9
REMARK    9  A    between atoms: C_12  and  C_13
REMARK   10  A    between atoms: C_13  and  O_14
REMARK   11  A    between atoms: O_14  and  C_15
REMARK   12  A    between atoms: C_18  and  C_19
REMARK                            x       y       z     vdW  Elec       q    Type
REMARK                         _______ _______ _______ _____ _____    ______ ____
ROOT
ATOM      1  C   UNL     1      46.921   4.855  13.798  0.00  0.00    +0.000 A 
ATOM      2  C   UNL     1      46.052   5.882  13.434  0.00  0.00    +0.000 A 
ATOM      3  C   UNL     1      44.947   5.613  12.622  0.00  0.00    +0.000 A 
ATOM      4  C   UNL     1      44.689   4.312  12.172  0.00  0.00    +0.000 A 
ATOM      5  C   UNL     1      45.579   3.289  12.519  0.00  0.00    +0.000 A 
ATOM      6  C   UNL     1      46.683   3.561  13.332  0.00  0.00    +0.000 A 
ENDROOT
BRANCH   1   7
ATOM      7  O   UNL     1      48.021   4.986  14.598  0.00  0.00    +0.000 OA
BRANCH   7   8
ATOM      8  C   UNL     1      47.785   5.265  15.980  0.00  0.00    +0.000 C 
BRANCH   8   9
ATOM      9  C   UNL     1      47.120   4.050  16.620  0.00  0.00    +0.000 C 
BRANCH   9  10
ATOM     10  C   UNL     1      48.103   2.887  16.785  0.00  0.00    +0.000 C 
BRANCH  10  11
ATOM     11  C   UNL     1      49.268   3.218  17.729  0.00  0.00    +0.000 C 
BRANCH  11  13
ATOM     12  C   UNL     1      51.558   4.051  17.692  0.00  0.00    +0.000 C 
ATOM     13  N   UNL     1      50.599   3.112  17.108  0.00  0.00    +0.000 NA
ATOM     14  C   UNL     1      51.105   1.744  17.229  0.00  0.00    +0.000 C 
ENDBRANCH  11  13
ENDBRANCH  10  11
ENDBRANCH   9  10
ENDBRANCH   8   9
ENDBRANCH   7   8
ENDBRANCH   1   7
BRANCH   4  15
ATOM     15  C   UNL     1      43.473   4.027  11.327  0.00  0.00    +0.000 C 
BRANCH  15  16
ATOM     16  O   UNL     1      43.672   4.571  10.025  0.00  0.00    +0.000 OA
BRANCH  16  17
ATOM     17  C   UNL     1      44.617   3.962   9.244  0.00  0.00    +0.000 A 
ATOM     18  C   UNL     1      45.558   4.609   8.442  0.00  0.00    +0.000 A 
ATOM     19  C   UNL     1      46.462   3.862   7.678  0.00  0.00    +0.000 A 
ATOM     20  C   UNL     1      46.443   2.464   7.716  0.00  0.00    +0.000 A 
ATOM     21  C   UNL     1      45.497   1.813   8.517  0.00  0.00    +0.000 A 
ATOM     22  C   UNL     1      44.592   2.564   9.273  0.00  0.00    +0.000 A 
BRANCH  20  23
ATOM     23  C   UNL     1      47.414   1.724   6.868  0.00  0.00    +0.000 C 
ATOM     24  N   UNL     1      48.440   2.435   6.312  0.00  0.00    +0.000 N 
ATOM     25  O   UNL     1      47.286   0.527   6.643  0.00  0.00    +0.000 OA
ATOM     26  H   UNL     1      48.454   3.444   6.278  0.00  0.00    +0.000 HD
ATOM     27  H   UNL     1      49.028   1.933   5.658  0.00  0.00    +0.000 HD
ENDBRANCH  20  23
ENDBRANCH  16  17
ENDBRANCH  15  16
ENDBRANCH   4  15
TORSDOF 10
ENDMDL
MODEL 2
REMARK VINA RESULT:    -7.758      1.140      2.108
REMARK INTER + INTRA:         -13.204
REMARK INTER:                 -12.040
REMARK INTRA:                  -1.163
REMARK UNBOUND:                -0.910
REMARK  Name = 
REMARK  12 active torsions:
REMARK  status: ('A' for Active; 'I' for Inactive)
REMARK    1  A    between atoms: C_1  and  N_2
REMARK    2  A    between atoms: N_2  and  C_3
REMARK    3  A    between atoms: N_2  and  C_4
REMARK    4  A    between atoms: C_4  and  C_5
REMARK    5  A    between atoms: C_5  and  C_6
REMARK    6  A    between atoms: C_6  and  C_7
REMARK    7  A    between atoms: C_7  and  O_8
REMARK    8  A    between atoms: O_8  and  C_9
REMARK    9  A    between atoms: C_12  and  C_13
REMARK   10  A    between atoms: C_13  and  O_14
REMARK   11  A    between atoms: O_14  and  C_15
REMARK   12  A    between atoms: C_18  and  C_19
REMARK                            x       y       z     vdW  Elec       q    Type
REMARK                         _______ _______ _______ _____ _____    ______ ____
ROOT
ATOM      1  C   UNL     1      47.344   5.584  13.258  0.00  0.00    +0.000 A 
ATOM      2  C   UNL     1      46.746   4.358  13.539  0.00  0.00    +0.000 A 
ATOM      3  C   UNL     1      45.526   4.018  12.945  0.00  0.00    +0.000 A 
ATOM      4  C   UNL     1      44.896   4.895  12.054  0.00  0.00    +0.000 A 
ATOM      5  C   UNL     1      45.488   6.137  11.795  0.00  0.00    +0.000 A 
ATOM      6  C   UNL     1      46.708   6.473  12.390  0.00  0.00    +0.000 A 
ENDROOT
BRANCH   1   7
ATOM      7  O   UNL     1      48.538   6.022  13.758  0.00  0.00    +0.000 OA
BRANCH   7   8
ATOM      8  C   UNL     1      48.484   6.980  14.817  0.00  0.00    +0.000 C 
BRANCH   8   9
ATOM      9  C   UNL     1      49.827   6.991  15.540  0.00  0.00    +0.000 C 
BRANCH   9  10
ATOM     10  C   UNL     1      49.729   6.348  16.927  0.00  0.00    +0.000 C 
BRANCH  10  11
ATOM     11  C   UNL     1      48.599   5.315  17.029  0.00  0.00    +0.000 C 
BRANCH  11  13
ATOM     12  C   UNL     1      50.096   3.502  17.672  0.00  0.00    +0.000 C 
ATOM     13  N   UNL     1      49.022   3.928  16.773  0.00  0.00    +0.000 NA
ATOM     14  C   UNL     1      47.880   3.021  16.898  0.00  0.00    +0.000 C 
ENDBRANCH  11  13
ENDBRANCH  10  11
ENDBRANCH   9  10
ENDBRANCH   8   9
ENDBRANCH   7   8
ENDBRANCH   1   7
BRANCH   4  15
ATOM     15  C   UNL     1      43.599   4.504  11.390  0.00  0.00    +0.000 C 
BRANCH  15  16
ATOM     16  O   UNL     1      43.717   4.700   9.984  0.00  0.00    +0.000 OA
BRANCH  16  17
ATOM     17  C   UNL     1      44.547   3.842   9.313  0.00  0.00    +0.000 A 
ATOM     18  C   UNL     1      44.607   2.458   9.484  0.00  0.00    +0.000 A 
ATOM     19  C   UNL     1      45.516   1.697   8.741  0.00  0.00    +0.000 A 
ATOM     20  C   UNL     1      46.366   2.308   7.813  0.00  0.00    +0.000 A 
ATOM     21  C   UNL     1      46.310   3.696   7.642  0.00  0.00    +0.000 A 
ATOM     22  C   UNL     1      45.404   4.453   8.392  0.00  0.00    +0.000 A 
BRANCH  20  23
ATOM     23  C   UNL     1      47.324   1.451   7.067  0.00  0.00    +0.000 C 
ATOM     24  N   UNL     1      48.400   2.061   6.485  0.00  0.00    +0.000 N 
ATOM     25  O   UNL     1      47.145   0.246   6.943  0.00  0.00    +0.000 OA
ATOM     26  H   UNL     1      48.464   3.062   6.363  0.00  0.00    +0.000 HD
ATOM     27  H   UNL     1      48.982   1.476   5.898  0.00  0.00    +0.000 HD
ENDBRANCH  20  23
ENDBRANCH  16  17
ENDBRANCH  15  16
ENDBRANCH   4  15
TORSDOF 10
ENDMDL
MODEL 3
REMARK VINA RESULT:    -7.714      1.132      1.722
REMARK INTER + INTRA:         -13.133
REMARK INTER:                 -12.067
REMARK INTRA:                  -1.067
REMARK UNBOUND:                -0.910
REMARK  Name = 
REMARK  12 active torsions:
REMARK  status: ('A' for Active; 'I' for Inactive)
REMARK    1  A    between atoms: C_1  and  N_2
REMARK    2  A    between atoms: N_2  and  C_3
REMARK    3  A    between atoms: N_2  and  C_4
REMARK    4  A    between atoms: C_4  and  C_5
REMARK    5  A    between atoms: C_5  and  C_6
REMARK    6  A    between atoms: C_6  and  C_7
REMARK    7  A    between atoms: C_7  and  O_8
REMARK    8  A    between atoms: O_8  and  C_9
REMARK    9  A    between atoms: C_12  and  C_13
REMARK   10  A    between atoms: C_13  and  O_14
REMARK   11  A    between atoms: O_14  and  C_15
REMARK   12  A    between atoms: C_18  and  C_19
REMARK                            x       y       z     vdW  Elec       q    Type
REMARK                         _______ _______ _______ _____ _____    ______ ____
ROOT
ATOM      1  C   UNL     1      47.331   5.666  13.149  0.00  0.00    +0.000 A 
ATOM      2  C   UNL     1      46.693   6.465  12.203  0.00  0.00    +0.000 A 
ATOM      3  C   UNL     1      45.501   6.038  11.610  0.00  0.00    +0.000 A 
ATOM      4  C   UNL     1      44.925   4.812  11.964  0.00  0.00    +0.000 A 
ATOM      5  C   UNL     1      45.584   4.001  12.896  0.00  0.00    +0.000 A 
ATOM      6  C   UNL     1      46.775   4.431  13.487  0.00  0.00    +0.000 A 
ENDROOT
BRANCH   1   7
ATOM      7  O   UNL     1      48.485   5.979  13.810  0.00  0.00    +0.000 OA
BRANCH   7   8
ATOM      8  C   UNL     1      48.486   7.187  14.574  0.00  0.00    +0.000 C 
BRANCH   8   9
ATOM      9  C   UNL     1      49.382   6.997  15.794  0.00  0.00    +0.000 C 
BRANCH   9  10
ATOM     10  C   UNL     1      48.690   6.168  16.881  0.00  0.00    +0.000 C 
BRANCH  10  11
ATOM     11  C   UNL     1      49.405   4.840  17.166  0.00  0.00    +0.000 C 
BRANCH  11  13
ATOM     12  C   UNL     1      49.391   2.408  17.000  0.00  0.00    +0.000 C 
ATOM     13  N   UNL     1      48.714   3.654  16.634  0.00  0.00    +0.000 NA
ATOM     14  C   UNL     1      47.328   3.624  17.104  0.00  0.00    +0.000 C 
ENDBRANCH  11  13
ENDBRANCH  10  11
ENDBRANCH   9  10
ENDBRANCH   8   9
ENDBRANCH   7   8
ENDBRANCH   1   7
BRANCH   4  15
ATOM     15  C   UNL     1      43.620   4.377  11.346  0.00  0.00    +0.000 C 
BRANCH  15  16
ATOM     16  O   UNL     1      43.661   4.630   9.944  0.00  0.00    +0.000 OA
BRANCH  16  17
ATOM     17  C   UNL     1      44.584   3.924   9.221  0.00  0.00    +0.000 A 
ATOM     18  C   UNL     1      45.514   4.462   8.330  0.00  0.00    +0.000 A 
ATOM     19  C   UNL     1      46.395   3.621   7.641  0.00  0.00    +0.000 A 
ATOM     20  C   UNL     1      46.365   2.237   7.843  0.00  0.00    +0.000 A 
ATOM     21  C   UNL     1      45.431   1.695   8.733  0.00  0.00    +0.000 A 
ATOM     22  C   UNL     1      44.548   2.539   9.414  0.00  0.00    +0.000 A 
BRANCH  20  23
ATOM     23  C   UNL     1      47.312   1.392   7.069  0.00  0.00    +0.000 C 
ATOM     24  N   UNL     1      48.381   2.012   6.484  0.00  0.00    +0.000 N 
ATOM     25  O   UNL     1      47.128   0.190   6.925  0.00  0.00    +0.000 OA
ATOM     26  H   UNL     1      48.446   3.014   6.381  0.00  0.00    +0.000 HD
ATOM     27  H   UNL     1      48.954   1.437   5.879  0.00  0.00    +0.000 HD
ENDBRANCH  20  23
ENDBRANCH  16  17
ENDBRANCH  15  16
ENDBRANCH   4  15
TORSDOF 10
ENDMDL
MODEL 4
REMARK VINA RESULT:    -7.463      2.929      4.326
REMARK INTER + INTRA:         -12.737
REMARK INTER:                 -11.321
REMARK INTRA:                  -1.416
REMARK UNBOUND:                -0.910
REMARK  Name = 
REMARK  12 active torsions:
REMARK  status: ('A' for Active; 'I' for Inactive)
REMARK    1  A    between atoms: C_1  and  N_2
REMARK    2  A    between atoms: N_2  and  C_3
REMARK    3  A    between atoms: N_2  and  C_4
REMARK    4  A    between atoms: C_4  and  C_5
REMARK    5  A    between atoms: C_5  and  C_6
REMARK    6  A    between atoms: C_6  and  C_7
REMARK    7  A    between atoms: C_7  and  O_8
REMARK    8  A    between atoms: O_8  and  C_9
REMARK    9  A    between atoms: C_12  and  C_13
REMARK   10  A    between atoms: C_13  and  O_14
REMARK   11  A    between atoms: O_14  and  C_15
REMARK   12  A    between atoms: C_18  and  C_19
REMARK                            x       y       z     vdW  Elec       q    Type
REMARK                         _______ _______ _______ _____ _____    ______ ____
ROOT
ATOM      1  C   UNL     1      46.873   5.228  13.781  0.00  0.00    +0.000 A 
ATOM      2  C   UNL     1      45.763   5.900  13.273  0.00  0.00    +0.000 A 
ATOM      3  C   UNL     1      44.755   5.193  12.610  0.00  0.00    +0.000 A 
ATOM      4  C   UNL     1      44.838   3.803  12.458  0.00  0.00    +0.000 A 
ATOM      5  C   UNL     1      45.967   3.136  12.948  0.00  0.00    +0.000 A 
ATOM      6  C   UNL     1      46.973   3.846  13.610  0.00  0.00    +0.000 A 
ENDROOT
BRANCH   1   7
ATOM      7  O   UNL     1      47.911   5.801  14.461  0.00  0.00    +0.000 OA
BRANCH   7   8
ATOM      8  C   UNL     1      48.257   7.140  14.103  0.00  0.00    +0.000 C 
BRANCH   8   9
ATOM      9  C   UNL     1      49.140   7.104  12.860  0.00  0.00    +0.000 C 
BRANCH   9  10
ATOM     10  C   UNL     1      48.475   7.807  11.672  0.00  0.00    +0.000 C 
BRANCH  10  11
ATOM     11  C   UNL     1      47.544   8.951  12.100  0.00  0.00    +0.000 C 
BRANCH  11  13
ATOM     12  C   UNL     1      46.976  11.224  11.430  0.00  0.00    +0.000 C 
ATOM     13  N   UNL     1      48.052  10.296  11.782  0.00  0.00    +0.000 NA
ATOM     14  C   UNL     1      48.818  10.826  12.911  0.00  0.00    +0.000 C 
ENDBRANCH  11  13
ENDBRANCH  10  11
ENDBRANCH   9  10
ENDBRANCH   8   9
ENDBRANCH   7   8
ENDBRANCH   1   7
BRANCH   4  15
ATOM     15  C   UNL     1      43.728   3.045  11.774  0.00  0.00    +0.000 C 
BRANCH  15  16
ATOM     16  O   UNL     1      43.504   3.609  10.485  0.00  0.00    +0.000 OA
BRANCH  16  17
ATOM     17  C   UNL     1      44.463   3.371   9.538  0.00  0.00    +0.000 A 
ATOM     18  C   UNL     1      45.093   4.334   8.748  0.00  0.00    +0.000 A 
ATOM     19  C   UNL     1      46.051   3.951   7.803  0.00  0.00    +0.000 A 
ATOM     20  C   UNL     1      46.397   2.605   7.643  0.00  0.00    +0.000 A 
ATOM     21  C   UNL     1      45.764   1.637   8.431  0.00  0.00    +0.000 A 
ATOM     22  C   UNL     1      44.803   2.024   9.370  0.00  0.00    +0.000 A 
BRANCH  20  23
ATOM     23  C   UNL     1      47.407   2.257   6.609  0.00  0.00    +0.000 C 
ATOM     24  N   UNL     1      47.316   2.884   5.398  0.00  0.00    +0.000 N 
ATOM     25  O   UNL     1      48.270   1.414   6.816  0.00  0.00    +0.000 OA
ATOM     26  H   UNL     1      46.498   3.402   5.108  0.00  0.00    +0.000 HD
ATOM     27  H   UNL     1      47.948   2.557   4.678  0.00  0.00    +0.000 HD
ENDBRANCH  20  23
ENDBRANCH  16  17
ENDBRANCH  15  16
ENDBRANCH   4  15
TORSDOF 10
ENDMDL
MODEL 5
REMARK VINA RESULT:    -6.986      3.226      4.218
REMARK INTER + INTRA:         -11.981
REMARK INTER:                 -10.752
REMARK INTRA:                  -1.229
REMARK UNBOUND:                -0.910
REMARK  Name = 
REMARK  12 active torsions:
REMARK  status: ('A' for Active; 'I' for Inactive)
REMARK    1  A    between atoms: C_1  and  N_2
REMARK    2  A    between atoms: N_2  and  C_3
REMARK    3  A    between atoms: N_2  and  C_4
REMARK    4  A    between atoms: C_4  and  C_5
REMARK    5  A    between atoms: C_5  and  C_6
REMARK    6  A    between atoms: C_6  and  C_7
REMARK    7  A    between atoms: C_7  and  O_8
REMARK    8  A    between atoms: O_8  and  C_9
REMARK    9  A    between atoms: C_12  and  C_13
REMARK   10  A    between atoms: C_13  and  O_14
REMARK   11  A    between atoms: O_14  and  C_15
REMARK   12  A    between atoms: C_18  and  C_19
REMARK                            x       y       z     vdW  Elec       q    Type
REMARK                         _______ _______ _______ _____ _____    ______ ____
ROOT
ATOM      1  C   UNL     1      46.375   6.390  13.195  0.00  0.00    +0.000 A 
ATOM      2  C   UNL     1      46.726   5.051  13.352  0.00  0.00    +0.000 A 
ATOM      3  C   UNL     1      45.871   4.041  12.901  0.00  0.00    +0.000 A 
ATOM      4  C   UNL     1      44.658   4.358  12.276  0.00  0.00    +0.000 A 
ATOM      5  C   UNL     1      44.297   5.704  12.144  0.00  0.00    +0.000 A 
ATOM      6  C   UNL     1      45.155   6.711  12.596  0.00  0.00    +0.000 A 
ENDROOT
BRANCH   1   7
ATOM      7  O   UNL     1      47.130   7.463  13.576  0.00  0.00    +0.000 OA
BRANCH   7   8
ATOM      8  C   UNL     1      47.358   8.475  12.592  0.00  0.00    +0.000 C 
BRANCH   8   9
ATOM      9  C   UNL     1      48.805   8.947  12.700  0.00  0.00    +0.000 C 
BRANCH   9  10
ATOM     10  C   UNL     1      49.794   7.801  12.461  0.00  0.00    +0.000 C 
BRANCH  10  11
ATOM     11  C   UNL     1      50.448   7.856  11.073  0.00  0.00    +0.000 C 
BRANCH  11  13
ATOM     12  C   UNL     1      52.454   7.019   9.971  0.00  0.00    +0.000 C 
ATOM     13  N   UNL     1      51.919   7.792  11.094  0.00  0.00    +0.000 NA
ATOM     14  C   UNL     1      52.483   9.142  11.083  0.00  0.00    +0.000 C 
ENDBRANCH  11  13
ENDBRANCH  10  11
ENDBRANCH   9  10
ENDBRANCH   8   9
ENDBRANCH   7   8
ENDBRANCH   1   7
BRANCH   4  15
ATOM     15  C   UNL     1      43.760   3.262  11.759  0.00  0.00    +0.000 C 
BRANCH  15  16
ATOM     16  O   UNL     1      43.426   3.534  10.401  0.00  0.00    +0.000 OA
BRANCH  16  17
ATOM     17  C   UNL     1      44.414   3.334   9.475  0.00  0.00    +0.000 A 
ATOM     18  C   UNL     1      45.007   4.318   8.682  0.00  0.00    +0.000 A 
ATOM     19  C   UNL     1      46.001   3.972   7.760  0.00  0.00    +0.000 A 
ATOM     20  C   UNL     1      46.421   2.644   7.628  0.00  0.00    +0.000 A 
ATOM     21  C   UNL     1      45.825   1.656   8.419  0.00  0.00    +0.000 A 
ATOM     22  C   UNL     1      44.828   2.005   9.335  0.00  0.00    +0.000 A 
BRANCH  20  23
ATOM     23  C   UNL     1      47.467   2.335   6.618  0.00  0.00    +0.000 C 
ATOM     24  N   UNL     1      47.447   3.041   5.448  0.00  0.00    +0.000 N 
ATOM     25  O   UNL     1      48.298   1.455   6.806  0.00  0.00    +0.000 OA
ATOM     26  H   UNL     1      46.657   3.600   5.157  0.00  0.00    +0.000 HD
ATOM     27  H   UNL     1      48.102   2.743   4.736  0.00  0.00    +0.000 HD
ENDBRANCH  20  23
ENDBRANCH  16  17
ENDBRANCH  15  16
ENDBRANCH   4  15
TORSDOF 10
ENDMDL
MODEL 6
REMARK VINA RESULT:    -6.529      3.243      3.947
REMARK INTER + INTRA:         -11.257
REMARK INTER:                 -10.218
REMARK INTRA:                  -1.039
REMARK UNBOUND:                -0.910
REMARK  Name = 
REMARK  12 active torsions:
REMARK  status: ('A' for Active; 'I' for Inactive)
REMARK    1  A    between atoms: C_1  and  N_2
REMARK    2  A    between atoms: N_2  and  C_3
REMARK    3  A    between atoms: N_2  and  C_4
REMARK    4  A    between atoms: C_4  and  C_5
REMARK    5  A    between atoms: C_5  and  C_6
REMARK    6  A    between atoms: C_6  and  C_7
REMARK    7  A    between atoms: C_7  and  O_8
REMARK    8  A    between atoms: O_8  and  C_9
REMARK    9  A    between atoms: C_12  and  C_13
REMARK   10  A    between atoms: C_13  and  O_14
REMARK   11  A    between atoms: O_14  and  C_15
REMARK   12  A    between atoms: C_18  and  C_19
REMARK                            x       y       z     vdW  Elec       q    Type
REMARK                         _______ _______ _______ _____ _____    ______ ____
ROOT
ATOM      1  C   UNL     1      46.581   7.442  12.437  0.00  0.00    +0.000 A 
ATOM      2  C   UNL     1      45.305   7.797  12.006  0.00  0.00    +0.000 A 
ATOM      3  C   UNL     1      44.370   6.808  11.684  0.00  0.00    +0.000 A 
ATOM      4  C   UNL     1      44.696   5.451  11.801  0.00  0.00    +0.000 A 
ATOM      5  C   UNL     1      45.988   5.099  12.210  0.00  0.00    +0.000 A 
ATOM      6  C   UNL     1      46.920   6.091  12.531  0.00  0.00    +0.000 A 
ENDROOT
BRANCH   1   7
ATOM      7  O   UNL     1      47.573   8.310  12.797  0.00  0.00    +0.000 OA
BRANCH   7   8
ATOM      8  C   UNL     1      47.749   8.548  14.195  0.00  0.00    +0.000 C 
BRANCH   8   9
ATOM      9  C   UNL     1      49.059   7.905  14.642  0.00  0.00    +0.000 C 
BRANCH   9  10
ATOM     10  C   UNL     1      50.098   7.897  13.516  0.00  0.00    +0.000 C 
BRANCH  10  11
ATOM     11  C   UNL     1      51.132   9.024  13.649  0.00  0.00    +0.000 C 
BRANCH  11  13
ATOM     12  C   UNL     1      53.390   9.167  12.744  0.00  0.00    +0.000 C 
ATOM     13  N   UNL     1      51.958   9.232  12.448  0.00  0.00    +0.000 NA
ATOM     14  C   UNL     1      51.616   8.246  11.423  0.00  0.00    +0.000 C 
ENDBRANCH  11  13
ENDBRANCH  10  11
ENDBRANCH   9  10
ENDBRANCH   8   9
ENDBRANCH   7   8
ENDBRANCH   1   7
BRANCH   4  15
ATOM     15  C   UNL     1      43.669   4.392  11.488  0.00  0.00    +0.000 C 
BRANCH  15  16
ATOM     16  O   UNL     1      43.463   4.345  10.078  0.00  0.00    +0.000 OA
BRANCH  16  17
ATOM     17  C   UNL     1      44.380   3.636   9.349  0.00  0.00    +0.000 A 
ATOM     18  C   UNL     1      44.596   2.259   9.421  0.00  0.00    +0.000 A 
ATOM     19  C   UNL     1      45.580   1.659   8.627  0.00  0.00    +0.000 A 
ATOM     20  C   UNL     1      46.350   2.426   7.747  0.00  0.00    +0.000 A 
ATOM     21  C   UNL     1      46.138   3.808   7.676  0.00  0.00    +0.000 A 
ATOM     22  C   UNL     1      45.157   4.403   8.476  0.00  0.00    +0.000 A 
BRANCH  20  23
ATOM     23  C   UNL     1      47.394   1.738   6.943  0.00  0.00    +0.000 C 
ATOM     24  N   UNL     1      48.458   2.482   6.516  0.00  0.00    +0.000 N 
ATOM     25  O   UNL     1      47.294   0.556   6.640  0.00  0.00    +0.000 OA
ATOM     26  H   UNL     1      48.467   3.492   6.541  0.00  0.00    +0.000 HD
ATOM     27  H   UNL     1      49.102   2.019   5.886  0.00  0.00    +0.000 HD
ENDBRANCH  20  23
ENDBRANCH  16  17
ENDBRANCH  15  16
ENDBRANCH   4  15
TORSDOF 10
ENDMDL
MODEL 7
REMARK VINA RESULT:    -6.520      2.417      3.079
REMARK INTER + INTRA:         -11.242
REMARK INTER:                 -10.225
REMARK INTRA:                  -1.017
REMARK UNBOUND:                -0.910
REMARK  Name = 
REMARK  12 active torsions:
REMARK  status: ('A' for Active; 'I' for Inactive)
REMARK    1  A    between atoms: C_1  and  N_2
REMARK    2  A    between atoms: N_2  and  C_3
REMARK    3  A    between atoms: N_2  and  C_4
REMARK    4  A    between atoms: C_4  and  C_5
REMARK    5  A    between atoms: C_5  and  C_6
REMARK    6  A    between atoms: C_6  and  C_7
REMARK    7  A    between atoms: C_7  and  O_8
REMARK    8  A    between atoms: O_8  and  C_9
REMARK    9  A    between atoms: C_12  and  C_13
REMARK   10  A    between atoms: C_13  and  O_14
REMARK   11  A    between atoms: O_14  and  C_15
REMARK   12  A    between atoms: C_18  and  C_19
REMARK                            x       y       z     vdW  Elec       q    Type
REMARK                         _______ _______ _______ _____ _____    ______ ____
ROOT
ATOM      1  C   UNL     1      46.633   6.273  13.281  0.00  0.00    +0.000 A 
ATOM      2  C   UNL     1      46.972   4.940  13.502  0.00  0.00    +0.000 A 
ATOM      3  C   UNL     1      46.132   3.917  13.054  0.00  0.00    +0.000 A 
ATOM      4  C   UNL     1      44.947   4.213  12.368  0.00  0.00    +0.000 A 
ATOM      5  C   UNL     1      44.598   5.554  12.172  0.00  0.00    +0.000 A 
ATOM      6  C   UNL     1      45.440   6.575  12.620  0.00  0.00    +0.000 A 
ENDROOT
BRANCH   1   7
ATOM      7  O   UNL     1      47.376   7.358  13.652  0.00  0.00    +0.000 OA
BRANCH   7   8
ATOM      8  C   UNL     1      48.747   7.372  13.248  0.00  0.00    +0.000 C 
BRANCH   8   9
ATOM      9  C   UNL     1      49.626   7.278  14.491  0.00  0.00    +0.000 C 
BRANCH   9  10
ATOM     10  C   UNL     1      49.287   8.372  15.509  0.00  0.00    +0.000 C 
BRANCH  10  11
ATOM     11  C   UNL     1      49.944   8.139  16.877  0.00  0.00    +0.000 C 
BRANCH  11  13
ATOM     12  C   UNL     1      47.903   9.011  17.884  0.00  0.00    +0.000 C 
ATOM     13  N   UNL     1      48.993   8.040  17.996  0.00  0.00    +0.000 NA
ATOM     14  C   UNL     1      48.445   6.685  18.075  0.00  0.00    +0.000 C 
ENDBRANCH  11  13
ENDBRANCH  10  11
ENDBRANCH   9  10
ENDBRANCH   8   9
ENDBRANCH   7   8
ENDBRANCH   1   7
BRANCH   4  15
ATOM     15  C   UNL     1      44.066   3.101  11.857  0.00  0.00    +0.000 C 
BRANCH  15  16
ATOM     16  O   UNL     1      43.609   3.432  10.548  0.00  0.00    +0.000 OA
BRANCH  16  17
ATOM     17  C   UNL     1      44.516   3.304   9.531  0.00  0.00    +0.000 A 
ATOM     18  C   UNL     1      45.026   4.342   8.751  0.00  0.00    +0.000 A 
ATOM     19  C   UNL     1      45.941   4.069   7.728  0.00  0.00    +0.000 A 
ATOM     20  C   UNL     1      46.365   2.758   7.482  0.00  0.00    +0.000 A 
ATOM     21  C   UNL     1      45.852   1.715   8.261  0.00  0.00    +0.000 A 
ATOM     22  C   UNL     1      44.933   1.993   9.278  0.00  0.00    +0.000 A 
BRANCH  20  23
ATOM     23  C   UNL     1      47.324   2.527   6.370  0.00  0.00    +0.000 C 
ATOM     24  N   UNL     1      48.566   2.056   6.693  0.00  0.00    +0.000 N 
ATOM     25  O   UNL     1      47.031   2.779   5.209  0.00  0.00    +0.000 OA
ATOM     26  H   UNL     1      48.925   2.055   7.637  0.00  0.00    +0.000 HD
ATOM     27  H   UNL     1      49.234   2.003   5.934  0.00  0.00    +0.000 HD
ENDBRANCH  20  23
ENDBRANCH  16  17
ENDBRANCH  15  16
ENDBRANCH   4  15
TORSDOF 10
ENDMDL
MODEL 8
REMARK VINA RESULT:    -6.181      2.323      9.192
REMARK INTER + INTRA:         -10.705
REMARK INTER:                  -9.816
REMARK INTRA:                  -0.889
REMARK UNBOUND:                -0.910
REMARK  Name = 
REMARK  12 active torsions:
REMARK  status: ('A' for Active; 'I' for Inactive)
REMARK    1  A    between atoms: C_1  and  N_2
REMARK    2  A    between atoms: N_2  and  C_3
REMARK    3  A    between atoms: N_2  and  C_4
REMARK    4  A    between atoms: C_4  and  C_5
REMARK    5  A    between atoms: C_5  and  C_6
REMARK    6  A    between atoms: C_6  and  C_7
REMARK    7  A    between atoms: C_7  and  O_8
REMARK    8  A    between atoms: O_8  and  C_9
REMARK    9  A    between atoms: C_12  and  C_13
REMARK   10  A    between atoms: C_13  and  O_14
REMARK   11  A    between atoms: O_14  and  C_15
REMARK   12  A    between atoms: C_18  and  C_19
REMARK                            x       y       z     vdW  Elec       q    Type
REMARK                         _______ _______ _______ _____ _____    ______ ____
ROOT
ATOM      1  C   UNL     1      45.009   5.021  11.188  0.00  0.00    +0.000 A 
ATOM      2  C   UNL     1      45.838   6.073  10.805  0.00  0.00    +0.000 A 
ATOM      3  C   UNL     1      46.705   6.660  11.732  0.00  0.00    +0.000 A 
ATOM      4  C   UNL     1      46.764   6.193  13.051  0.00  0.00    +0.000 A 
ATOM      5  C   UNL     1      45.911   5.152  13.438  0.00  0.00    +0.000 A 
ATOM      6  C   UNL     1      45.045   4.568  12.508  0.00  0.00    +0.000 A 
ENDROOT
BRANCH   1   7
ATOM      7  O   UNL     1      44.136   4.356  10.375  0.00  0.00    +0.000 OA
BRANCH   7   8
ATOM      8  C   UNL     1      44.146   2.928  10.445  0.00  0.00    +0.000 C 
BRANCH   8   9
ATOM      9  C   UNL     1      44.571   2.373   9.089  0.00  0.00    +0.000 C 
BRANCH   9  10
ATOM     10  C   UNL     1      44.799   3.491   8.066  0.00  0.00    +0.000 C 
BRANCH  10  11
ATOM     11  C   UNL     1      46.232   3.515   7.516  0.00  0.00    +0.000 C 
BRANCH  11  13
ATOM     12  C   UNL     1      46.970   2.904   5.276  0.00  0.00    +0.000 C 
ATOM     13  N   UNL     1      46.543   2.416   6.588  0.00  0.00    +0.000 NA
ATOM     14  C   UNL     1      47.578   1.551   7.158  0.00  0.00    +0.000 C 
ENDBRANCH  11  13
ENDBRANCH  10  11
ENDBRANCH   9  10
ENDBRANCH   8   9
ENDBRANCH   7   8
ENDBRANCH   1   7
BRANCH   4  15
ATOM     15  C   UNL     1      47.730   6.807  14.033  0.00  0.00    +0.000 C 
BRANCH  15  16
ATOM     16  O   UNL     1      48.540   5.779  14.596  0.00  0.00    +0.000 OA
BRANCH  16  17
ATOM     17  C   UNL     1      48.404   5.559  15.940  0.00  0.00    +0.000 A 
ATOM     18  C   UNL     1      47.789   4.455  16.532  0.00  0.00    +0.000 A 
ATOM     19  C   UNL     1      47.704   4.361  17.926  0.00  0.00    +0.000 A 
ATOM     20  C   UNL     1      48.241   5.363  18.742  0.00  0.00    +0.000 A 
ATOM     21  C   UNL     1      48.855   6.473  18.150  0.00  0.00    +0.000 A 
ATOM     22  C   UNL     1      48.932   6.565  16.757  0.00  0.00    +0.000 A 
BRANCH  20  23
ATOM     23  C   UNL     1      48.104   5.218  20.215  0.00  0.00    +0.000 C 
ATOM     24  N   UNL     1      47.020   5.799  20.810  0.00  0.00    +0.000 N 
ATOM     25  O   UNL     1      48.946   4.632  20.883  0.00  0.00    +0.000 OA
ATOM     26  H   UNL     1      46.435   6.478  20.343  0.00  0.00    +0.000 HD
ATOM     27  H   UNL     1      47.000   5.776  21.822  0.00  0.00    +0.000 HD
ENDBRANCH  20  23
ENDBRANCH  16  17
ENDBRANCH  15  16
ENDBRANCH   4  15
TORSDOF 10
ENDMDL
MODEL 9
REMARK VINA RESULT:    -5.805      3.136      8.877
REMARK INTER + INTRA:         -10.109
REMARK INTER:                  -9.194
REMARK INTRA:                  -0.916
REMARK UNBOUND:                -0.910
REMARK  Name = 
REMARK  12 active torsions:
REMARK  status: ('A' for Active; 'I' for Inactive)
REMARK    1  A    between atoms: C_1  and  N_2
REMARK    2  A    between atoms: N_2  and  C_3
REMARK    3  A    between atoms: N_2  and  C_4
REMARK    4  A    between atoms: C_4  and  C_5
REMARK    5  A    between atoms: C_5  and  C_6
REMARK    6  A    between atoms: C_6  and  C_7
REMARK    7  A    between atoms: C_7  and  O_8
REMARK    8  A    between atoms: O_8  and  C_9
REMARK    9  A    between atoms: C_12  and  C_13
REMARK   10  A    between atoms: C_13  and  O_14
REMARK   11  A    between atoms: O_14  and  C_15
REMARK   12  A    between atoms: C_18  and  C_19
REMARK                            x       y       z     vdW  Elec       q    Type
REMARK                         _______ _______ _______ _____ _____    ______ ____
ROOT
ATOM      1  C   UNL     1      47.342   5.927  13.711  0.00  0.00    +0.000 A 
ATOM      2  C   UNL     1      48.258   6.658  14.463  0.00  0.00    +0.000 A 
ATOM      3  C   UNL     1      48.641   6.214  15.733  0.00  0.00    +0.000 A 
ATOM      4  C   UNL     1      48.121   5.026  16.261  0.00  0.00    +0.000 A 
ATOM      5  C   UNL     1      47.181   4.308  15.512  0.00  0.00    +0.000 A 
ATOM      6  C   UNL     1      46.801   4.755  14.243  0.00  0.00    +0.000 A 
ENDROOT
BRANCH   1   7
ATOM      7  O   UNL     1      46.904   6.244  12.456  0.00  0.00    +0.000 OA
BRANCH   7   8
ATOM      8  C   UNL     1      45.927   7.283  12.356  0.00  0.00    +0.000 C 
BRANCH   8   9
ATOM      9  C   UNL     1      44.859   6.857  11.352  0.00  0.00    +0.000 C 
BRANCH   9  10
ATOM     10  C   UNL     1      43.959   5.753  11.917  0.00  0.00    +0.000 C 
BRANCH  10  11
ATOM     11  C   UNL     1      43.248   4.944  10.824  0.00  0.00    +0.000 C 
BRANCH  11  13
ATOM     12  C   UNL     1      44.233   2.837  10.094  0.00  0.00    +0.000 C 
ATOM     13  N   UNL     1      43.301   3.485  11.019  0.00  0.00    +0.000 NA
ATOM     14  C   UNL     1      43.673   3.174  12.400  0.00  0.00    +0.000 C 
ENDBRANCH  11  13
ENDBRANCH  10  11
ENDBRANCH   9  10
ENDBRANCH   8   9
ENDBRANCH   7   8
ENDBRANCH   1   7
BRANCH   4  15
ATOM     15  C   UNL     1      48.569   4.536  17.615  0.00  0.00    +0.000 C 
BRANCH  15  16
ATOM     16  O   UNL     1      49.940   4.874  17.804  0.00  0.00    +0.000 OA
BRANCH  16  17
ATOM     17  C   UNL     1      50.831   3.835  17.815  0.00  0.00    +0.000 A 
ATOM     18  C   UNL     1      52.172   3.909  18.195  0.00  0.00    +0.000 A 
ATOM     19  C   UNL     1      52.980   2.767  18.145  0.00  0.00    +0.000 A 
ATOM     20  C   UNL     1      52.456   1.540  17.726  0.00  0.00    +0.000 A 
ATOM     21  C   UNL     1      51.113   1.465  17.341  0.00  0.00    +0.000 A 
ATOM     22  C   UNL     1      50.310   2.609  17.387  0.00  0.00    +0.000 A 
BRANCH  20  23
ATOM     23  C   UNL     1      53.367   0.367  17.674  0.00  0.00    +0.000 C 
ATOM     24  N   UNL     1      53.109  -0.674  18.522  0.00  0.00    +0.000 N 
ATOM     25  O   UNL     1      54.337   0.341  16.927  0.00  0.00    +0.000 OA
ATOM     26  H   UNL     1      52.473  -0.601  19.303  0.00  0.00    +0.000 HD
ATOM     27  H   UNL     1      53.798  -1.415  18.542  0.00  0.00    +0.000 HD
ENDBRANCH  20  23
ENDBRANCH  16  17
ENDBRANCH  15  16
ENDBRANCH   4  15
TORSDOF 10
ENDMDL
