MODEL 1
REMARK VINA RESULT:    -8.188      0.000      0.000
REMARK INTER + INTRA:         -11.726
REMARK INTER:                 -10.581
REMARK INTRA:                  -1.146
REMARK UNBOUND:                -1.146
REMARK  Name = 
REMARK  6 active torsions:
REMARK  status: ('A' for Active; 'I' for Inactive)
REMARK    1  A    between atoms: C_1  and  C_2
REMARK    2  A    between atoms: C_4  and  C_5
REMARK    3  A    between atoms: C_10  and  N_11
REMARK    4  A    between atoms: N_11  and  C_12
REMARK    5  A    between atoms: C_12  and  C_13
REMARK    6  A    between atoms: C_17  and  C_18
REMARK                            x       y       z     vdW  Elec       q    Type
REMARK                         _______ _______ _______ _____ _____    ______ ____
ROOT
ATOM      1  N   UNL     1      44.196   6.581  12.625  0.00  0.00    +0.000 N 
ATOM      2  H   UNL     1      43.925   5.972  13.391  0.00  0.00    +0.000 HD
ENDROOT
BRANCH   1   9
ATOM      3  C   UNL     1      46.076   4.554  13.660  0.00  0.00    +0.000 C 
ATOM      4  C   UNL     1      46.500   5.892  13.113  0.00  0.00    +0.000 A 
ATOM      5  C   UNL     1      47.877   6.205  13.145  0.00  0.00    +0.000 A 
ATOM      6  C   UNL     1      48.367   7.430  12.671  0.00  0.00    +0.000 A 
ATOM      7  C   UNL     1      47.459   8.359  12.173  0.00  0.00    +0.000 A 
ATOM      8  C   UNL     1      46.093   8.059  12.151  0.00  0.00    +0.000 A 
ATOM      9  C   UNL     1      45.581   6.825  12.585  0.00  0.00    +0.000 A 
BRANCH   6  10
ATOM     10  C   UNL     1      49.830   7.689  12.741  0.00  0.00    +0.000 C 
ATOM     11  N   UNL     1      50.615   7.328  11.682  0.00  0.00    +0.000 N 
ATOM     12  O   UNL     1      50.341   8.213  13.728  0.00  0.00    +0.000 OA
ATOM     13  H   UNL     1      50.292   6.889  10.836  0.00  0.00    +0.000 HD
ATOM     14  H   UNL     1      51.605   7.520  11.766  0.00  0.00    +0.000 HD
ENDBRANCH   6  10
ENDBRANCH   1   9
BRANCH   1  15
ATOM     15  C   UNL     1      43.504   6.297  11.369  0.00  0.00    +0.000 C 
BRANCH  15  16
ATOM     16  C   UNL     1      43.671   4.870  10.935  0.00  0.00    +0.000 A 
ATOM     17  C   UNL     1      43.066   3.835  11.638  0.00  0.00    +0.000 A 
ATOM     18  N   UNL     1      43.249   2.529  11.360  0.00  0.00    +0.000 NA
ATOM     19  C   UNL     1      44.082   2.238  10.330  0.00  0.00    +0.000 A 
ATOM     20  C   UNL     1      44.748   3.178   9.540  0.00  0.00    +0.000 A 
ATOM     21  C   UNL     1      44.520   4.519   9.879  0.00  0.00    +0.000 A 
BRANCH  20  22
ATOM     22  C   UNL     1      45.625   2.798   8.414  0.00  0.00    +0.000 A 
ATOM     23  C   UNL     1      46.005   3.726   7.434  0.00  0.00    +0.000 A 
ATOM     24  C   UNL     1      46.860   3.332   6.415  0.00  0.00    +0.000 A 
ATOM     25  N   UNL     1      47.367   2.090   6.299  0.00  0.00    +0.000 NA
ATOM     26  C   UNL     1      46.998   1.200   7.241  0.00  0.00    +0.000 A 
ATOM     27  C   UNL     1      46.140   1.499   8.290  0.00  0.00    +0.000 A 
ENDBRANCH  20  22
ENDBRANCH  15  16
ENDBRANCH   1  15
TORSDOF 5
ENDMDL
MODEL 2
REMARK VINA RESULT:    -7.975      0.689      1.532
REMARK INTER + INTRA:         -11.452
REMARK INTER:                 -10.635
REMARK INTRA:                  -0.817
REMARK UNBOUND:                -1.146
REMARK  Name = 
REMARK  6 active torsions:
REMARK  status: ('A' for Active; 'I' for Inactive)
REMARK    1  A    between atoms: C_1  and  C_2
REMARK    2  A    between atoms: C_4  and  C_5
REMARK    3  A    between atoms: C_10  and  N_11
REMARK    4  A    between atoms: N_11  and  C_12
REMARK    5  A    between atoms: C_12  and  C_13
REMARK    6  A    between atoms: C_17  and  C_18
REMARK                            x       y       z     vdW  Elec       q    Type
REMARK                         _______ _______ _______ _____ _____    ______ ____
ROOT
ATOM      1  N   UNL     1      43.960   6.596  12.510  0.00  0.00    +0.000 N 
ATOM      2  H   UNL     1      43.442   6.013  13.158  0.00  0.00    +0.000 HD
ENDROOT
BRANCH   1   9
ATOM      3  C   UNL     1      45.236   9.251  12.310  0.00  0.00    +0.000 C 
ATOM      4  C   UNL     1      45.956   8.004  12.750  0.00  0.00    +0.000 A 
ATOM      5  C   UNL     1      47.335   8.111  13.037  0.00  0.00    +0.000 A 
ATOM      6  C   UNL     1      48.094   7.004  13.440  0.00  0.00    +0.000 A 
ATOM      7  C   UNL     1      47.462   5.768  13.542  0.00  0.00    +0.000 A 
ATOM      8  C   UNL     1      46.099   5.654  13.247  0.00  0.00    +0.000 A 
ATOM      9  C   UNL     1      45.310   6.754  12.876  0.00  0.00    +0.000 A 
BRANCH   6  10
ATOM     10  C   UNL     1      49.543   7.195  13.721  0.00  0.00    +0.000 C 
ATOM     11  N   UNL     1      50.351   7.666  12.724  0.00  0.00    +0.000 N 
ATOM     12  O   UNL     1      50.021   6.935  14.821  0.00  0.00    +0.000 OA
ATOM     13  H   UNL     1      50.055   7.899  11.790  0.00  0.00    +0.000 HD
ATOM     14  H   UNL     1      51.330   7.782  12.953  0.00  0.00    +0.000 HD
ENDBRANCH   6  10
ENDBRANCH   1   9
BRANCH   1  15
ATOM     15  C   UNL     1      43.647   6.344  11.104  0.00  0.00    +0.000 C 
BRANCH  15  16
ATOM     16  C   UNL     1      43.776   4.893  10.742  0.00  0.00    +0.000 A 
ATOM     17  C   UNL     1      43.117   3.914  11.473  0.00  0.00    +0.000 A 
ATOM     18  N   UNL     1      43.263   2.590  11.262  0.00  0.00    +0.000 NA
ATOM     19  C   UNL     1      44.113   2.224  10.270  0.00  0.00    +0.000 A 
ATOM     20  C   UNL     1      44.831   3.103   9.457  0.00  0.00    +0.000 A 
ATOM     21  C   UNL     1      44.641   4.466   9.728  0.00  0.00    +0.000 A 
BRANCH  20  22
ATOM     22  C   UNL     1      45.725   2.641   8.376  0.00  0.00    +0.000 A 
ATOM     23  C   UNL     1      46.245   3.530   7.424  0.00  0.00    +0.000 A 
ATOM     24  C   UNL     1      47.110   3.057   6.448  0.00  0.00    +0.000 A 
ATOM     25  N   UNL     1      47.499   1.771   6.349  0.00  0.00    +0.000 NA
ATOM     26  C   UNL     1      46.995   0.920   7.264  0.00  0.00    +0.000 A 
ATOM     27  C   UNL     1      46.117   1.299   8.269  0.00  0.00    +0.000 A 
ENDBRANCH  20  22
ENDBRANCH  15  16
ENDBRANCH   1  15
TORSDOF 5
ENDMDL
MODEL 3
REMARK VINA RESULT:    -7.896      2.646      6.630
REMARK INTER + INTRA:         -11.350
REMARK INTER:                 -10.413
REMARK INTRA:                  -0.937
REMARK UNBOUND:                -1.146
REMARK  Name = 
REMARK  6 active torsions:
REMARK  status: ('A' for Active; 'I' for Inactive)
REMARK    1  A    between atoms: C_1  and  C_2
REMARK    2  A    between atoms: C_4  and  C_5
REMARK    3  A    between atoms: C_10  and  N_11
REMARK    4  A    between atoms: N_11  and  C_12
REMARK    5  A    between atoms: C_12  and  C_13
REMARK    6  A    between atoms: C_17  and  C_18
REMARK                            x       y       z     vdW  Elec       q    Type
REMARK                         _______ _______ _______ _____ _____    ______ ____
ROOT
ATOM      1  N   UNL     1      43.804   4.809  10.190  0.00  0.00    +0.000 N 
ATOM      2  H   UNL     1      42.874   4.954   9.809  0.00  0.00    +0.000 HD
ENDROOT
BRANCH   1   9
ATOM      3  C   UNL     1      43.930   1.873  10.474  0.00  0.00    +0.000 C 
ATOM      4  C   UNL     1      44.744   2.656   9.479  0.00  0.00    +0.000 A 
ATOM      5  C   UNL     1      45.654   1.941   8.669  0.00  0.00    +0.000 A 
ATOM      6  C   UNL     1      46.465   2.583   7.724  0.00  0.00    +0.000 A 
ATOM      7  C   UNL     1      46.372   3.966   7.600  0.00  0.00    +0.000 A 
ATOM      8  C   UNL     1      45.481   4.681   8.408  0.00  0.00    +0.000 A 
ATOM      9  C   UNL     1      44.632   4.057   9.336  0.00  0.00    +0.000 A 
BRANCH   6  10
ATOM     10  C   UNL     1      47.402   1.761   6.911  0.00  0.00    +0.000 C 
ATOM     11  N   UNL     1      48.551   2.338   6.446  0.00  0.00    +0.000 N 
ATOM     12  O   UNL     1      47.160   0.586   6.649  0.00  0.00    +0.000 OA
ATOM     13  H   UNL     1      48.833   3.292   6.600  0.00  0.00    +0.000 HD
ATOM     14  H   UNL     1      49.162   1.747   5.896  0.00  0.00    +0.000 HD
ENDBRANCH   6  10
ENDBRANCH   1   9
BRANCH   1  15
ATOM     15  C   UNL     1      44.368   5.988  10.845  0.00  0.00    +0.000 C 
BRANCH  15  16
ATOM     16  C   UNL     1      45.363   5.628  11.909  0.00  0.00    +0.000 A 
ATOM     17  C   UNL     1      45.092   4.624  12.829  0.00  0.00    +0.000 A 
ATOM     18  N   UNL     1      45.899   4.314  13.865  0.00  0.00    +0.000 NA
ATOM     19  C   UNL     1      47.033   5.046  13.992  0.00  0.00    +0.000 A 
ATOM     20  C   UNL     1      47.428   6.077  13.136  0.00  0.00    +0.000 A 
ATOM     21  C   UNL     1      46.547   6.355  12.081  0.00  0.00    +0.000 A 
BRANCH  20  22
ATOM     22  C   UNL     1      48.690   6.824  13.314  0.00  0.00    +0.000 A 
ATOM     23  C   UNL     1      49.364   7.395  12.225  0.00  0.00    +0.000 A 
ATOM     24  C   UNL     1      50.527   8.118  12.445  0.00  0.00    +0.000 A 
ATOM     25  N   UNL     1      51.067   8.320  13.662  0.00  0.00    +0.000 NA
ATOM     26  C   UNL     1      50.417   7.767  14.705  0.00  0.00    +0.000 A 
ATOM     27  C   UNL     1      49.256   7.020  14.582  0.00  0.00    +0.000 A 
ENDBRANCH  20  22
ENDBRANCH  15  16
ENDBRANCH   1  15
TORSDOF 5
ENDMDL
MODEL 4
REMARK VINA RESULT:    -7.408      1.977      2.639
REMARK INTER + INTRA:         -10.719
REMARK INTER:                 -10.119
REMARK INTRA:                  -0.600
REMARK UNBOUND:                -1.146
REMARK  Name = 
REMARK  6 active torsions:
REMARK  status: ('A' for Active; 'I' for Inactive)
REMARK    1  A    between atoms: C_1  and  C_2
REMARK    2  A    between atoms: C_4  and  C_5
REMARK    3  A    between atoms: C_10  and  N_11
REMARK    4  A    between atoms: N_11  and  C_12
REMARK    5  A    between atoms: C_12  and  C_13
REMARK    6  A    between atoms: C_17  and  C_18
REMARK                            x       y       z     vdW  Elec       q    Type
REMARK                         _______ _______ _______ _____ _____    ______ ____
ROOT
ATOM      1  N   UNL     1      46.119   6.605  11.557  0.00  0.00    +0.000 N 
ATOM      2  H   UNL     1      46.421   7.507  11.204  0.00  0.00    +0.000 HD
ENDROOT
BRANCH   1   9
ATOM      3  C   UNL     1      48.301   8.265  12.650  0.00  0.00    +0.000 C 
ATOM      4  C   UNL     1      47.745   7.047  13.340  0.00  0.00    +0.000 A 
ATOM      5  C   UNL     1      48.340   6.657  14.560  0.00  0.00    +0.000 A 
ATOM      6  C   UNL     1      47.901   5.531  15.270  0.00  0.00    +0.000 A 
ATOM      7  C   UNL     1      46.859   4.777  14.738  0.00  0.00    +0.000 A 
ATOM      8  C   UNL     1      46.274   5.152  13.524  0.00  0.00    +0.000 A 
ATOM      9  C   UNL     1      46.671   6.296  12.813  0.00  0.00    +0.000 A 
BRANCH   6  10
ATOM     10  C   UNL     1      48.581   5.181  16.546  0.00  0.00    +0.000 C 
ATOM     11  N   UNL     1      47.817   4.878  17.638  0.00  0.00    +0.000 N 
ATOM     12  O   UNL     1      49.806   5.165  16.635  0.00  0.00    +0.000 OA
ATOM     13  H   UNL     1      46.811   4.871  17.666  0.00  0.00    +0.000 HD
ATOM     14  H   UNL     1      48.315   4.645  18.488  0.00  0.00    +0.000 HD
ENDBRANCH   6  10
ENDBRANCH   1   9
BRANCH   1  15
ATOM     15  C   UNL     1      44.701   6.325  11.332  0.00  0.00    +0.000 C 
BRANCH  15  16
ATOM     16  C   UNL     1      44.474   4.955  10.762  0.00  0.00    +0.000 A 
ATOM     17  C   UNL     1      43.557   4.085  11.338  0.00  0.00    +0.000 A 
ATOM     18  N   UNL     1      43.371   2.812  10.935  0.00  0.00    +0.000 NA
ATOM     19  C   UNL     1      44.142   2.382   9.906  0.00  0.00    +0.000 A 
ATOM     20  C   UNL     1      45.095   3.152   9.235  0.00  0.00    +0.000 A 
ATOM     21  C   UNL     1      45.245   4.466   9.701  0.00  0.00    +0.000 A 
BRANCH  20  22
ATOM     22  C   UNL     1      45.888   2.632   8.102  0.00  0.00    +0.000 A 
ATOM     23  C   UNL     1      46.223   3.443   7.008  0.00  0.00    +0.000 A 
ATOM     24  C   UNL     1      47.001   2.921   5.985  0.00  0.00    +0.000 A 
ATOM     25  N   UNL     1      47.473   1.660   5.968  0.00  0.00    +0.000 NA
ATOM     26  C   UNL     1      47.147   0.884   7.021  0.00  0.00    +0.000 A 
ATOM     27  C   UNL     1      46.367   1.314   8.083  0.00  0.00    +0.000 A 
ENDBRANCH  20  22
ENDBRANCH  15  16
ENDBRANCH   1  15
TORSDOF 5
ENDMDL
MODEL 5
REMARK VINA RESULT:    -6.555      2.480      3.123
REMARK INTER + INTRA:          -9.616
REMARK INTER:                  -8.941
REMARK INTRA:                  -0.675
REMARK UNBOUND:                -1.146
REMARK  Name = 
REMARK  6 active torsions:
REMARK  status: ('A' for Active; 'I' for Inactive)
REMARK    1  A    between atoms: C_1  and  C_2
REMARK    2  A    between atoms: C_4  and  C_5
REMARK    3  A    between atoms: C_10  and  N_11
REMARK    4  A    between atoms: N_11  and  C_12
REMARK    5  A    between atoms: C_12  and  C_13
REMARK    6  A    between atoms: C_17  and  C_18
REMARK                            x       y       z     vdW  Elec       q    Type
REMARK                         _______ _______ _______ _____ _____    ______ ____
ROOT
ATOM      1  N   UNL     1      46.320   3.695  13.466  0.00  0.00    +0.000 N 
ATOM      2  H   UNL     1      46.899   3.500  12.655  0.00  0.00    +0.000 HD
ENDROOT
BRANCH   1   9
ATOM      3  C   UNL     1      47.543   6.267  12.690  0.00  0.00    +0.000 C 
ATOM      4  C   UNL     1      47.611   5.690  14.080  0.00  0.00    +0.000 A 
ATOM      5  C   UNL     1      48.345   6.406  15.051  0.00  0.00    +0.000 A 
ATOM      6  C   UNL     1      48.477   5.942  16.368  0.00  0.00    +0.000 A 
ATOM      7  C   UNL     1      47.875   4.735  16.709  0.00  0.00    +0.000 A 
ATOM      8  C   UNL     1      47.157   4.016  15.748  0.00  0.00    +0.000 A 
ATOM      9  C   UNL     1      46.980   4.476  14.433  0.00  0.00    +0.000 A 
BRANCH   6  10
ATOM     10  C   UNL     1      49.269   6.751  17.333  0.00  0.00    +0.000 C 
ATOM     11  N   UNL     1      48.880   8.035  17.592  0.00  0.00    +0.000 N 
ATOM     12  O   UNL     1      50.260   6.289  17.893  0.00  0.00    +0.000 OA
ATOM     13  H   UNL     1      48.091   8.504  17.180  0.00  0.00    +0.000 HD
ATOM     14  H   UNL     1      49.444   8.553  18.254  0.00  0.00    +0.000 HD
ENDBRANCH   6  10
ENDBRANCH   1   9
BRANCH   1  15
ATOM     15  C   UNL     1      44.932   4.017  13.141  0.00  0.00    +0.000 C 
BRANCH  15  16
ATOM     16  C   UNL     1      44.716   4.185  11.665  0.00  0.00    +0.000 A 
ATOM     17  C   UNL     1      43.708   5.009  11.181  0.00  0.00    +0.000 A 
ATOM     18  N   UNL     1      43.400   5.132   9.874  0.00  0.00    +0.000 NA
ATOM     19  C   UNL     1      44.133   4.394   9.004  0.00  0.00    +0.000 A 
ATOM     20  C   UNL     1      45.175   3.533   9.356  0.00  0.00    +0.000 A 
ATOM     21  C   UNL     1      45.446   3.444  10.729  0.00  0.00    +0.000 A 
BRANCH  20  22
ATOM     22  C   UNL     1      45.954   2.772   8.358  0.00  0.00    +0.000 A 
ATOM     23  C   UNL     1      46.687   3.417   7.351  0.00  0.00    +0.000 A 
ATOM     24  C   UNL     1      47.433   2.661   6.459  0.00  0.00    +0.000 A 
ATOM     25  N   UNL     1      47.508   1.317   6.493  0.00  0.00    +0.000 NA
ATOM     26  C   UNL     1      46.800   0.701   7.460  0.00  0.00    +0.000 A 
ATOM     27  C   UNL     1      46.019   1.371   8.389  0.00  0.00    +0.000 A 
ENDBRANCH  20  22
ENDBRANCH  15  16
ENDBRANCH   1  15
TORSDOF 5
ENDMDL
MODEL 6
REMARK VINA RESULT:    -6.461      2.908      3.487
REMARK INTER + INTRA:          -9.495
REMARK INTER:                  -8.824
REMARK INTRA:                  -0.671
REMARK UNBOUND:                -1.146
REMARK  Name = 
REMARK  6 active torsions:
REMARK  status: ('A' for Active; 'I' for Inactive)
REMARK    1  A    between atoms: C_1  and  C_2
REMARK    2  A    between atoms: C_4  and  C_5
REMARK    3  A    between atoms: C_10  and  N_11
REMARK    4  A    between atoms: N_11  and  C_12
REMARK    5  A    between atoms: C_12  and  C_13
REMARK    6  A    between atoms: C_17  and  C_18
REMARK                            x       y       z     vdW  Elec       q    Type
REMARK                         _______ _______ _______ _____ _____    ______ ____
ROOT
ATOM      1  N   UNL     1      47.399   6.481  12.845  0.00  0.00    +0.000 N 
ATOM      2  H   UNL     1      48.160   6.988  12.405  0.00  0.00    +0.000 HD
ENDROOT
BRANCH   1   9
ATOM      3  C   UNL     1      46.563   3.778  13.689  0.00  0.00    +0.000 C 
ATOM      4  C   UNL     1      47.298   4.746  14.578  0.00  0.00    +0.000 A 
ATOM      5  C   UNL     1      47.557   4.347  15.908  0.00  0.00    +0.000 A 
ATOM      6  C   UNL     1      48.223   5.184  16.814  0.00  0.00    +0.000 A 
ATOM      7  C   UNL     1      48.620   6.446  16.383  0.00  0.00    +0.000 A 
ATOM      8  C   UNL     1      48.355   6.851  15.070  0.00  0.00    +0.000 A 
ATOM      9  C   UNL     1      47.723   6.018  14.133  0.00  0.00    +0.000 A 
BRANCH   6  10
ATOM     10  C   UNL     1      48.456   4.694  18.199  0.00  0.00    +0.000 C 
ATOM     11  N   UNL     1      48.960   5.561  19.129  0.00  0.00    +0.000 N 
ATOM     12  O   UNL     1      48.210   3.534  18.518  0.00  0.00    +0.000 OA
ATOM     13  H   UNL     1      49.199   6.524  18.963  0.00  0.00    +0.000 HD
ATOM     14  H   UNL     1      49.105   5.191  20.060  0.00  0.00    +0.000 HD
ENDBRANCH   6  10
ENDBRANCH   1   9
BRANCH   1  15
ATOM     15  C   UNL     1      46.084   7.084  12.632  0.00  0.00    +0.000 C 
BRANCH  15  16
ATOM     16  C   UNL     1      45.222   6.267  11.714  0.00  0.00    +0.000 A 
ATOM     17  C   UNL     1      43.841   6.250  11.859  0.00  0.00    +0.000 A 
ATOM     18  N   UNL     1      43.018   5.469  11.132  0.00  0.00    +0.000 NA
ATOM     19  C   UNL     1      43.602   4.659  10.214  0.00  0.00    +0.000 A 
ATOM     20  C   UNL     1      44.974   4.582   9.963  0.00  0.00    +0.000 A 
ATOM     21  C   UNL     1      45.779   5.415  10.753  0.00  0.00    +0.000 A 
BRANCH  20  22
ATOM     22  C   UNL     1      45.548   3.695   8.931  0.00  0.00    +0.000 A 
ATOM     23  C   UNL     1      46.174   4.210   7.787  0.00  0.00    +0.000 A 
ATOM     24  C   UNL     1      46.732   3.339   6.863  0.00  0.00    +0.000 A 
ATOM     25  N   UNL     1      46.718   1.999   6.991  0.00  0.00    +0.000 NA
ATOM     26  C   UNL     1      46.114   1.508   8.091  0.00  0.00    +0.000 A 
ATOM     27  C   UNL     1      45.520   2.299   9.063  0.00  0.00    +0.000 A 
ENDBRANCH  20  22
ENDBRANCH  15  16
ENDBRANCH   1  15
TORSDOF 5
ENDMDL
MODEL 7
REMARK VINA RESULT:    -6.440      4.649      6.910
REMARK INTER + INTRA:          -9.468
REMARK INTER:                  -8.411
REMARK INTRA:                  -1.057
REMARK UNBOUND:                -1.146
REMARK  Name = 
REMARK  6 active torsions:
REMARK  status: ('A' for Active; 'I' for Inactive)
REMARK    1  A    between atoms: C_1  and  C_2
REMARK    2  A    between atoms: C_4  and  C_5
REMARK    3  A    between atoms: C_10  and  N_11
REMARK    4  A    between atoms: N_11  and  C_12
REMARK    5  A    between atoms: C_12  and  C_13
REMARK    6  A    between atoms: C_17  and  C_18
REMARK                            x       y       z     vdW  Elec       q    Type
REMARK                         _______ _______ _______ _____ _____    ______ ____
ROOT
ATOM      1  N   UNL     1      48.672   5.933  17.486  0.00  0.00    +0.000 N 
ATOM      2  H   UNL     1      47.702   5.674  17.340  0.00  0.00    +0.000 HD
ENDROOT
BRANCH   1   9
ATOM      3  C   UNL     1      47.591   3.223  17.036  0.00  0.00    +0.000 C 
ATOM      4  C   UNL     1      49.047   3.516  17.284  0.00  0.00    +0.000 A 
ATOM      5  C   UNL     1      49.934   2.418  17.349  0.00  0.00    +0.000 A 
ATOM      6  C   UNL     1      51.304   2.589  17.589  0.00  0.00    +0.000 A 
ATOM      7  C   UNL     1      51.789   3.879  17.781  0.00  0.00    +0.000 A 
ATOM      8  C   UNL     1      50.913   4.969  17.729  0.00  0.00    +0.000 A 
ATOM      9  C   UNL     1      49.543   4.828  17.454  0.00  0.00    +0.000 A 
BRANCH   6  10
ATOM     10  C   UNL     1      52.175   1.384  17.648  0.00  0.00    +0.000 C 
ATOM     11  N   UNL     1      51.645   0.211  18.108  0.00  0.00    +0.000 N 
ATOM     12  O   UNL     1      53.351   1.426  17.297  0.00  0.00    +0.000 OA
ATOM     13  H   UNL     1      50.699   0.078  18.424  0.00  0.00    +0.000 HD
ATOM     14  H   UNL     1      52.268  -0.587  18.134  0.00  0.00    +0.000 HD
ENDBRANCH   6  10
ENDBRANCH   1   9
BRANCH   1  15
ATOM     15  C   UNL     1      49.072   7.154  16.789  0.00  0.00    +0.000 C 
BRANCH  15  16
ATOM     16  C   UNL     1      48.998   7.009  15.296  0.00  0.00    +0.000 A 
ATOM     17  C   UNL     1      49.936   7.617  14.473  0.00  0.00    +0.000 A 
ATOM     18  N   UNL     1      49.875   7.606  13.126  0.00  0.00    +0.000 NA
ATOM     19  C   UNL     1      48.822   6.957  12.571  0.00  0.00    +0.000 A 
ATOM     20  C   UNL     1      47.814   6.300  13.280  0.00  0.00    +0.000 A 
ATOM     21  C   UNL     1      47.929   6.349  14.677  0.00  0.00    +0.000 A 
BRANCH  20  22
ATOM     22  C   UNL     1      46.703   5.588  12.616  0.00  0.00    +0.000 A 
ATOM     23  C   UNL     1      46.189   6.017  11.384  0.00  0.00    +0.000 A 
ATOM     24  C   UNL     1      45.169   5.295  10.781  0.00  0.00    +0.000 A 
ATOM     25  N   UNL     1      44.626   4.180  11.307  0.00  0.00    +0.000 NA
ATOM     26  C   UNL     1      45.121   3.773  12.492  0.00  0.00    +0.000 A 
ATOM     27  C   UNL     1      46.131   4.435  13.174  0.00  0.00    +0.000 A 
ENDBRANCH  20  22
ENDBRANCH  15  16
ENDBRANCH   1  15
TORSDOF 5
ENDMDL
MODEL 8
REMARK VINA RESULT:    -6.067      1.972      2.427
REMARK INTER + INTRA:          -8.985
REMARK INTER:                  -8.514
REMARK INTRA:                  -0.472
REMARK UNBOUND:                -1.146
REMARK  Name = 
REMARK  6 active torsions:
REMARK  status: ('A' for Active; 'I' for Inactive)
REMARK    1  A    between atoms: C_1  and  C_2
REMARK    2  A    between atoms: C_4  and  C_5
REMARK    3  A    between atoms: C_10  and  N_11
REMARK    4  A    between atoms: N_11  and  C_12
REMARK    5  A    between atoms: C_12  and  C_13
REMARK    6  A    between atoms: C_17  and  C_18
REMARK                            x       y       z     vdW  Elec       q    Type
REMARK                         _______ _______ _______ _____ _____    ______ ____
ROOT
ATOM      1  N   UNL     1      46.695   5.274  12.955  0.00  0.00    +0.000 N 
ATOM      2  H   UNL     1      46.963   5.212  11.977  0.00  0.00    +0.000 HD
ENDROOT
BRANCH   1   9
ATOM      3  C   UNL     1      45.809   7.952  12.082  0.00  0.00    +0.000 C 
ATOM      4  C   UNL     1      46.832   7.716  13.162  0.00  0.00    +0.000 A 
ATOM      5  C   UNL     1      47.432   8.849  13.755  0.00  0.00    +0.000 A 
ATOM      6  C   UNL     1      48.404   8.731  14.758  0.00  0.00    +0.000 A 
ATOM      7  C   UNL     1      48.789   7.456  15.161  0.00  0.00    +0.000 A 
ATOM      8  C   UNL     1      48.208   6.330  14.569  0.00  0.00    +0.000 A 
ATOM      9  C   UNL     1      47.206   6.422  13.588  0.00  0.00    +0.000 A 
BRANCH   6  10
ATOM     10  C   UNL     1      48.993   9.971  15.331  0.00  0.00    +0.000 C 
ATOM     11  N   UNL     1      48.314  10.627  16.320  0.00  0.00    +0.000 N 
ATOM     12  O   UNL     1      50.066  10.414  14.931  0.00  0.00    +0.000 OA
ATOM     13  H   UNL     1      47.428  10.348  16.708  0.00  0.00    +0.000 HD
ATOM     14  H   UNL     1      48.746  11.467  16.684  0.00  0.00    +0.000 HD
ENDBRANCH   6  10
ENDBRANCH   1   9
BRANCH   1  15
ATOM     15  C   UNL     1      45.307   4.896  13.215  0.00  0.00    +0.000 C 
BRANCH  15  16
ATOM     16  C   UNL     1      44.752   3.996  12.150  0.00  0.00    +0.000 A 
ATOM     17  C   UNL     1      43.602   3.250  12.374  0.00  0.00    +0.000 A 
ATOM     18  N   UNL     1      43.103   2.355  11.498  0.00  0.00    +0.000 NA
ATOM     19  C   UNL     1      43.788   2.192  10.339  0.00  0.00    +0.000 A 
ATOM     20  C   UNL     1      44.952   2.879   9.986  0.00  0.00    +0.000 A 
ATOM     21  C   UNL     1      45.424   3.794  10.938  0.00  0.00    +0.000 A 
BRANCH  20  22
ATOM     22  C   UNL     1      45.640   2.674   8.696  0.00  0.00    +0.000 A 
ATOM     23  C   UNL     1      45.847   3.732   7.798  0.00  0.00    +0.000 A 
ATOM     24  C   UNL     1      46.532   3.498   6.614  0.00  0.00    +0.000 A 
ATOM     25  N   UNL     1      47.028   2.298   6.258  0.00  0.00    +0.000 NA
ATOM     26  C   UNL     1      46.825   1.284   7.122  0.00  0.00    +0.000 A 
ATOM     27  C   UNL     1      46.144   1.419   8.323  0.00  0.00    +0.000 A 
ENDBRANCH  20  22
ENDBRANCH  15  16
ENDBRANCH   1  15
TORSDOF 5
ENDMDL
MODEL 9
REMARK VINA RESULT:    -6.044      3.808      5.216
REMARK INTER + INTRA:          -8.956
REMARK INTER:                  -8.345
REMARK INTRA:                  -0.611
REMARK UNBOUND:                -1.146
REMARK  Name = 
REMARK  6 active torsions:
REMARK  status: ('A' for Active; 'I' for Inactive)
REMARK    1  A    between atoms: C_1  and  C_2
REMARK    2  A    between atoms: C_4  and  C_5
REMARK    3  A    between atoms: C_10  and  N_11
REMARK    4  A    between atoms: N_11  and  C_12
REMARK    5  A    between atoms: C_12  and  C_13
REMARK    6  A    between atoms: C_17  and  C_18
REMARK                            x       y       z     vdW  Elec       q    Type
REMARK                         _______ _______ _______ _____ _____    ______ ____
ROOT
ATOM      1  N   UNL     1      47.938   6.828  15.261  0.00  0.00    +0.000 N 
ATOM      2  H   UNL     1      46.991   6.472  15.338  0.00  0.00    +0.000 HD
ENDROOT
BRANCH   1   9
ATOM      3  C   UNL     1      47.145   4.204  16.357  0.00  0.00    +0.000 C 
ATOM      4  C   UNL     1      48.505   4.819  16.553  0.00  0.00    +0.000 A 
ATOM      5  C   UNL     1      49.435   4.114  17.348  0.00  0.00    +0.000 A 
ATOM      6  C   UNL     1      50.721   4.612  17.599  0.00  0.00    +0.000 A 
ATOM      7  C   UNL     1      51.073   5.843  17.055  0.00  0.00    +0.000 A 
ATOM      8  C   UNL     1      50.152   6.552  16.276  0.00  0.00    +0.000 A 
ATOM      9  C   UNL     1      48.871   6.058  15.981  0.00  0.00    +0.000 A 
BRANCH   6  10
ATOM     10  C   UNL     1      51.643   3.812  18.450  0.00  0.00    +0.000 C 
ATOM     11  N   UNL     1      51.838   4.193  19.748  0.00  0.00    +0.000 N 
ATOM     12  O   UNL     1      52.230   2.828  18.008  0.00  0.00    +0.000 OA
ATOM     13  H   UNL     1      51.410   4.985  20.198  0.00  0.00    +0.000 HD
ATOM     14  H   UNL     1      52.472   3.625  20.295  0.00  0.00    +0.000 HD
ENDBRANCH   6  10
ENDBRANCH   1   9
BRANCH   1  15
ATOM     15  C   UNL     1      48.296   7.275  13.916  0.00  0.00    +0.000 C 
BRANCH  15  16
ATOM     16  C   UNL     1      47.115   7.300  12.990  0.00  0.00    +0.000 A 
ATOM     17  C   UNL     1      46.238   8.377  12.980  0.00  0.00    +0.000 A 
ATOM     18  N   UNL     1      45.110   8.423  12.243  0.00  0.00    +0.000 NA
ATOM     19  C   UNL     1      44.838   7.336  11.480  0.00  0.00    +0.000 A 
ATOM     20  C   UNL     1      45.635   6.192  11.393  0.00  0.00    +0.000 A 
ATOM     21  C   UNL     1      46.793   6.202  12.184  0.00  0.00    +0.000 A 
BRANCH  20  22
ATOM     22  C   UNL     1      45.297   5.047  10.522  0.00  0.00    +0.000 A 
ATOM     23  C   UNL     1      44.605   3.931  11.013  0.00  0.00    +0.000 A 
ATOM     24  C   UNL     1      44.278   2.896  10.149  0.00  0.00    +0.000 A 
ATOM     25  N   UNL     1      44.582   2.889   8.837  0.00  0.00    +0.000 NA
ATOM     26  C   UNL     1      45.249   3.963   8.370  0.00  0.00    +0.000 A 
ATOM     27  C   UNL     1      45.627   5.038   9.159  0.00  0.00    +0.000 A 
ENDBRANCH  20  22
ENDBRANCH  15  16
ENDBRANCH   1  15
TORSDOF 5
ENDMDL
