MODEL 1
REMARK VINA RESULT:    -9.181      0.000      0.000
REMARK INTER + INTRA:         -14.063
REMARK INTER:                 -12.938
REMARK INTRA:                  -1.125
REMARK UNBOUND:                -1.125
REMARK  Name = 
REMARK  10 active torsions:
REMARK  status: ('A' for Active; 'I' for Inactive)
REMARK    1  A    between atoms: C_1  and  C_2
REMARK    2  A    between atoms: C_4  and  O_5
REMARK    3  A    between atoms: O_5  and  C_6
REMARK    4  A    between atoms: C_6  and  C_7
REMARK    5  A    between atoms: C_7  and  C_8
REMARK    6  A    between atoms: C_7  and  C_9
REMARK    7  A    between atoms: C_7  and  C_10
REMARK    8  A    between atoms: C_12  and  O_13
REMARK    9  A    between atoms: O_13  and  C_14
REMARK   10  A    between atoms: C_23  and  C_24
REMARK                            x       y       z     vdW  Elec       q    Type
REMARK                         _______ _______ _______ _____ _____    ______ ____
ROOT
ATOM      1  C   UNL     1      43.604   4.541  10.582  0.00  0.00    +0.000 C 
ENDROOT
BRANCH   1   2
ATOM      2  C   UNL     1      43.839   4.609  12.116  0.00  0.00    +0.000 C 
ATOM      3  C   UNL     1      42.706   5.449  12.748  0.00  0.00    +0.000 C 
ATOM      4  C   UNL     1      43.751   3.183  12.704  0.00  0.00    +0.000 C 
BRANCH   2   5
ATOM      5  C   UNL     1      45.225   5.192  12.421  0.00  0.00    +0.000 A 
ATOM      6  C   UNL     1      45.898   4.820  13.584  0.00  0.00    +0.000 A 
ATOM      7  C   UNL     1      47.153   5.349  13.852  0.00  0.00    +0.000 A 
ATOM      8  C   UNL     1      47.735   6.216  12.941  0.00  0.00    +0.000 A 
ATOM      9  C   UNL     1      47.007   6.548  11.814  0.00  0.00    +0.000 A 
ATOM     10  N   UNL     1      45.769   6.072  11.545  0.00  0.00    +0.000 NA
BRANCH   7  11
ATOM     11  O   UNL     1      47.884   5.025  14.971  0.00  0.00    +0.000 OA
BRANCH  11  12
ATOM     12  C   UNL     1      47.461   3.867  15.724  0.00  0.00    +0.000 C 
ATOM     13  C   UNL     1      47.098   4.119  17.194  0.00  0.00    +0.000 C 
ATOM     14  C   UNL     1      47.933   2.872  17.460  0.00  0.00    +0.000 C 
ATOM     15  O   UNL     1      48.535   2.971  16.145  0.00  0.00    +0.000 OA
ENDBRANCH  11  12
ENDBRANCH   7  11
ENDBRANCH   2   5
ENDBRANCH   1   2
BRANCH   1  16
ATOM     16  O   UNL     1      43.720   3.187  10.131  0.00  0.00    +0.000 OA
BRANCH  16  20
ATOM     17  C   UNL     1      46.732   0.150   7.647  0.00  0.00    +0.000 C 
ATOM     18  C   UNL     1      46.204   1.534   7.912  0.00  0.00    +0.000 A 
ATOM     19  C   UNL     1      45.226   1.692   8.917  0.00  0.00    +0.000 A 
ATOM     20  C   UNL     1      44.688   2.944   9.200  0.00  0.00    +0.000 A 
ATOM     21  C   UNL     1      45.152   4.066   8.519  0.00  0.00    +0.000 A 
ATOM     22  C   UNL     1      46.117   3.932   7.518  0.00  0.00    +0.000 A 
ATOM     23  C   UNL     1      46.650   2.671   7.205  0.00  0.00    +0.000 A 
BRANCH  23  24
ATOM     24  C   UNL     1      47.658   2.556   6.105  0.00  0.00    +0.000 C 
ATOM     25  N   UNL     1      48.976   2.489   6.464  0.00  0.00    +0.000 N 
ATOM     26  O   UNL     1      47.348   2.510   4.923  0.00  0.00    +0.000 OA
ATOM     27  H   UNL     1      49.293   2.352   7.413  0.00  0.00    +0.000 HD
ATOM     28  H   UNL     1      49.639   2.335   5.714  0.00  0.00    +0.000 HD
ENDBRANCH  23  24
ENDBRANCH  16  20
ENDBRANCH   1  16
TORSDOF 7
ENDMDL
MODEL 2
REMARK VINA RESULT:    -8.091      2.027      3.398
REMARK INTER + INTRA:         -12.527
REMARK INTER:                 -11.572
REMARK INTRA:                  -0.954
REMARK UNBOUND:                -1.125
REMARK  Name = 
REMARK  10 active torsions:
REMARK  status: ('A' for Active; 'I' for Inactive)
REMARK    1  A    between atoms: C_1  and  C_2
REMARK    2  A    between atoms: C_4  and  O_5
REMARK    3  A    between atoms: O_5  and  C_6
REMARK    4  A    between atoms: C_6  and  C_7
REMARK    5  A    between atoms: C_7  and  C_8
REMARK    6  A    between atoms: C_7  and  C_9
REMARK    7  A    between atoms: C_7  and  C_10
REMARK    8  A    between atoms: C_12  and  O_13
REMARK    9  A    between atoms: O_13  and  C_14
REMARK   10  A    between atoms: C_23  and  C_24
REMARK                            x       y       z     vdW  Elec       q    Type
REMARK                         _______ _______ _______ _____ _____    ______ ____
ROOT
ATOM      1  C   UNL     1      43.867   3.265  11.267  0.00  0.00    +0.000 C 
ENDROOT
BRANCH   1   2
ATOM      2  C   UNL     1      43.817   4.637  11.994  0.00  0.00    +0.000 C 
ATOM      3  C   UNL     1      43.195   5.676  11.035  0.00  0.00    +0.000 C 
ATOM      4  C   UNL     1      42.893   4.522  13.227  0.00  0.00    +0.000 C 
BRANCH   2   5
ATOM      5  C   UNL     1      45.220   5.050  12.457  0.00  0.00    +0.000 A 
ATOM      6  C   UNL     1      45.930   6.021  11.750  0.00  0.00    +0.000 A 
ATOM      7  C   UNL     1      47.198   6.393  12.176  0.00  0.00    +0.000 A 
ATOM      8  C   UNL     1      47.728   5.817  13.320  0.00  0.00    +0.000 A 
ATOM      9  C   UNL     1      46.972   4.856  13.965  0.00  0.00    +0.000 A 
ATOM     10  N   UNL     1      45.749   4.453  13.553  0.00  0.00    +0.000 NA
BRANCH   7  11
ATOM     11  O   UNL     1      47.956   7.347  11.540  0.00  0.00    +0.000 OA
BRANCH  11  12
ATOM     12  C   UNL     1      48.071   8.636  12.182  0.00  0.00    +0.000 C 
ATOM     13  C   UNL     1      46.783   9.469  12.247  0.00  0.00    +0.000 C 
ATOM     14  C   UNL     1      47.679  10.616  11.795  0.00  0.00    +0.000 C 
ATOM     15  O   UNL     1      48.702   9.679  11.378  0.00  0.00    +0.000 OA
ENDBRANCH  11  12
ENDBRANCH   7  11
ENDBRANCH   2   5
ENDBRANCH   1   2
BRANCH   1  16
ATOM     16  O   UNL     1      43.691   3.453   9.859  0.00  0.00    +0.000 OA
BRANCH  16  20
ATOM     17  C   UNL     1      46.606   0.033   7.793  0.00  0.00    +0.000 C 
ATOM     18  C   UNL     1      46.223   1.475   7.988  0.00  0.00    +0.000 A 
ATOM     19  C   UNL     1      45.148   1.766   8.854  0.00  0.00    +0.000 A 
ATOM     20  C   UNL     1      44.737   3.079   9.066  0.00  0.00    +0.000 A 
ATOM     21  C   UNL     1      45.423   4.125   8.455  0.00  0.00    +0.000 A 
ATOM     22  C   UNL     1      46.488   3.859   7.592  0.00  0.00    +0.000 A 
ATOM     23  C   UNL     1      46.897   2.537   7.349  0.00  0.00    +0.000 A 
BRANCH  23  24
ATOM     24  C   UNL     1      48.020   2.283   6.394  0.00  0.00    +0.000 C 
ATOM     25  N   UNL     1      49.172   2.998   6.572  0.00  0.00    +0.000 N 
ATOM     26  O   UNL     1      47.946   1.468   5.486  0.00  0.00    +0.000 OA
ATOM     27  H   UNL     1      49.364   3.557   7.391  0.00  0.00    +0.000 HD
ATOM     28  H   UNL     1      49.948   2.760   5.966  0.00  0.00    +0.000 HD
ENDBRANCH  23  24
ENDBRANCH  16  20
ENDBRANCH   1  16
TORSDOF 7
ENDMDL
MODEL 3
REMARK VINA RESULT:    -7.167      2.552      8.391
REMARK INTER + INTRA:         -11.224
REMARK INTER:                 -10.450
REMARK INTRA:                  -0.774
REMARK UNBOUND:                -1.125
REMARK  Name = 
REMARK  10 active torsions:
REMARK  status: ('A' for Active; 'I' for Inactive)
REMARK    1  A    between atoms: C_1  and  C_2
REMARK    2  A    between atoms: C_4  and  O_5
REMARK    3  A    between atoms: O_5  and  C_6
REMARK    4  A    between atoms: C_6  and  C_7
REMARK    5  A    between atoms: C_7  and  C_8
REMARK    6  A    between atoms: C_7  and  C_9
REMARK    7  A    between atoms: C_7  and  C_10
REMARK    8  A    between atoms: C_12  and  O_13
REMARK    9  A    between atoms: O_13  and  C_14
REMARK   10  A    between atoms: C_23  and  C_24
REMARK                            x       y       z     vdW  Elec       q    Type
REMARK                         _______ _______ _______ _____ _____    ______ ____
ROOT
ATOM      1  C   UNL     1      45.980   5.491  13.338  0.00  0.00    +0.000 C 
ENDROOT
BRANCH   1   2
ATOM      2  C   UNL     1      45.713   6.081  11.926  0.00  0.00    +0.000 C 
ATOM      3  C   UNL     1      44.670   7.214  12.059  0.00  0.00    +0.000 C 
ATOM      4  C   UNL     1      47.018   6.704  11.383  0.00  0.00    +0.000 C 
BRANCH   2   5
ATOM      5  C   UNL     1      45.245   4.981  10.965  0.00  0.00    +0.000 A 
ATOM      6  C   UNL     1      45.584   5.044   9.613  0.00  0.00    +0.000 A 
ATOM      7  C   UNL     1      45.160   4.044   8.750  0.00  0.00    +0.000 A 
ATOM      8  C   UNL     1      44.432   2.976   9.250  0.00  0.00    +0.000 A 
ATOM      9  C   UNL     1      44.125   2.983  10.598  0.00  0.00    +0.000 A 
ATOM     10  N   UNL     1      44.498   3.961  11.454  0.00  0.00    +0.000 NA
BRANCH   7  11
ATOM     11  O   UNL     1      45.461   4.030   7.408  0.00  0.00    +0.000 OA
BRANCH  11  12
ATOM     12  C   UNL     1      46.768   3.545   7.030  0.00  0.00    +0.000 C 
ATOM     13  C   UNL     1      46.870   2.914   5.633  0.00  0.00    +0.000 C 
ATOM     14  C   UNL     1      47.659   1.822   6.347  0.00  0.00    +0.000 C 
ATOM     15  O   UNL     1      47.158   2.271   7.630  0.00  0.00    +0.000 OA
ENDBRANCH  11  12
ENDBRANCH   7  11
ENDBRANCH   2   5
ENDBRANCH   1   2
BRANCH   1  16
ATOM     16  O   UNL     1      47.360   5.661  13.684  0.00  0.00    +0.000 OA
BRANCH  16  20
ATOM     17  C   UNL     1      47.215   2.737  17.671  0.00  0.00    +0.000 C 
ATOM     18  C   UNL     1      47.705   3.984  16.985  0.00  0.00    +0.000 A 
ATOM     19  C   UNL     1      47.272   4.229  15.664  0.00  0.00    +0.000 A 
ATOM     20  C   UNL     1      47.700   5.357  14.970  0.00  0.00    +0.000 A 
ATOM     21  C   UNL     1      48.528   6.283  15.599  0.00  0.00    +0.000 A 
ATOM     22  C   UNL     1      48.970   6.058  16.905  0.00  0.00    +0.000 A 
ATOM     23  C   UNL     1      48.566   4.911  17.608  0.00  0.00    +0.000 A 
BRANCH  23  24
ATOM     24  C   UNL     1      49.084   4.682  18.992  0.00  0.00    +0.000 C 
ATOM     25  N   UNL     1      50.318   4.105  19.115  0.00  0.00    +0.000 N 
ATOM     26  O   UNL     1      48.458   4.995  19.995  0.00  0.00    +0.000 OA
ATOM     27  H   UNL     1      50.956   3.976  18.344  0.00  0.00    +0.000 HD
ATOM     28  H   UNL     1      50.686   4.026  20.056  0.00  0.00    +0.000 HD
ENDBRANCH  23  24
ENDBRANCH  16  20
ENDBRANCH   1  16
TORSDOF 7
ENDMDL
MODEL 4
REMARK VINA RESULT:    -6.461      1.736      2.366
REMARK INTER + INTRA:         -10.230
REMARK INTER:                  -9.204
REMARK INTRA:                  -1.026
REMARK UNBOUND:                -1.125
REMARK  Name = 
REMARK  10 active torsions:
REMARK  status: ('A' for Active; 'I' for Inactive)
REMARK    1  A    between atoms: C_1  and  C_2
REMARK    2  A    between atoms: C_4  and  O_5
REMARK    3  A    between atoms: O_5  and  C_6
REMARK    4  A    between atoms: C_6  and  C_7
REMARK    5  A    between atoms: C_7  and  C_8
REMARK    6  A    between atoms: C_7  and  C_9
REMARK    7  A    between atoms: C_7  and  C_10
REMARK    8  A    between atoms: C_12  and  O_13
REMARK    9  A    between atoms: O_13  and  C_14
REMARK   10  A    between atoms: C_23  and  C_24
REMARK                            x       y       z     vdW  Elec       q    Type
REMARK                         _______ _______ _______ _____ _____    ______ ____
ROOT
ATOM      1  C   UNL     1      44.155   3.139  11.987  0.00  0.00    +0.000 C 
ENDROOT
BRANCH   1   2
ATOM      2  C   UNL     1      43.663   4.552  12.405  0.00  0.00    +0.000 C 
ATOM      3  C   UNL     1      42.538   4.984  11.438  0.00  0.00    +0.000 C 
ATOM      4  C   UNL     1      43.060   4.477  13.825  0.00  0.00    +0.000 C 
BRANCH   2   5
ATOM      5  C   UNL     1      44.830   5.547  12.408  0.00  0.00    +0.000 A 
ATOM      6  C   UNL     1      46.039   5.205  13.015  0.00  0.00    +0.000 A 
ATOM      7  C   UNL     1      47.091   6.109  13.012  0.00  0.00    +0.000 A 
ATOM      8  C   UNL     1      46.938   7.330  12.374  0.00  0.00    +0.000 A 
ATOM      9  C   UNL     1      45.711   7.606  11.801  0.00  0.00    +0.000 A 
ATOM     10  N   UNL     1      44.659   6.756  11.819  0.00  0.00    +0.000 NA
BRANCH   7  11
ATOM     11  O   UNL     1      48.315   5.843  13.579  0.00  0.00    +0.000 OA
BRANCH  11  12
ATOM     12  C   UNL     1      48.731   6.685  14.677  0.00  0.00    +0.000 C 
ATOM     13  C   UNL     1      49.996   7.522  14.437  0.00  0.00    +0.000 C 
ATOM     14  C   UNL     1      50.396   7.044  15.828  0.00  0.00    +0.000 C 
ATOM     15  O   UNL     1      49.401   5.992  15.775  0.00  0.00    +0.000 OA
ENDBRANCH  11  12
ENDBRANCH   7  11
ENDBRANCH   2   5
ENDBRANCH   1   2
BRANCH   1  16
ATOM     16  O   UNL     1      43.622   2.797  10.703  0.00  0.00    +0.000 OA
BRANCH  16  20
ATOM     17  C   UNL     1      46.802   5.048   7.655  0.00  0.00    +0.000 C 
ATOM     18  C   UNL     1      46.104   3.799   8.121  0.00  0.00    +0.000 A 
ATOM     19  C   UNL     1      45.178   3.911   9.180  0.00  0.00    +0.000 A 
ATOM     20  C   UNL     1      44.509   2.791   9.665  0.00  0.00    +0.000 A 
ATOM     21  C   UNL     1      44.718   1.550   9.070  0.00  0.00    +0.000 A 
ATOM     22  C   UNL     1      45.631   1.416   8.023  0.00  0.00    +0.000 A 
ATOM     23  C   UNL     1      46.332   2.534   7.540  0.00  0.00    +0.000 A 
BRANCH  23  24
ATOM     24  C   UNL     1      47.329   2.353   6.439  0.00  0.00    +0.000 C 
ATOM     25  N   UNL     1      48.584   1.935   6.789  0.00  0.00    +0.000 N 
ATOM     26  O   UNL     1      47.062   2.551   5.263  0.00  0.00    +0.000 OA
ATOM     27  H   UNL     1      48.825   1.593   7.708  0.00  0.00    +0.000 HD
ATOM     28  H   UNL     1      49.223   1.745   6.027  0.00  0.00    +0.000 HD
ENDBRANCH  23  24
ENDBRANCH  16  20
ENDBRANCH   1  16
TORSDOF 7
ENDMDL
MODEL 5
REMARK VINA RESULT:    -6.421      3.297      7.810
REMARK INTER + INTRA:         -10.174
REMARK INTER:                  -9.293
REMARK INTRA:                  -0.881
REMARK UNBOUND:                -1.125
REMARK  Name = 
REMARK  10 active torsions:
REMARK  status: ('A' for Active; 'I' for Inactive)
REMARK    1  A    between atoms: C_1  and  C_2
REMARK    2  A    between atoms: C_4  and  O_5
REMARK    3  A    between atoms: O_5  and  C_6
REMARK    4  A    between atoms: C_6  and  C_7
REMARK    5  A    between atoms: C_7  and  C_8
REMARK    6  A    between atoms: C_7  and  C_9
REMARK    7  A    between atoms: C_7  and  C_10
REMARK    8  A    between atoms: C_12  and  O_13
REMARK    9  A    between atoms: O_13  and  C_14
REMARK   10  A    between atoms: C_23  and  C_24
REMARK                            x       y       z     vdW  Elec       q    Type
REMARK                         _______ _______ _______ _____ _____    ______ ____
ROOT
ATOM      1  C   UNL     1      46.671   6.442  11.486  0.00  0.00    +0.000 C 
ENDROOT
BRANCH   1   2
ATOM      2  C   UNL     1      45.236   5.895  11.722  0.00  0.00    +0.000 C 
ATOM      3  C   UNL     1      45.106   5.488  13.207  0.00  0.00    +0.000 C 
ATOM      4  C   UNL     1      44.215   7.022  11.451  0.00  0.00    +0.000 C 
BRANCH   2   5
ATOM      5  C   UNL     1      44.948   4.720  10.778  0.00  0.00    +0.000 A 
ATOM      6  C   UNL     1      45.285   4.811   9.428  0.00  0.00    +0.000 A 
ATOM      7  C   UNL     1      45.024   3.743   8.580  0.00  0.00    +0.000 A 
ATOM      8  C   UNL     1      44.462   2.586   9.096  0.00  0.00    +0.000 A 
ATOM      9  C   UNL     1      44.146   2.569  10.442  0.00  0.00    +0.000 A 
ATOM     10  N   UNL     1      44.360   3.607  11.282  0.00  0.00    +0.000 NA
BRANCH   7  11
ATOM     11  O   UNL     1      45.335   3.751   7.241  0.00  0.00    +0.000 OA
BRANCH  11  12
ATOM     12  C   UNL     1      46.719   3.547   6.883  0.00  0.00    +0.000 C 
ATOM     13  C   UNL     1      46.971   2.982   5.478  0.00  0.00    +0.000 C 
ATOM     14  C   UNL     1      47.951   2.055   6.188  0.00  0.00    +0.000 C 
ATOM     15  O   UNL     1      47.347   2.364   7.468  0.00  0.00    +0.000 OA
ENDBRANCH  11  12
ENDBRANCH   7  11
ENDBRANCH   2   5
ENDBRANCH   1   2
BRANCH   1  16
ATOM     16  O   UNL     1      46.917   7.553  12.355  0.00  0.00    +0.000 OA
BRANCH  16  20
ATOM     17  C   UNL     1      50.641   9.522  14.949  0.00  0.00    +0.000 C 
ATOM     18  C   UNL     1      50.128   8.866  13.695  0.00  0.00    +0.000 A 
ATOM     19  C   UNL     1      48.755   8.546  13.626  0.00  0.00    +0.000 A 
ATOM     20  C   UNL     1      48.222   7.927  12.500  0.00  0.00    +0.000 A 
ATOM     21  C   UNL     1      49.040   7.660  11.405  0.00  0.00    +0.000 A 
ATOM     22  C   UNL     1      50.402   7.966  11.454  0.00  0.00    +0.000 A 
ATOM     23  C   UNL     1      50.958   8.568  12.594  0.00  0.00    +0.000 A 
BRANCH  23  24
ATOM     24  C   UNL     1      52.427   8.852  12.628  0.00  0.00    +0.000 C 
ATOM     25  N   UNL     1      53.253   7.845  13.046  0.00  0.00    +0.000 N 
ATOM     26  O   UNL     1      52.902   9.928  12.294  0.00  0.00    +0.000 OA
ATOM     27  H   UNL     1      52.952   6.890  13.175  0.00  0.00    +0.000 HD
ATOM     28  H   UNL     1      54.248   8.028  12.992  0.00  0.00    +0.000 HD
ENDBRANCH  23  24
ENDBRANCH  16  20
ENDBRANCH   1  16
TORSDOF 7
ENDMDL
