MODEL 1
REMARK VINA RESULT:    -8.300      0.000      0.000
REMARK INTER + INTRA:         -12.582
REMARK INTER:                 -11.454
REMARK INTRA:                  -1.128
REMARK UNBOUND:                -1.128
REMARK  Name = 
REMARK  8 active torsions:
REMARK  status: ('A' for Active; 'I' for Inactive)
REMARK    1  A    between atoms: C_1  and  C_2
REMARK    2  A    between atoms: C_2  and  C_3
REMARK    3  A    between atoms: C_7  and  C_8
REMARK    4  A    between atoms: C_8  and  C_9
REMARK    5  A    between atoms: C_9  and  N_10
REMARK    6  A    between atoms: N_10  and  C_11
REMARK    7  A    between atoms: C_14  and  C_15
REMARK    8  A    between atoms: C_23  and  O_24
REMARK                            x       y       z     vdW  Elec       q    Type
REMARK                         _______ _______ _______ _____ _____    ______ ____
ROOT
ATOM      1  C   UNL     1      46.988   6.614  12.941  0.00  0.00    +0.000 A 
ATOM      2  C   UNL     1      47.591   5.499  13.542  0.00  0.00    +0.000 A 
ATOM      3  C   UNL     1      46.879   4.310  13.737  0.00  0.00    +0.000 A 
ATOM      4  C   UNL     1      45.542   4.210  13.348  0.00  0.00    +0.000 A 
ATOM      5  C   UNL     1      44.907   5.294  12.738  0.00  0.00    +0.000 A 
ATOM      6  C   UNL     1      45.658   6.464  12.522  0.00  0.00    +0.000 A 
ENDROOT
BRANCH   1   8
ATOM      7  C   UNL     1      48.113   8.359  14.293  0.00  0.00    +0.000 C 
ATOM      8  C   UNL     1      47.716   7.977  12.846  0.00  0.00    +0.000 C 
ATOM      9  C   UNL     1      48.969   7.859  11.938  0.00  0.00    +0.000 C 
ATOM     10  C   UNL     1      49.697   9.188  11.724  0.00  0.00    +0.000 C 
ATOM     11  C   UNL     1      48.771  10.280  11.193  0.00  0.00    +0.000 C 
ATOM     12  C   UNL     1      47.531  10.445  12.060  0.00  0.00    +0.000 C 
ATOM     13  C   UNL     1      46.815   9.114  12.264  0.00  0.00    +0.000 C 
BRANCH  11  14
ATOM     14  O   UNL     1      49.474  11.515  11.133  0.00  0.00    +0.000 OA
ATOM     15  H   UNL     1      50.427  11.324  11.174  0.00  0.00    +0.000 HD
ENDBRANCH  11  14
ENDBRANCH   1   8
BRANCH   5  16
ATOM     16  C   UNL     1      43.429   5.204  12.380  0.00  0.00    +0.000 C 
BRANCH  16  17
ATOM     17  C   UNL     1      43.155   4.319  11.158  0.00  0.00    +0.000 C 
BRANCH  17  18
ATOM     18  N   UNL     1      43.700   4.843   9.905  0.00  0.00    +0.000 N 
ATOM     19  H   UNL     1      44.170   5.738  10.036  0.00  0.00    +0.000 HD
BRANCH  18  20
ATOM     20  C   UNL     1      44.518   3.935   9.194  0.00  0.00    +0.000 A 
ATOM     21  C   UNL     1      45.469   4.337   8.246  0.00  0.00    +0.000 A 
ATOM     22  C   UNL     1      46.307   3.409   7.629  0.00  0.00    +0.000 A 
ATOM     23  C   UNL     1      46.196   2.082   8.002  0.00  0.00    +0.000 A 
ATOM     24  N   UNL     1      45.317   1.630   8.939  0.00  0.00    +0.000 NA
ATOM     25  C   UNL     1      44.524   2.571   9.513  0.00  0.00    +0.000 A 
BRANCH  23  26
ATOM     26  C   UNL     1      47.107   1.070   7.379  0.00  0.00    +0.000 C 
ATOM     27  N   UNL     1      46.802  -0.235   7.647  0.00  0.00    +0.000 N 
ATOM     28  O   UNL     1      48.066   1.379   6.679  0.00  0.00    +0.000 OA
ATOM     29  H   UNL     1      46.025  -0.447   8.260  0.00  0.00    +0.000 HD
ATOM     30  H   UNL     1      47.401  -0.968   7.297  0.00  0.00    +0.000 HD
ENDBRANCH  23  26
ENDBRANCH  18  20
ENDBRANCH  17  18
ENDBRANCH  16  17
ENDBRANCH   5  16
TORSDOF 7
ENDMDL
MODEL 2
REMARK VINA RESULT:    -8.074      3.639      7.215
REMARK INTER + INTRA:         -12.271
REMARK INTER:                 -11.112
REMARK INTRA:                  -1.159
REMARK UNBOUND:                -1.128
REMARK  Name = 
REMARK  8 active torsions:
REMARK  status: ('A' for Active; 'I' for Inactive)
REMARK    1  A    between atoms: C_1  and  C_2
REMARK    2  A    between atoms: C_2  and  C_3
REMARK    3  A    between atoms: C_7  and  C_8
REMARK    4  A    between atoms: C_8  and  C_9
REMARK    5  A    between atoms: C_9  and  N_10
REMARK    6  A    between atoms: N_10  and  C_11
REMARK    7  A    between atoms: C_14  and  C_15
REMARK    8  A    between atoms: C_23  and  O_24
REMARK                            x       y       z     vdW  Elec       q    Type
REMARK                         _______ _______ _______ _____ _____    ______ ____
ROOT
ATOM      1  C   UNL     1      44.691   3.621   9.621  0.00  0.00    +0.000 A 
ATOM      2  C   UNL     1      44.016   2.772  10.511  0.00  0.00    +0.000 A 
ATOM      3  C   UNL     1      43.500   3.254  11.720  0.00  0.00    +0.000 A 
ATOM      4  C   UNL     1      43.659   4.595  12.075  0.00  0.00    +0.000 A 
ATOM      5  C   UNL     1      44.318   5.475  11.215  0.00  0.00    +0.000 A 
ATOM      6  C   UNL     1      44.794   4.970   9.990  0.00  0.00    +0.000 A 
ENDROOT
BRANCH   1   8
ATOM      7  C   UNL     1      44.286   2.952   7.270  0.00  0.00    +0.000 C 
ATOM      8  C   UNL     1      45.388   3.076   8.351  0.00  0.00    +0.000 C 
ATOM      9  C   UNL     1      46.509   4.046   7.891  0.00  0.00    +0.000 C 
ATOM     10  C   UNL     1      47.305   3.535   6.687  0.00  0.00    +0.000 C 
ATOM     11  C   UNL     1      47.884   2.142   6.922  0.00  0.00    +0.000 C 
ATOM     12  C   UNL     1      46.818   1.149   7.361  0.00  0.00    +0.000 C 
ATOM     13  C   UNL     1      46.035   1.669   8.562  0.00  0.00    +0.000 C 
BRANCH  11  14
ATOM     14  O   UNL     1      48.503   1.675   5.729  0.00  0.00    +0.000 OA
ATOM     15  H   UNL     1      49.451   1.892   5.774  0.00  0.00    +0.000 HD
ENDBRANCH  11  14
ENDBRANCH   1   8
BRANCH   5  16
ATOM     16  C   UNL     1      44.552   6.920  11.639  0.00  0.00    +0.000 C 
BRANCH  16  17
ATOM     17  C   UNL     1      45.540   7.056  12.804  0.00  0.00    +0.000 C 
BRANCH  17  18
ATOM     18  N   UNL     1      46.820   6.382  12.586  0.00  0.00    +0.000 N 
ATOM     19  H   UNL     1      47.562   7.038  12.343  0.00  0.00    +0.000 HD
BRANCH  18  20
ATOM     20  C   UNL     1      47.219   5.522  13.634  0.00  0.00    +0.000 A 
ATOM     21  C   UNL     1      47.727   5.984  14.856  0.00  0.00    +0.000 A 
ATOM     22  C   UNL     1      48.033   5.099  15.888  0.00  0.00    +0.000 A 
ATOM     23  C   UNL     1      47.790   3.752  15.686  0.00  0.00    +0.000 A 
ATOM     24  N   UNL     1      47.268   3.242  14.536  0.00  0.00    +0.000 NA
ATOM     25  C   UNL     1      46.986   4.143  13.560  0.00  0.00    +0.000 A 
BRANCH  23  26
ATOM     26  C   UNL     1      48.078   2.784  16.791  0.00  0.00    +0.000 C 
ATOM     27  N   UNL     1      47.197   2.811  17.835  0.00  0.00    +0.000 N 
ATOM     28  O   UNL     1      49.037   2.019  16.774  0.00  0.00    +0.000 OA
ATOM     29  H   UNL     1      46.441   3.483  17.830  0.00  0.00    +0.000 HD
ATOM     30  H   UNL     1      47.357   2.217  18.636  0.00  0.00    +0.000 HD
ENDBRANCH  23  26
ENDBRANCH  18  20
ENDBRANCH  17  18
ENDBRANCH  16  17
ENDBRANCH   5  16
TORSDOF 7
ENDMDL
MODEL 3
REMARK VINA RESULT:    -7.676      3.683      4.929
REMARK INTER + INTRA:         -11.721
REMARK INTER:                 -10.870
REMARK INTRA:                  -0.852
REMARK UNBOUND:                -1.128
REMARK  Name = 
REMARK  8 active torsions:
REMARK  status: ('A' for Active; 'I' for Inactive)
REMARK    1  A    between atoms: C_1  and  C_2
REMARK    2  A    between atoms: C_2  and  C_3
REMARK    3  A    between atoms: C_7  and  C_8
REMARK    4  A    between atoms: C_8  and  C_9
REMARK    5  A    between atoms: C_9  and  N_10
REMARK    6  A    between atoms: N_10  and  C_11
REMARK    7  A    between atoms: C_14  and  C_15
REMARK    8  A    between atoms: C_23  and  O_24
REMARK                            x       y       z     vdW  Elec       q    Type
REMARK                         _______ _______ _______ _____ _____    ______ ____
ROOT
ATOM      1  C   UNL     1      47.759   5.119  15.492  0.00  0.00    +0.000 A 
ATOM      2  C   UNL     1      48.280   6.285  14.913  0.00  0.00    +0.000 A 
ATOM      3  C   UNL     1      47.884   6.698  13.635  0.00  0.00    +0.000 A 
ATOM      4  C   UNL     1      46.965   5.946  12.899  0.00  0.00    +0.000 A 
ATOM      5  C   UNL     1      46.416   4.783  13.443  0.00  0.00    +0.000 A 
ATOM      6  C   UNL     1      46.806   4.413  14.743  0.00  0.00    +0.000 A 
ENDROOT
BRANCH   1   8
ATOM      7  C   UNL     1      48.080   3.042  16.804  0.00  0.00    +0.000 C 
ATOM      8  C   UNL     1      48.290   4.575  16.841  0.00  0.00    +0.000 C 
ATOM      9  C   UNL     1      49.792   4.926  17.011  0.00  0.00    +0.000 C 
ATOM     10  C   UNL     1      50.371   4.497  18.362  0.00  0.00    +0.000 C 
ATOM     11  C   UNL     1      49.571   5.047  19.540  0.00  0.00    +0.000 C 
ATOM     12  C   UNL     1      48.090   4.715  19.426  0.00  0.00    +0.000 C 
ATOM     13  C   UNL     1      47.525   5.150  18.077  0.00  0.00    +0.000 C 
BRANCH  11  14
ATOM     14  O   UNL     1      50.083   4.514  20.756  0.00  0.00    +0.000 OA
ATOM     15  H   UNL     1      50.607   5.208  21.194  0.00  0.00    +0.000 HD
ENDBRANCH  11  14
ENDBRANCH   1   8
BRANCH   5  16
ATOM     16  C   UNL     1      45.469   3.929  12.609  0.00  0.00    +0.000 C 
BRANCH  16  17
ATOM     17  C   UNL     1      44.498   4.757  11.758  0.00  0.00    +0.000 C 
BRANCH  17  18
ATOM     18  N   UNL     1      43.886   4.015  10.655  0.00  0.00    +0.000 N 
ATOM     19  H   UNL     1      43.116   4.528  10.229  0.00  0.00    +0.000 HD
BRANCH  18  20
ATOM     20  C   UNL     1      44.798   3.555   9.678  0.00  0.00    +0.000 A 
ATOM     21  C   UNL     1      45.041   2.197   9.432  0.00  0.00    +0.000 A 
ATOM     22  C   UNL     1      45.891   1.793   8.404  0.00  0.00    +0.000 A 
ATOM     23  C   UNL     1      46.464   2.771   7.609  0.00  0.00    +0.000 A 
ATOM     24  N   UNL     1      46.243   4.104   7.773  0.00  0.00    +0.000 NA
ATOM     25  C   UNL     1      45.407   4.448   8.787  0.00  0.00    +0.000 A 
BRANCH  23  26
ATOM     26  C   UNL     1      47.354   2.362   6.477  0.00  0.00    +0.000 C 
ATOM     27  N   UNL     1      47.302   3.166   5.373  0.00  0.00    +0.000 N 
ATOM     28  O   UNL     1      48.079   1.374   6.523  0.00  0.00    +0.000 OA
ATOM     29  H   UNL     1      46.662   3.950   5.360  0.00  0.00    +0.000 HD
ATOM     30  H   UNL     1      47.841   2.923   4.555  0.00  0.00    +0.000 HD
ENDBRANCH  23  26
ENDBRANCH  18  20
ENDBRANCH  17  18
ENDBRANCH  16  17
ENDBRANCH   5  16
TORSDOF 7
ENDMDL
MODEL 4
REMARK VINA RESULT:    -7.557      1.422      2.225
REMARK INTER + INTRA:         -11.557
REMARK INTER:                 -10.684
REMARK INTRA:                  -0.874
REMARK UNBOUND:                -1.128
REMARK  Name = 
REMARK  8 active torsions:
REMARK  status: ('A' for Active; 'I' for Inactive)
REMARK    1  A    between atoms: C_1  and  C_2
REMARK    2  A    between atoms: C_2  and  C_3
REMARK    3  A    between atoms: C_7  and  C_8
REMARK    4  A    between atoms: C_8  and  C_9
REMARK    5  A    between atoms: C_9  and  N_10
REMARK    6  A    between atoms: N_10  and  C_11
REMARK    7  A    between atoms: C_14  and  C_15
REMARK    8  A    between atoms: C_23  and  O_24
REMARK                            x       y       z     vdW  Elec       q    Type
REMARK                         _______ _______ _______ _____ _____    ______ ____
ROOT
ATOM      1  C   UNL     1      47.552   8.095  12.268  0.00  0.00    +0.000 A 
ATOM      2  C   UNL     1      46.563   9.089  12.249  0.00  0.00    +0.000 A 
ATOM      3  C   UNL     1      45.211   8.762  12.087  0.00  0.00    +0.000 A 
ATOM      4  C   UNL     1      44.817   7.432  11.926  0.00  0.00    +0.000 A 
ATOM      5  C   UNL     1      45.770   6.411  11.946  0.00  0.00    +0.000 A 
ATOM      6  C   UNL     1      47.116   6.768  12.147  0.00  0.00    +0.000 A 
ENDROOT
BRANCH   1   8
ATOM      7  C   UNL     1      49.567   8.040  13.708  0.00  0.00    +0.000 C 
ATOM      8  C   UNL     1      49.059   8.450  12.304  0.00  0.00    +0.000 C 
ATOM      9  C   UNL     1      49.822   7.684  11.192  0.00  0.00    +0.000 C 
ATOM     10  C   UNL     1      51.307   8.047  11.106  0.00  0.00    +0.000 C 
ATOM     11  C   UNL     1      51.531   9.549  10.952  0.00  0.00    +0.000 C 
ATOM     12  C   UNL     1      50.813  10.345  12.032  0.00  0.00    +0.000 C 
ATOM     13  C   UNL     1      49.334   9.976  12.105  0.00  0.00    +0.000 C 
BRANCH  11  14
ATOM     14  O   UNL     1      52.924   9.832  11.003  0.00  0.00    +0.000 OA
ATOM     15  H   UNL     1      53.396   9.001  11.184  0.00  0.00    +0.000 HD
ENDBRANCH  11  14
ENDBRANCH   1   8
BRANCH   5  16
ATOM     16  C   UNL     1      45.343   4.970  11.698  0.00  0.00    +0.000 C 
BRANCH  16  17
ATOM     17  C   UNL     1      43.872   4.836  11.286  0.00  0.00    +0.000 C 
BRANCH  17  18
ATOM     18  N   UNL     1      43.653   4.829   9.839  0.00  0.00    +0.000 N 
ATOM     19  H   UNL     1      43.663   5.769   9.445  0.00  0.00    +0.000 HD
BRANCH  18  20
ATOM     20  C   UNL     1      44.508   3.963   9.119  0.00  0.00    +0.000 A 
ATOM     21  C   UNL     1      45.503   4.418   8.243  0.00  0.00    +0.000 A 
ATOM     22  C   UNL     1      46.373   3.528   7.617  0.00  0.00    +0.000 A 
ATOM     23  C   UNL     1      46.248   2.181   7.909  0.00  0.00    +0.000 A 
ATOM     24  N   UNL     1      45.327   1.676   8.775  0.00  0.00    +0.000 NA
ATOM     25  C   UNL     1      44.503   2.584   9.362  0.00  0.00    +0.000 A 
BRANCH  23  26
ATOM     26  C   UNL     1      47.192   1.206   7.276  0.00  0.00    +0.000 C 
ATOM     27  N   UNL     1      48.346   1.747   6.783  0.00  0.00    +0.000 N 
ATOM     28  O   UNL     1      46.955   0.005   7.195  0.00  0.00    +0.000 OA
ATOM     29  H   UNL     1      48.488   2.747   6.834  0.00  0.00    +0.000 HD
ATOM     30  H   UNL     1      49.007   1.154   6.301  0.00  0.00    +0.000 HD
ENDBRANCH  23  26
ENDBRANCH  18  20
ENDBRANCH  17  18
ENDBRANCH  16  17
ENDBRANCH   5  16
TORSDOF 7
ENDMDL
MODEL 5
REMARK VINA RESULT:    -7.413      4.594      7.694
REMARK INTER + INTRA:         -11.358
REMARK INTER:                  -9.753
REMARK INTRA:                  -1.606
REMARK UNBOUND:                -1.128
REMARK  Name = 
REMARK  8 active torsions:
REMARK  status: ('A' for Active; 'I' for Inactive)
REMARK    1  A    between atoms: C_1  and  C_2
REMARK    2  A    between atoms: C_2  and  C_3
REMARK    3  A    between atoms: C_7  and  C_8
REMARK    4  A    between atoms: C_8  and  C_9
REMARK    5  A    between atoms: C_9  and  N_10
REMARK    6  A    between atoms: N_10  and  C_11
REMARK    7  A    between atoms: C_14  and  C_15
REMARK    8  A    between atoms: C_23  and  O_24
REMARK                            x       y       z     vdW  Elec       q    Type
REMARK                         _______ _______ _______ _____ _____    ______ ____
ROOT
ATOM      1  C   UNL     1      45.794   7.092  11.619  0.00  0.00    +0.000 A 
ATOM      2  C   UNL     1      44.974   8.197  11.891  0.00  0.00    +0.000 A 
ATOM      3  C   UNL     1      45.519   9.421  12.294  0.00  0.00    +0.000 A 
ATOM      4  C   UNL     1      46.899   9.567  12.450  0.00  0.00    +0.000 A 
ATOM      5  C   UNL     1      47.752   8.494  12.182  0.00  0.00    +0.000 A 
ATOM      6  C   UNL     1      47.178   7.287  11.743  0.00  0.00    +0.000 A 
ENDROOT
BRANCH   1   8
ATOM      7  C   UNL     1      45.632   5.352   9.863  0.00  0.00    +0.000 C 
ATOM      8  C   UNL     1      45.200   5.697  11.309  0.00  0.00    +0.000 C 
ATOM      9  C   UNL     1      45.739   4.645  12.315  0.00  0.00    +0.000 C 
ATOM     10  C   UNL     1      45.131   3.252  12.128  0.00  0.00    +0.000 C 
ATOM     11  C   UNL     1      43.605   3.274  12.165  0.00  0.00    +0.000 C 
ATOM     12  C   UNL     1      43.027   4.282  11.182  0.00  0.00    +0.000 C 
ATOM     13  C   UNL     1      43.639   5.665  11.380  0.00  0.00    +0.000 C 
BRANCH  11  14
ATOM     14  O   UNL     1      43.101   1.978  11.863  0.00  0.00    +0.000 OA
ATOM     15  H   UNL     1      43.240   1.811  10.915  0.00  0.00    +0.000 HD
ENDBRANCH  11  14
ENDBRANCH   1   8
BRANCH   5  16
ATOM     16  C   UNL     1      49.250   8.637  12.422  0.00  0.00    +0.000 C 
BRANCH  16  17
ATOM     17  C   UNL     1      49.827   7.537  13.322  0.00  0.00    +0.000 C 
BRANCH  17  18
ATOM     18  N   UNL     1      49.679   7.796  14.754  0.00  0.00    +0.000 N 
ATOM     19  H   UNL     1      49.227   8.691  14.937  0.00  0.00    +0.000 HD
BRANCH  18  20
ATOM     20  C   UNL     1      49.061   6.753  15.481  0.00  0.00    +0.000 A 
ATOM     21  C   UNL     1      48.087   5.907  14.933  0.00  0.00    +0.000 A 
ATOM     22  C   UNL     1      47.564   4.843  15.666  0.00  0.00    +0.000 A 
ATOM     23  C   UNL     1      48.058   4.623  16.939  0.00  0.00    +0.000 A 
ATOM     24  N   UNL     1      49.026   5.386  17.517  0.00  0.00    +0.000 NA
ATOM     25  C   UNL     1      49.505   6.410  16.764  0.00  0.00    +0.000 A 
BRANCH  23  26
ATOM     26  C   UNL     1      47.538   3.466  17.734  0.00  0.00    +0.000 C 
ATOM     27  N   UNL     1      48.298   3.109  18.812  0.00  0.00    +0.000 N 
ATOM     28  O   UNL     1      46.505   2.869  17.445  0.00  0.00    +0.000 OA
ATOM     29  H   UNL     1      49.162   3.601  18.995  0.00  0.00    +0.000 HD
ATOM     30  H   UNL     1      48.031   2.307  19.365  0.00  0.00    +0.000 HD
ENDBRANCH  23  26
ENDBRANCH  18  20
ENDBRANCH  17  18
ENDBRANCH  16  17
ENDBRANCH   5  16
TORSDOF 7
ENDMDL
MODEL 6
REMARK VINA RESULT:    -7.348      2.620      3.734
REMARK INTER + INTRA:         -11.268
REMARK INTER:                 -10.224
REMARK INTRA:                  -1.044
REMARK UNBOUND:                -1.128
REMARK  Name = 
REMARK  8 active torsions:
REMARK  status: ('A' for Active; 'I' for Inactive)
REMARK    1  A    between atoms: C_1  and  C_2
REMARK    2  A    between atoms: C_2  and  C_3
REMARK    3  A    between atoms: C_7  and  C_8
REMARK    4  A    between atoms: C_8  and  C_9
REMARK    5  A    between atoms: C_9  and  N_10
REMARK    6  A    between atoms: N_10  and  C_11
REMARK    7  A    between atoms: C_14  and  C_15
REMARK    8  A    between atoms: C_23  and  O_24
REMARK                            x       y       z     vdW  Elec       q    Type
REMARK                         _______ _______ _______ _____ _____    ______ ____
ROOT
ATOM      1  C   UNL     1      48.243   7.173  13.873  0.00  0.00    +0.000 A 
ATOM      2  C   UNL     1      48.756   7.847  12.755  0.00  0.00    +0.000 A 
ATOM      3  C   UNL     1      48.217   7.648  11.479  0.00  0.00    +0.000 A 
ATOM      4  C   UNL     1      47.160   6.757  11.286  0.00  0.00    +0.000 A 
ATOM      5  C   UNL     1      46.614   6.070  12.373  0.00  0.00    +0.000 A 
ATOM      6  C   UNL     1      47.152   6.320  13.649  0.00  0.00    +0.000 A 
ENDROOT
BRANCH   1   8
ATOM      7  C   UNL     1      50.438   7.393  15.002  0.00  0.00    +0.000 C 
ATOM      8  C   UNL     1      48.916   7.275  15.263  0.00  0.00    +0.000 C 
ATOM      9  C   UNL     1      48.387   8.517  16.029  0.00  0.00    +0.000 C 
ATOM     10  C   UNL     1      48.942   8.641  17.451  0.00  0.00    +0.000 C 
ATOM     11  C   UNL     1      48.709   7.380  18.279  0.00  0.00    +0.000 C 
ATOM     12  C   UNL     1      49.226   6.134  17.574  0.00  0.00    +0.000 C 
ATOM     13  C   UNL     1      48.664   6.021  16.161  0.00  0.00    +0.000 C 
BRANCH  11  14
ATOM     14  O   UNL     1      49.353   7.511  19.541  0.00  0.00    +0.000 OA
ATOM     15  H   UNL     1      50.111   8.112  19.433  0.00  0.00    +0.000 HD
ENDBRANCH  11  14
ENDBRANCH   1   8
BRANCH   5  16
ATOM     16  C   UNL     1      45.508   5.047  12.148  0.00  0.00    +0.000 C 
BRANCH  16  17
ATOM     17  C   UNL     1      44.442   5.518  11.150  0.00  0.00    +0.000 C 
BRANCH  17  18
ATOM     18  N   UNL     1      43.822   4.438  10.383  0.00  0.00    +0.000 N 
ATOM     19  H   UNL     1      42.949   4.730   9.946  0.00  0.00    +0.000 HD
BRANCH  18  20
ATOM     20  C   UNL     1      44.678   3.813   9.447  0.00  0.00    +0.000 A 
ATOM     21  C   UNL     1      45.509   4.524   8.571  0.00  0.00    +0.000 A 
ATOM     22  C   UNL     1      46.393   3.862   7.722  0.00  0.00    +0.000 A 
ATOM     23  C   UNL     1      46.453   2.481   7.790  0.00  0.00    +0.000 A 
ATOM     24  N   UNL     1      45.698   1.732   8.641  0.00  0.00    +0.000 NA
ATOM     25  C   UNL     1      44.852   2.423   9.450  0.00  0.00    +0.000 A 
BRANCH  23  26
ATOM     26  C   UNL     1      47.419   1.747   6.913  0.00  0.00    +0.000 C 
ATOM     27  N   UNL     1      48.513   2.465   6.521  0.00  0.00    +0.000 N 
ATOM     28  O   UNL     1      47.248   0.585   6.560  0.00  0.00    +0.000 OA
ATOM     29  H   UNL     1      48.599   3.434   6.802  0.00  0.00    +0.000 HD
ATOM     30  H   UNL     1      49.183   2.048   5.891  0.00  0.00    +0.000 HD
ENDBRANCH  23  26
ENDBRANCH  18  20
ENDBRANCH  17  18
ENDBRANCH  16  17
ENDBRANCH   5  16
TORSDOF 7
ENDMDL
MODEL 7
REMARK VINA RESULT:    -6.881      1.953      3.047
REMARK INTER + INTRA:         -10.624
REMARK INTER:                  -9.808
REMARK INTRA:                  -0.815
REMARK UNBOUND:                -1.128
REMARK  Name = 
REMARK  8 active torsions:
REMARK  status: ('A' for Active; 'I' for Inactive)
REMARK    1  A    between atoms: C_1  and  C_2
REMARK    2  A    between atoms: C_2  and  C_3
REMARK    3  A    between atoms: C_7  and  C_8
REMARK    4  A    between atoms: C_8  and  C_9
REMARK    5  A    between atoms: C_9  and  N_10
REMARK    6  A    between atoms: N_10  and  C_11
REMARK    7  A    between atoms: C_14  and  C_15
REMARK    8  A    between atoms: C_23  and  O_24
REMARK                            x       y       z     vdW  Elec       q    Type
REMARK                         _______ _______ _______ _____ _____    ______ ____
ROOT
ATOM      1  C   UNL     1      46.899   8.673  12.744  0.00  0.00    +0.000 A 
ATOM      2  C   UNL     1      46.109   9.662  12.140  0.00  0.00    +0.000 A 
ATOM      3  C   UNL     1      44.880   9.346  11.550  0.00  0.00    +0.000 A 
ATOM      4  C   UNL     1      44.417   8.029  11.535  0.00  0.00    +0.000 A 
ATOM      5  C   UNL     1      45.169   7.015  12.132  0.00  0.00    +0.000 A 
ATOM      6  C   UNL     1      46.383   7.369  12.750  0.00  0.00    +0.000 A 
ENDROOT
BRANCH   1   8
ATOM      7  C   UNL     1      48.588  10.474  12.961  0.00  0.00    +0.000 C 
ATOM      8  C   UNL     1      48.320   8.981  13.275  0.00  0.00    +0.000 C 
ATOM      9  C   UNL     1      48.396   8.713  14.802  0.00  0.00    +0.000 C 
ATOM     10  C   UNL     1      49.796   8.912  15.390  0.00  0.00    +0.000 C 
ATOM     11  C   UNL     1      50.855   8.088  14.663  0.00  0.00    +0.000 C 
ATOM     12  C   UNL     1      50.831   8.328  13.160  0.00  0.00    +0.000 C 
ATOM     13  C   UNL     1      49.432   8.124  12.587  0.00  0.00    +0.000 C 
BRANCH  11  14
ATOM     14  O   UNL     1      52.144   8.410  15.172  0.00  0.00    +0.000 OA
ATOM     15  H   UNL     1      52.236   9.378  15.175  0.00  0.00    +0.000 HD
ENDBRANCH  11  14
ENDBRANCH   1   8
BRANCH   5  16
ATOM     16  C   UNL     1      44.694   5.570  12.051  0.00  0.00    +0.000 C 
BRANCH  16  17
ATOM     17  C   UNL     1      43.824   5.287  10.820  0.00  0.00    +0.000 C 
BRANCH  17  18
ATOM     18  N   UNL     1      43.751   3.872  10.452  0.00  0.00    +0.000 N 
ATOM     19  H   UNL     1      42.815   3.602  10.153  0.00  0.00    +0.000 HD
BRANCH  18  20
ATOM     20  C   UNL     1      44.726   3.455   9.518  0.00  0.00    +0.000 A 
ATOM     21  C   UNL     1      45.065   2.112   9.308  0.00  0.00    +0.000 A 
ATOM     22  C   UNL     1      45.977   1.745   8.320  0.00  0.00    +0.000 A 
ATOM     23  C   UNL     1      46.516   2.744   7.528  0.00  0.00    +0.000 A 
ATOM     24  N   UNL     1      46.205   4.063   7.657  0.00  0.00    +0.000 NA
ATOM     25  C   UNL     1      45.311   4.370   8.633  0.00  0.00    +0.000 A 
BRANCH  23  26
ATOM     26  C   UNL     1      47.473   2.374   6.437  0.00  0.00    +0.000 C 
ATOM     27  N   UNL     1      47.320   3.063   5.267  0.00  0.00    +0.000 N 
ATOM     28  O   UNL     1      48.334   1.511   6.571  0.00  0.00    +0.000 OA
ATOM     29  H   UNL     1      46.573   3.741   5.184  0.00  0.00    +0.000 HD
ATOM     30  H   UNL     1      47.901   2.833   4.474  0.00  0.00    +0.000 HD
ENDBRANCH  23  26
ENDBRANCH  18  20
ENDBRANCH  17  18
ENDBRANCH  16  17
ENDBRANCH   5  16
TORSDOF 7
ENDMDL
MODEL 8
REMARK VINA RESULT:    -6.391      4.015      6.168
REMARK INTER + INTRA:          -9.948
REMARK INTER:                  -9.008
REMARK INTRA:                  -0.941
REMARK UNBOUND:                -1.128
REMARK  Name = 
REMARK  8 active torsions:
REMARK  status: ('A' for Active; 'I' for Inactive)
REMARK    1  A    between atoms: C_1  and  C_2
REMARK    2  A    between atoms: C_2  and  C_3
REMARK    3  A    between atoms: C_7  and  C_8
REMARK    4  A    between atoms: C_8  and  C_9
REMARK    5  A    between atoms: C_9  and  N_10
REMARK    6  A    between atoms: N_10  and  C_11
REMARK    7  A    between atoms: C_14  and  C_15
REMARK    8  A    between atoms: C_23  and  O_24
REMARK                            x       y       z     vdW  Elec       q    Type
REMARK                         _______ _______ _______ _____ _____    ______ ____
ROOT
ATOM      1  C   UNL     1      49.523   6.895  15.764  0.00  0.00    +0.000 A 
ATOM      2  C   UNL     1      50.804   7.455  15.647  0.00  0.00    +0.000 A 
ATOM      3  C   UNL     1      51.223   8.060  14.457  0.00  0.00    +0.000 A 
ATOM      4  C   UNL     1      50.376   8.107  13.348  0.00  0.00    +0.000 A 
ATOM      5  C   UNL     1      49.090   7.568  13.424  0.00  0.00    +0.000 A 
ATOM      6  C   UNL     1      48.684   7.000  14.646  0.00  0.00    +0.000 A 
ENDROOT
BRANCH   1   8
ATOM      7  C   UNL     1      48.622   7.151  18.059  0.00  0.00    +0.000 C 
ATOM      8  C   UNL     1      49.096   6.101  17.023  0.00  0.00    +0.000 C 
ATOM      9  C   UNL     1      47.955   5.110  16.675  0.00  0.00    +0.000 C 
ATOM     10  C   UNL     1      47.534   4.224  17.851  0.00  0.00    +0.000 C 
ATOM     11  C   UNL     1      48.712   3.468  18.461  0.00  0.00    +0.000 C 
ATOM     12  C   UNL     1      49.854   4.402  18.834  0.00  0.00    +0.000 C 
ATOM     13  C   UNL     1      50.265   5.277  17.654  0.00  0.00    +0.000 C 
BRANCH  11  14
ATOM     14  O   UNL     1      48.279   2.764  19.619  0.00  0.00    +0.000 OA
ATOM     15  H   UNL     1      47.318   2.630  19.551  0.00  0.00    +0.000 HD
ENDBRANCH  11  14
ENDBRANCH   1   8
BRANCH   5  16
ATOM     16  C   UNL     1      48.196   7.559  12.191  0.00  0.00    +0.000 C 
BRANCH  16  17
ATOM     17  C   UNL     1      47.014   8.532  12.293  0.00  0.00    +0.000 C 
BRANCH  17  18
ATOM     18  N   UNL     1      45.907   8.044  13.116  0.00  0.00    +0.000 N 
ATOM     19  H   UNL     1      45.198   8.760  13.267  0.00  0.00    +0.000 HD
BRANCH  18  20
ATOM     20  C   UNL     1      45.328   6.836  12.668  0.00  0.00    +0.000 A 
ATOM     21  C   UNL     1      44.588   6.731  11.482  0.00  0.00    +0.000 A 
ATOM     22  C   UNL     1      44.103   5.501  11.043  0.00  0.00    +0.000 A 
ATOM     23  C   UNL     1      44.400   4.377  11.793  0.00  0.00    +0.000 A 
ATOM     24  N   UNL     1      45.141   4.404  12.936  0.00  0.00    +0.000 NA
ATOM     25  C   UNL     1      45.592   5.626  13.323  0.00  0.00    +0.000 A 
BRANCH  23  26
ATOM     26  C   UNL     1      43.921   3.038  11.325  0.00  0.00    +0.000 C 
ATOM     27  N   UNL     1      43.583   2.159  12.315  0.00  0.00    +0.000 N 
ATOM     28  O   UNL     1      43.837   2.738  10.138  0.00  0.00    +0.000 OA
ATOM     29  H   UNL     1      43.702   2.431  13.282  0.00  0.00    +0.000 HD
ATOM     30  H   UNL     1      43.295   1.223  12.072  0.00  0.00    +0.000 HD
ENDBRANCH  23  26
ENDBRANCH  18  20
ENDBRANCH  17  18
ENDBRANCH  16  17
ENDBRANCH   5  16
TORSDOF 7
ENDMDL
MODEL 9
REMARK VINA RESULT:    -6.319      4.539      8.419
REMARK INTER + INTRA:          -9.848
REMARK INTER:                  -8.455
REMARK INTRA:                  -1.393
REMARK UNBOUND:                -1.128
REMARK  Name = 
REMARK  8 active torsions:
REMARK  status: ('A' for Active; 'I' for Inactive)
REMARK    1  A    between atoms: C_1  and  C_2
REMARK    2  A    between atoms: C_2  and  C_3
REMARK    3  A    between atoms: C_7  and  C_8
REMARK    4  A    between atoms: C_8  and  C_9
REMARK    5  A    between atoms: C_9  and  N_10
REMARK    6  A    between atoms: N_10  and  C_11
REMARK    7  A    between atoms: C_14  and  C_15
REMARK    8  A    between atoms: C_23  and  O_24
REMARK                            x       y       z     vdW  Elec       q    Type
REMARK                         _______ _______ _______ _____ _____    ______ ____
ROOT
ATOM      1  C   UNL     1      46.049   6.856  12.198  0.00  0.00    +0.000 A 
ATOM      2  C   UNL     1      45.282   7.974  12.555  0.00  0.00    +0.000 A 
ATOM      3  C   UNL     1      45.840   9.257  12.580  0.00  0.00    +0.000 A 
ATOM      4  C   UNL     1      47.186   9.452  12.262  0.00  0.00    +0.000 A 
ATOM      5  C   UNL     1      47.983   8.367  11.894  0.00  0.00    +0.000 A 
ATOM      6  C   UNL     1      47.385   7.094  11.841  0.00  0.00    +0.000 A 
ENDROOT
BRANCH   1   8
ATOM      7  C   UNL     1      46.462   4.632  13.209  0.00  0.00    +0.000 C 
ATOM      8  C   UNL     1      45.485   5.418  12.300  0.00  0.00    +0.000 C 
ATOM      9  C   UNL     1      44.058   5.439  12.907  0.00  0.00    +0.000 C 
ATOM     10  C   UNL     1      43.395   4.060  12.963  0.00  0.00    +0.000 C 
ATOM     11  C   UNL     1      43.372   3.371  11.601  0.00  0.00    +0.000 C 
ATOM     12  C   UNL     1      44.755   3.311  10.969  0.00  0.00    +0.000 C 
ATOM     13  C   UNL     1      45.402   4.692  10.919  0.00  0.00    +0.000 C 
BRANCH  11  14
ATOM     14  O   UNL     1      42.859   2.051  11.742  0.00  0.00    +0.000 OA
ATOM     15  H   UNL     1      43.256   1.655  12.537  0.00  0.00    +0.000 HD
ENDBRANCH  11  14
ENDBRANCH   1   8
BRANCH   5  16
ATOM     16  C   UNL     1      49.467   8.574  11.617  0.00  0.00    +0.000 C 
BRANCH  16  17
ATOM     17  C   UNL     1      50.377   7.854  12.621  0.00  0.00    +0.000 C 
BRANCH  17  18
ATOM     18  N   UNL     1      50.782   8.679  13.759  0.00  0.00    +0.000 N 
ATOM     19  H   UNL     1      50.741   9.675  13.545  0.00  0.00    +0.000 HD
BRANCH  18  20
ATOM     20  C   UNL     1      50.108   8.388  14.967  0.00  0.00    +0.000 A 
ATOM     21  C   UNL     1      49.102   9.203  15.503  0.00  0.00    +0.000 A 
ATOM     22  C   UNL     1      48.413   8.832  16.656  0.00  0.00    +0.000 A 
ATOM     23  C   UNL     1      48.726   7.618  17.241  0.00  0.00    +0.000 A 
ATOM     24  N   UNL     1      49.668   6.764  16.753  0.00  0.00    +0.000 NA
ATOM     25  C   UNL     1      50.312   7.169  15.627  0.00  0.00    +0.000 A 
BRANCH  23  26
ATOM     26  C   UNL     1      47.977   7.180  18.460  0.00  0.00    +0.000 C 
ATOM     27  N   UNL     1      47.293   6.004  18.335  0.00  0.00    +0.000 N 
ATOM     28  O   UNL     1      47.966   7.826  19.503  0.00  0.00    +0.000 OA
ATOM     29  H   UNL     1      47.295   5.520  17.446  0.00  0.00    +0.000 HD
ATOM     30  H   UNL     1      46.728   5.672  19.104  0.00  0.00    +0.000 HD
ENDBRANCH  23  26
ENDBRANCH  18  20
ENDBRANCH  17  18
ENDBRANCH  16  17
ENDBRANCH   5  16
TORSDOF 7
ENDMDL
