MODEL 1
REMARK VINA RESULT:    -8.602      0.000      0.000
REMARK INTER + INTRA:         -12.314
REMARK INTER:                 -11.620
REMARK INTRA:                  -0.695
REMARK UNBOUND:                -0.695
REMARK  Name = 
REMARK  7 active torsions:
REMARK  status: ('A' for Active; 'I' for Inactive)
REMARK    1  A    between atoms: C_1  and  C_2
REMARK    2  A    between atoms: C_2  and  N_3
REMARK    3  A    between atoms: C_2  and  C_16
REMARK    4  A    between atoms: C_4  and  C_6
REMARK    5  A    between atoms: C_19  and  C_20
REMARK    6  A    between atoms: C_20  and  O_21
REMARK    7  A    between atoms: O_21  and  C_22
REMARK                            x       y       z     vdW  Elec       q    Type
REMARK                         _______ _______ _______ _____ _____    ______ ____
ROOT
ATOM      1  C   UNL     1      47.843   8.884  12.128  0.00  0.00    +0.000 C 
ATOM      2  C   UNL     1      46.782   8.314  13.076  0.00  0.00    +0.000 C 
ENDROOT
BRANCH   2   3
ATOM      3  C   UNL     1      46.016   7.220  12.347  0.00  0.00    +0.000 A 
ATOM      4  C   UNL     1      46.481   6.791  11.097  0.00  0.00    +0.000 A 
ATOM      5  C   UNL     1      45.979   5.628  10.515  0.00  0.00    +0.000 A 
ATOM      6  C   UNL     1      44.973   4.891  11.154  0.00  0.00    +0.000 A 
ATOM      7  C   UNL     1      44.446   5.359  12.364  0.00  0.00    +0.000 A 
ATOM      8  C   UNL     1      44.954   6.522  12.950  0.00  0.00    +0.000 A 
BRANCH   6   9
ATOM      9  C   UNL     1      44.487   3.597  10.550  0.00  0.00    +0.000 C 
BRANCH   9  10
ATOM     10  O   UNL     1      44.310   3.759   9.138  0.00  0.00    +0.000 OA
BRANCH  10  11
ATOM     11  C   UNL     1      45.235   3.019   8.427  0.00  0.00    +0.000 A 
ATOM     12  C   UNL     1      45.914   3.654   7.399  0.00  0.00    +0.000 A 
ATOM     13  C   UNL     1      46.857   2.919   6.681  0.00  0.00    +0.000 A 
ATOM     14  C   UNL     1      47.087   1.587   7.017  0.00  0.00    +0.000 A 
ATOM     15  C   UNL     1      46.361   1.045   8.061  0.00  0.00    +0.000 A 
ATOM     16  N   UNL     1      45.442   1.727   8.768  0.00  0.00    +0.000 NA
ENDBRANCH  10  11
ENDBRANCH   9  10
ENDBRANCH   6   9
ENDBRANCH   2   3
BRANCH   2  17
ATOM     17  N   UNL     1      47.371   7.824  14.305  0.00  0.00    +0.000 N 
ATOM     18  C   UNL     1      48.320   6.839  14.343  0.00  0.00    +0.000 C 
ATOM     19  O   UNL     1      48.883   6.412  13.341  0.00  0.00    +0.000 OA
ATOM     20  H   UNL     1      46.812   7.979  15.134  0.00  0.00    +0.000 HD
BRANCH  18  21
ATOM     21  C   UNL     1      48.664   6.342  15.680  0.00  0.00    +0.000 A 
ATOM     22  C   UNL     1      49.570   7.010  16.491  0.00  0.00    +0.000 A 
ATOM     23  S   UNL     1      49.841   6.224  17.986  0.00  0.00    +0.000 S 
ATOM     24  C   UNL     1      48.799   4.944  17.567  0.00  0.00    +0.000 A 
ATOM     25  N   UNL     1      48.622   3.873  18.388  0.00  0.00    +0.000 NA
ATOM     26  C   UNL     1      47.833   2.962  17.918  0.00  0.00    +0.000 A 
ATOM     27  N   UNL     1      47.185   3.038  16.711  0.00  0.00    +0.000 N 
ATOM     28  C   UNL     1      47.280   4.127  15.887  0.00  0.00    +0.000 A 
ATOM     29  O   UNL     1      46.592   4.212  14.875  0.00  0.00    +0.000 OA
ATOM     30  C   UNL     1      48.208   5.146  16.336  0.00  0.00    +0.000 A 
ATOM     31  H   UNL     1      46.547   2.314  16.414  0.00  0.00    +0.000 HD
ENDBRANCH  18  21
ENDBRANCH   2  17
TORSDOF 6
ENDMDL
MODEL 2
REMARK VINA RESULT:    -8.134      2.037      2.763
REMARK INTER + INTRA:         -11.681
REMARK INTER:                 -10.590
REMARK INTRA:                  -1.091
REMARK UNBOUND:                -0.695
REMARK  Name = 
REMARK  7 active torsions:
REMARK  status: ('A' for Active; 'I' for Inactive)
REMARK    1  A    between atoms: C_1  and  C_2
REMARK    2  A    between atoms: C_2  and  N_3
REMARK    3  A    between atoms: C_2  and  C_16
REMARK    4  A    between atoms: C_4  and  C_6
REMARK    5  A    between atoms: C_19  and  C_20
REMARK    6  A    between atoms: C_20  and  O_21
REMARK    7  A    between atoms: O_21  and  C_22
REMARK                            x       y       z     vdW  Elec       q    Type
REMARK                         _______ _______ _______ _____ _____    ______ ____
ROOT
ATOM      1  C   UNL     1      48.993   6.925  12.752  0.00  0.00    +0.000 C 
ATOM      2  C   UNL     1      47.768   6.813  13.669  0.00  0.00    +0.000 C 
ENDROOT
BRANCH   2   3
ATOM      3  C   UNL     1      46.664   6.084  12.918  0.00  0.00    +0.000 A 
ATOM      4  C   UNL     1      46.155   6.659  11.746  0.00  0.00    +0.000 A 
ATOM      5  C   UNL     1      45.342   5.918  10.888  0.00  0.00    +0.000 A 
ATOM      6  C   UNL     1      44.991   4.600  11.205  0.00  0.00    +0.000 A 
ATOM      7  C   UNL     1      45.430   4.047  12.415  0.00  0.00    +0.000 A 
ATOM      8  C   UNL     1      46.249   4.788  13.271  0.00  0.00    +0.000 A 
BRANCH   6   9
ATOM      9  C   UNL     1      44.170   3.785  10.237  0.00  0.00    +0.000 C 
BRANCH   9  10
ATOM     10  O   UNL     1      44.427   4.222   8.898  0.00  0.00    +0.000 OA
BRANCH  10  11
ATOM     11  C   UNL     1      45.362   3.416   8.276  0.00  0.00    +0.000 A 
ATOM     12  C   UNL     1      45.457   2.099   8.696  0.00  0.00    +0.000 A 
ATOM     13  C   UNL     1      46.390   1.273   8.069  0.00  0.00    +0.000 A 
ATOM     14  C   UNL     1      47.186   1.791   7.051  0.00  0.00    +0.000 A 
ATOM     15  C   UNL     1      47.015   3.118   6.702  0.00  0.00    +0.000 A 
ATOM     16  N   UNL     1      46.127   3.939   7.292  0.00  0.00    +0.000 NA
ENDBRANCH  10  11
ENDBRANCH   9  10
ENDBRANCH   6   9
ENDBRANCH   2   3
BRANCH   2  17
ATOM     17  N   UNL     1      48.092   6.151  14.915  0.00  0.00    +0.000 N 
ATOM     18  C   UNL     1      48.639   6.798  15.989  0.00  0.00    +0.000 C 
ATOM     19  O   UNL     1      48.736   8.019  16.059  0.00  0.00    +0.000 OA
ATOM     20  H   UNL     1      48.230   5.151  14.841  0.00  0.00    +0.000 HD
BRANCH  18  21
ATOM     21  C   UNL     1      49.072   5.936  17.095  0.00  0.00    +0.000 A 
ATOM     22  C   UNL     1      48.157   5.322  17.938  0.00  0.00    +0.000 A 
ATOM     23  S   UNL     1      48.895   4.399  19.174  0.00  0.00    +0.000 S 
ATOM     24  C   UNL     1      50.454   4.838  18.650  0.00  0.00    +0.000 A 
ATOM     25  N   UNL     1      51.570   4.439  19.320  0.00  0.00    +0.000 NA
ATOM     26  C   UNL     1      52.680   4.884  18.828  0.00  0.00    +0.000 A 
ATOM     27  N   UNL     1      52.776   5.672  17.710  0.00  0.00    +0.000 N 
ATOM     28  C   UNL     1      51.687   6.039  16.965  0.00  0.00    +0.000 A 
ATOM     29  O   UNL     1      51.823   6.641  15.905  0.00  0.00    +0.000 OA
ATOM     30  C   UNL     1      50.412   5.624  17.515  0.00  0.00    +0.000 A 
ATOM     31  H   UNL     1      53.674   5.956  17.345  0.00  0.00    +0.000 HD
ENDBRANCH  18  21
ENDBRANCH   2  17
TORSDOF 6
ENDMDL
MODEL 3
REMARK VINA RESULT:    -8.063      2.583      3.521
REMARK INTER + INTRA:         -11.586
REMARK INTER:                 -10.329
REMARK INTRA:                  -1.256
REMARK UNBOUND:                -0.695
REMARK  Name = 
REMARK  7 active torsions:
REMARK  status: ('A' for Active; 'I' for Inactive)
REMARK    1  A    between atoms: C_1  and  C_2
REMARK    2  A    between atoms: C_2  and  N_3
REMARK    3  A    between atoms: C_2  and  C_16
REMARK    4  A    between atoms: C_4  and  C_6
REMARK    5  A    between atoms: C_19  and  C_20
REMARK    6  A    between atoms: C_20  and  O_21
REMARK    7  A    between atoms: O_21  and  C_22
REMARK                            x       y       z     vdW  Elec       q    Type
REMARK                         _______ _______ _______ _____ _____    ______ ____
ROOT
ATOM      1  C   UNL     1      47.179   4.299  15.804  0.00  0.00    +0.000 C 
ATOM      2  C   UNL     1      47.623   5.173  14.625  0.00  0.00    +0.000 C 
ENDROOT
BRANCH   2   3
ATOM      3  C   UNL     1      46.631   4.995  13.486  0.00  0.00    +0.000 A 
ATOM      4  C   UNL     1      46.490   6.026  12.548  0.00  0.00    +0.000 A 
ATOM      5  C   UNL     1      45.801   5.810  11.355  0.00  0.00    +0.000 A 
ATOM      6  C   UNL     1      45.206   4.569  11.093  0.00  0.00    +0.000 A 
ATOM      7  C   UNL     1      45.274   3.561  12.062  0.00  0.00    +0.000 A 
ATOM      8  C   UNL     1      45.969   3.776  13.254  0.00  0.00    +0.000 A 
BRANCH   6   9
ATOM      9  C   UNL     1      44.525   4.325   9.770  0.00  0.00    +0.000 C 
BRANCH   9  10
ATOM     10  O   UNL     1      44.508   2.921   9.486  0.00  0.00    +0.000 OA
BRANCH  10  11
ATOM     11  C   UNL     1      45.433   2.594   8.512  0.00  0.00    +0.000 A 
ATOM     12  C   UNL     1      45.768   3.570   7.589  0.00  0.00    +0.000 A 
ATOM     13  C   UNL     1      46.708   3.255   6.607  0.00  0.00    +0.000 A 
ATOM     14  C   UNL     1      47.275   1.983   6.589  0.00  0.00    +0.000 A 
ATOM     15  C   UNL     1      46.877   1.078   7.555  0.00  0.00    +0.000 A 
ATOM     16  N   UNL     1      45.970   1.353   8.511  0.00  0.00    +0.000 NA
ENDBRANCH  10  11
ENDBRANCH   9  10
ENDBRANCH   6   9
ENDBRANCH   2   3
BRANCH   2  17
ATOM     17  N   UNL     1      47.750   6.564  15.009  0.00  0.00    +0.000 N 
ATOM     18  C   UNL     1      48.946   7.152  15.314  0.00  0.00    +0.000 C 
ATOM     19  O   UNL     1      50.030   6.612  15.118  0.00  0.00    +0.000 OA
ATOM     20  H   UNL     1      46.906   6.979  15.382  0.00  0.00    +0.000 HD
BRANCH  18  21
ATOM     21  C   UNL     1      48.863   8.512  15.861  0.00  0.00    +0.000 A 
ATOM     22  C   UNL     1      49.195   9.622  15.099  0.00  0.00    +0.000 A 
ATOM     23  S   UNL     1      49.056  11.094  15.959  0.00  0.00    +0.000 S 
ATOM     24  C   UNL     1      48.602  10.284  17.386  0.00  0.00    +0.000 A 
ATOM     25  N   UNL     1      48.392  10.957  18.551  0.00  0.00    +0.000 NA
ATOM     26  C   UNL     1      48.092  10.203  19.559  0.00  0.00    +0.000 A 
ATOM     27  N   UNL     1      47.959   8.840  19.501  0.00  0.00    +0.000 N 
ATOM     28  C   UNL     1      48.093   8.131  18.337  0.00  0.00    +0.000 A 
ATOM     29  O   UNL     1      47.847   6.930  18.300  0.00  0.00    +0.000 OA
ATOM     30  C   UNL     1      48.498   8.921  17.191  0.00  0.00    +0.000 A 
ATOM     31  H   UNL     1      47.682   8.306  20.312  0.00  0.00    +0.000 HD
ENDBRANCH  18  21
ENDBRANCH   2  17
TORSDOF 6
ENDMDL
MODEL 4
REMARK VINA RESULT:    -7.881      1.890      2.255
REMARK INTER + INTRA:         -11.340
REMARK INTER:                 -10.232
REMARK INTRA:                  -1.108
REMARK UNBOUND:                -0.695
REMARK  Name = 
REMARK  7 active torsions:
REMARK  status: ('A' for Active; 'I' for Inactive)
REMARK    1  A    between atoms: C_1  and  C_2
REMARK    2  A    between atoms: C_2  and  N_3
REMARK    3  A    between atoms: C_2  and  C_16
REMARK    4  A    between atoms: C_4  and  C_6
REMARK    5  A    between atoms: C_19  and  C_20
REMARK    6  A    between atoms: C_20  and  O_21
REMARK    7  A    between atoms: O_21  and  C_22
REMARK                            x       y       z     vdW  Elec       q    Type
REMARK                         _______ _______ _______ _____ _____    ______ ____
ROOT
ATOM      1  C   UNL     1      48.406   7.908  12.123  0.00  0.00    +0.000 C 
ATOM      2  C   UNL     1      47.088   8.000  12.903  0.00  0.00    +0.000 C 
ENDROOT
BRANCH   2   3
ATOM      3  C   UNL     1      46.224   6.801  12.540  0.00  0.00    +0.000 A 
ATOM      4  C   UNL     1      45.229   6.959  11.566  0.00  0.00    +0.000 A 
ATOM      5  C   UNL     1      44.595   5.847  11.014  0.00  0.00    +0.000 A 
ATOM      6  C   UNL     1      44.917   4.556  11.452  0.00  0.00    +0.000 A 
ATOM      7  C   UNL     1      45.852   4.397  12.482  0.00  0.00    +0.000 A 
ATOM      8  C   UNL     1      46.491   5.511  13.031  0.00  0.00    +0.000 A 
BRANCH   6   9
ATOM      9  C   UNL     1      44.276   3.356  10.798  0.00  0.00    +0.000 C 
BRANCH   9  10
ATOM     10  O   UNL     1      44.097   3.607   9.400  0.00  0.00    +0.000 OA
BRANCH  10  11
ATOM     11  C   UNL     1      45.109   3.032   8.653  0.00  0.00    +0.000 A 
ATOM     12  C   UNL     1      45.818   3.853   7.790  0.00  0.00    +0.000 A 
ATOM     13  C   UNL     1      46.847   3.286   7.039  0.00  0.00    +0.000 A 
ATOM     14  C   UNL     1      47.128   1.929   7.179  0.00  0.00    +0.000 A 
ATOM     15  C   UNL     1      46.365   1.194   8.068  0.00  0.00    +0.000 A 
ATOM     16  N   UNL     1      45.364   1.713   8.802  0.00  0.00    +0.000 NA
ENDBRANCH  10  11
ENDBRANCH   9  10
ENDBRANCH   6   9
ENDBRANCH   2   3
BRANCH   2  17
ATOM     17  N   UNL     1      47.317   8.081  14.330  0.00  0.00    +0.000 N 
ATOM     18  C   UNL     1      48.119   9.024  14.911  0.00  0.00    +0.000 C 
ATOM     19  O   UNL     1      48.570   9.988  14.301  0.00  0.00    +0.000 OA
ATOM     20  H   UNL     1      47.153   7.218  14.835  0.00  0.00    +0.000 HD
BRANCH  18  21
ATOM     21  C   UNL     1      48.382   8.839  16.343  0.00  0.00    +0.000 A 
ATOM     22  C   UNL     1      48.059   9.817  17.272  0.00  0.00    +0.000 A 
ATOM     23  S   UNL     1      48.491   9.394  18.872  0.00  0.00    +0.000 S 
ATOM     24  C   UNL     1      49.170   7.919  18.359  0.00  0.00    +0.000 A 
ATOM     25  N   UNL     1      49.791   7.079  19.232  0.00  0.00    +0.000 NA
ATOM     26  C   UNL     1      50.293   6.017  18.691  0.00  0.00    +0.000 A 
ATOM     27  N   UNL     1      50.208   5.707  17.358  0.00  0.00    +0.000 N 
ATOM     28  C   UNL     1      49.534   6.488  16.457  0.00  0.00    +0.000 A 
ATOM     29  O   UNL     1      49.375   6.118  15.298  0.00  0.00    +0.000 OA
ATOM     30  C   UNL     1      49.013   7.726  17.001  0.00  0.00    +0.000 A 
ATOM     31  H   UNL     1      50.582   4.842  16.997  0.00  0.00    +0.000 HD
ENDBRANCH  18  21
ENDBRANCH   2  17
TORSDOF 6
ENDMDL
MODEL 5
REMARK VINA RESULT:    -7.744      4.659      8.629
REMARK INTER + INTRA:         -11.155
REMARK INTER:                 -10.061
REMARK INTRA:                  -1.093
REMARK UNBOUND:                -0.695
REMARK  Name = 
REMARK  7 active torsions:
REMARK  status: ('A' for Active; 'I' for Inactive)
REMARK    1  A    between atoms: C_1  and  C_2
REMARK    2  A    between atoms: C_2  and  N_3
REMARK    3  A    between atoms: C_2  and  C_16
REMARK    4  A    between atoms: C_4  and  C_6
REMARK    5  A    between atoms: C_19  and  C_20
REMARK    6  A    between atoms: C_20  and  O_21
REMARK    7  A    between atoms: O_21  and  C_22
REMARK                            x       y       z     vdW  Elec       q    Type
REMARK                         _______ _______ _______ _____ _____    ______ ____
ROOT
ATOM      1  C   UNL     1      47.639   5.086  18.472  0.00  0.00    +0.000 C 
ATOM      2  C   UNL     1      48.541   5.530  17.313  0.00  0.00    +0.000 C 
ENDROOT
BRANCH   2   3
ATOM      3  C   UNL     1      49.772   4.637  17.286  0.00  0.00    +0.000 A 
ATOM      4  C   UNL     1      51.024   5.209  17.549  0.00  0.00    +0.000 A 
ATOM      5  C   UNL     1      52.134   4.402  17.795  0.00  0.00    +0.000 A 
ATOM      6  C   UNL     1      52.023   3.007  17.744  0.00  0.00    +0.000 A 
ATOM      7  C   UNL     1      50.793   2.431  17.401  0.00  0.00    +0.000 A 
ATOM      8  C   UNL     1      49.680   3.240  17.161  0.00  0.00    +0.000 A 
BRANCH   6   9
ATOM      9  C   UNL     1      53.213   2.143  18.080  0.00  0.00    +0.000 C 
BRANCH   9  10
ATOM     10  O   UNL     1      52.768   0.848  18.497  0.00  0.00    +0.000 OA
BRANCH  10  11
ATOM     11  C   UNL     1      53.631  -0.143  18.067  0.00  0.00    +0.000 A 
ATOM     12  C   UNL     1      54.234   0.020  16.830  0.00  0.00    +0.000 A 
ATOM     13  C   UNL     1      55.114  -0.969  16.391  0.00  0.00    +0.000 A 
ATOM     14  C   UNL     1      55.360  -2.075  17.201  0.00  0.00    +0.000 A 
ATOM     15  C   UNL     1      54.711  -2.145  18.421  0.00  0.00    +0.000 A 
ATOM     16  N   UNL     1      53.854  -1.209  18.868  0.00  0.00    +0.000 NA
ENDBRANCH  10  11
ENDBRANCH   9  10
ENDBRANCH   6   9
ENDBRANCH   2   3
BRANCH   2  17
ATOM     17  N   UNL     1      47.836   5.506  16.049  0.00  0.00    +0.000 N 
ATOM     18  C   UNL     1      48.294   6.130  14.921  0.00  0.00    +0.000 C 
ATOM     19  O   UNL     1      49.418   6.610  14.830  0.00  0.00    +0.000 OA
ATOM     20  H   UNL     1      46.843   5.319  16.121  0.00  0.00    +0.000 HD
BRANCH  18  21
ATOM     21  C   UNL     1      47.361   6.158  13.788  0.00  0.00    +0.000 A 
ATOM     22  C   UNL     1      47.018   7.346  13.159  0.00  0.00    +0.000 A 
ATOM     23  S   UNL     1      45.890   7.134  11.892  0.00  0.00    +0.000 S 
ATOM     24  C   UNL     1      45.787   5.460  12.185  0.00  0.00    +0.000 A 
ATOM     25  N   UNL     1      44.932   4.666  11.485  0.00  0.00    +0.000 NA
ATOM     26  C   UNL     1      44.935   3.424  11.847  0.00  0.00    +0.000 A 
ATOM     27  N   UNL     1      45.736   2.900  12.829  0.00  0.00    +0.000 N 
ATOM     28  C   UNL     1      46.660   3.649  13.510  0.00  0.00    +0.000 A 
ATOM     29  O   UNL     1      47.442   3.121  14.294  0.00  0.00    +0.000 OA
ATOM     30  C   UNL     1      46.646   5.062  13.191  0.00  0.00    +0.000 A 
ATOM     31  H   UNL     1      45.727   1.913  13.041  0.00  0.00    +0.000 HD
ENDBRANCH  18  21
ENDBRANCH   2  17
TORSDOF 6
ENDMDL
MODEL 6
REMARK VINA RESULT:    -7.679      2.659      3.975
REMARK INTER + INTRA:         -11.067
REMARK INTER:                  -9.850
REMARK INTRA:                  -1.217
REMARK UNBOUND:                -0.695
REMARK  Name = 
REMARK  7 active torsions:
REMARK  status: ('A' for Active; 'I' for Inactive)
REMARK    1  A    between atoms: C_1  and  C_2
REMARK    2  A    between atoms: C_2  and  N_3
REMARK    3  A    between atoms: C_2  and  C_16
REMARK    4  A    between atoms: C_4  and  C_6
REMARK    5  A    between atoms: C_19  and  C_20
REMARK    6  A    between atoms: C_20  and  O_21
REMARK    7  A    between atoms: O_21  and  C_22
REMARK                            x       y       z     vdW  Elec       q    Type
REMARK                         _______ _______ _______ _____ _____    ______ ____
ROOT
ATOM      1  C   UNL     1      47.419   3.564  15.966  0.00  0.00    +0.000 C 
ATOM      2  C   UNL     1      47.910   4.902  15.399  0.00  0.00    +0.000 C 
ENDROOT
BRANCH   2   3
ATOM      3  C   UNL     1      47.077   5.246  14.173  0.00  0.00    +0.000 A 
ATOM      4  C   UNL     1      47.521   6.266  13.322  0.00  0.00    +0.000 A 
ATOM      5  C   UNL     1      46.946   6.440  12.064  0.00  0.00    +0.000 A 
ATOM      6  C   UNL     1      45.889   5.621  11.647  0.00  0.00    +0.000 A 
ATOM      7  C   UNL     1      45.387   4.653  12.525  0.00  0.00    +0.000 A 
ATOM      8  C   UNL     1      45.968   4.475  13.783  0.00  0.00    +0.000 A 
BRANCH   6   9
ATOM      9  C   UNL     1      45.322   5.772  10.257  0.00  0.00    +0.000 C 
BRANCH   9  10
ATOM     10  O   UNL     1      44.581   4.597   9.907  0.00  0.00    +0.000 OA
BRANCH  10  11
ATOM     11  C   UNL     1      45.294   3.794   9.037  0.00  0.00    +0.000 A 
ATOM     12  C   UNL     1      45.274   2.426   9.260  0.00  0.00    +0.000 A 
ATOM     13  C   UNL     1      45.981   1.605   8.382  0.00  0.00    +0.000 A 
ATOM     14  C   UNL     1      46.675   2.178   7.320  0.00  0.00    +0.000 A 
ATOM     15  C   UNL     1      46.632   3.553   7.180  0.00  0.00    +0.000 A 
ATOM     16  N   UNL     1      45.963   4.370   8.013  0.00  0.00    +0.000 NA
ENDBRANCH  10  11
ENDBRANCH   9  10
ENDBRANCH   6   9
ENDBRANCH   2   3
BRANCH   2  17
ATOM     17  N   UNL     1      47.858   5.955  16.392  0.00  0.00    +0.000 N 
ATOM     18  C   UNL     1      48.811   6.124  17.359  0.00  0.00    +0.000 C 
ATOM     19  O   UNL     1      49.877   5.518  17.362  0.00  0.00    +0.000 OA
ATOM     20  H   UNL     1      46.933   6.330  16.563  0.00  0.00    +0.000 HD
BRANCH  18  21
ATOM     21  C   UNL     1      48.499   7.121  18.389  0.00  0.00    +0.000 A 
ATOM     22  C   UNL     1      48.393   6.773  19.728  0.00  0.00    +0.000 A 
ATOM     23  S   UNL     1      47.986   8.093  20.736  0.00  0.00    +0.000 S 
ATOM     24  C   UNL     1      47.887   9.152  19.407  0.00  0.00    +0.000 A 
ATOM     25  N   UNL     1      47.508  10.451  19.557  0.00  0.00    +0.000 NA
ATOM     26  C   UNL     1      47.439  11.121  18.453  0.00  0.00    +0.000 A 
ATOM     27  N   UNL     1      47.740  10.616  17.214  0.00  0.00    +0.000 N 
ATOM     28  C   UNL     1      48.193   9.337  17.025  0.00  0.00    +0.000 A 
ATOM     29  O   UNL     1      48.568   8.960  15.920  0.00  0.00    +0.000 OA
ATOM     30  C   UNL     1      48.220   8.522  18.223  0.00  0.00    +0.000 A 
ATOM     31  H   UNL     1      47.710  11.199  16.391  0.00  0.00    +0.000 HD
ENDBRANCH  18  21
ENDBRANCH   2  17
TORSDOF 6
ENDMDL
MODEL 7
REMARK VINA RESULT:    -7.507      2.558      3.112
REMARK INTER + INTRA:         -10.835
REMARK INTER:                  -9.646
REMARK INTRA:                  -1.190
REMARK UNBOUND:                -0.695
REMARK  Name = 
REMARK  7 active torsions:
REMARK  status: ('A' for Active; 'I' for Inactive)
REMARK    1  A    between atoms: C_1  and  C_2
REMARK    2  A    between atoms: C_2  and  N_3
REMARK    3  A    between atoms: C_2  and  C_16
REMARK    4  A    between atoms: C_4  and  C_6
REMARK    5  A    between atoms: C_19  and  C_20
REMARK    6  A    between atoms: C_20  and  O_21
REMARK    7  A    between atoms: O_21  and  C_22
REMARK                            x       y       z     vdW  Elec       q    Type
REMARK                         _______ _______ _______ _____ _____    ______ ____
ROOT
ATOM      1  C   UNL     1      49.769   7.922  14.050  0.00  0.00    +0.000 C 
ATOM      2  C   UNL     1      48.988   7.113  15.093  0.00  0.00    +0.000 C 
ENDROOT
BRANCH   2   3
ATOM      3  C   UNL     1      47.818   6.430  14.401  0.00  0.00    +0.000 A 
ATOM      4  C   UNL     1      47.205   7.075  13.320  0.00  0.00    +0.000 A 
ATOM      5  C   UNL     1      46.316   6.387  12.495  0.00  0.00    +0.000 A 
ATOM      6  C   UNL     1      45.992   5.050  12.759  0.00  0.00    +0.000 A 
ATOM      7  C   UNL     1      46.539   4.424  13.886  0.00  0.00    +0.000 A 
ATOM      8  C   UNL     1      47.434   5.112  14.708  0.00  0.00    +0.000 A 
BRANCH   6   9
ATOM      9  C   UNL     1      45.084   4.295  11.820  0.00  0.00    +0.000 C 
BRANCH   9  10
ATOM     10  O   UNL     1      44.998   4.987  10.570  0.00  0.00    +0.000 OA
BRANCH  10  11
ATOM     11  C   UNL     1      45.411   4.185   9.522  0.00  0.00    +0.000 A 
ATOM     12  C   UNL     1      45.221   2.818   9.644  0.00  0.00    +0.000 A 
ATOM     13  C   UNL     1      45.625   2.000   8.588  0.00  0.00    +0.000 A 
ATOM     14  C   UNL     1      46.197   2.577   7.457  0.00  0.00    +0.000 A 
ATOM     15  C   UNL     1      46.342   3.952   7.430  0.00  0.00    +0.000 A 
ATOM     16  N   UNL     1      45.966   4.765   8.434  0.00  0.00    +0.000 NA
ENDBRANCH  10  11
ENDBRANCH   9  10
ENDBRANCH   6   9
ENDBRANCH   2   3
BRANCH   2  17
ATOM     17  N   UNL     1      49.837   6.159  15.775  0.00  0.00    +0.000 N 
ATOM     18  C   UNL     1      49.949   6.091  17.136  0.00  0.00    +0.000 C 
ATOM     19  O   UNL     1      49.212   6.704  17.901  0.00  0.00    +0.000 OA
ATOM     20  H   UNL     1      50.597   5.793  15.215  0.00  0.00    +0.000 HD
BRANCH  18  21
ATOM     21  C   UNL     1      50.993   5.193  17.643  0.00  0.00    +0.000 A 
ATOM     22  C   UNL     1      52.141   5.683  18.247  0.00  0.00    +0.000 A 
ATOM     23  S   UNL     1      53.229   4.451  18.722  0.00  0.00    +0.000 S 
ATOM     24  C   UNL     1      52.221   3.236  18.086  0.00  0.00    +0.000 A 
ATOM     25  N   UNL     1      52.590   1.926  18.098  0.00  0.00    +0.000 NA
ATOM     26  C   UNL     1      51.741   1.123  17.543  0.00  0.00    +0.000 A 
ATOM     27  N   UNL     1      50.543   1.511  17.000  0.00  0.00    +0.000 N 
ATOM     28  C   UNL     1      50.100   2.807  17.028  0.00  0.00    +0.000 A 
ATOM     29  O   UNL     1      48.973   3.095  16.642  0.00  0.00    +0.000 OA
ATOM     30  C   UNL     1      51.048   3.757  17.577  0.00  0.00    +0.000 A 
ATOM     31  H   UNL     1      49.899   0.834  16.617  0.00  0.00    +0.000 HD
ENDBRANCH  18  21
ENDBRANCH   2  17
TORSDOF 6
ENDMDL
MODEL 8
REMARK VINA RESULT:    -7.330      2.164      4.120
REMARK INTER + INTRA:         -10.596
REMARK INTER:                  -9.410
REMARK INTRA:                  -1.186
REMARK UNBOUND:                -0.695
REMARK  Name = 
REMARK  7 active torsions:
REMARK  status: ('A' for Active; 'I' for Inactive)
REMARK    1  A    between atoms: C_1  and  C_2
REMARK    2  A    between atoms: C_2  and  N_3
REMARK    3  A    between atoms: C_2  and  C_16
REMARK    4  A    between atoms: C_4  and  C_6
REMARK    5  A    between atoms: C_19  and  C_20
REMARK    6  A    between atoms: C_20  and  O_21
REMARK    7  A    between atoms: O_21  and  C_22
REMARK                            x       y       z     vdW  Elec       q    Type
REMARK                         _______ _______ _______ _____ _____    ______ ____
ROOT
ATOM      1  C   UNL     1      46.588   4.364  15.988  0.00  0.00    +0.000 C 
ATOM      2  C   UNL     1      47.515   4.883  14.882  0.00  0.00    +0.000 C 
ENDROOT
BRANCH   2   3
ATOM      3  C   UNL     1      46.791   4.774  13.549  0.00  0.00    +0.000 A 
ATOM      4  C   UNL     1      46.142   3.573  13.233  0.00  0.00    +0.000 A 
ATOM      5  C   UNL     1      45.254   3.509  12.160  0.00  0.00    +0.000 A 
ATOM      6  C   UNL     1      45.027   4.634  11.357  0.00  0.00    +0.000 A 
ATOM      7  C   UNL     1      45.734   5.814  11.619  0.00  0.00    +0.000 A 
ATOM      8  C   UNL     1      46.619   5.880  12.698  0.00  0.00    +0.000 A 
BRANCH   6   9
ATOM      9  C   UNL     1      44.012   4.573  10.243  0.00  0.00    +0.000 C 
BRANCH   9  10
ATOM     10  O   UNL     1      43.935   3.238   9.732  0.00  0.00    +0.000 OA
BRANCH  10  11
ATOM     11  C   UNL     1      44.959   2.982   8.840  0.00  0.00    +0.000 A 
ATOM     12  C   UNL     1      45.452   1.688   8.779  0.00  0.00    +0.000 A 
ATOM     13  C   UNL     1      46.478   1.415   7.876  0.00  0.00    +0.000 A 
ATOM     14  C   UNL     1      46.970   2.439   7.070  0.00  0.00    +0.000 A 
ATOM     15  C   UNL     1      46.411   3.697   7.202  0.00  0.00    +0.000 A 
ATOM     16  N   UNL     1      45.423   3.990   8.068  0.00  0.00    +0.000 NA
ENDBRANCH  10  11
ENDBRANCH   9  10
ENDBRANCH   6   9
ENDBRANCH   2   3
BRANCH   2  17
ATOM     17  N   UNL     1      47.950   6.239  15.144  0.00  0.00    +0.000 N 
ATOM     18  C   UNL     1      49.050   6.544  15.898  0.00  0.00    +0.000 C 
ATOM     19  O   UNL     1      49.863   5.703  16.268  0.00  0.00    +0.000 OA
ATOM     20  H   UNL     1      47.227   6.942  15.050  0.00  0.00    +0.000 HD
BRANCH  18  21
ATOM     21  C   UNL     1      49.231   7.966  16.210  0.00  0.00    +0.000 A 
ATOM     22  C   UNL     1      49.230   8.427  17.519  0.00  0.00    +0.000 A 
ATOM     23  S   UNL     1      49.420  10.123  17.634  0.00  0.00    +0.000 S 
ATOM     24  C   UNL     1      49.453  10.292  15.941  0.00  0.00    +0.000 A 
ATOM     25  N   UNL     1      49.529  11.516  15.348  0.00  0.00    +0.000 NA
ATOM     26  C   UNL     1      49.504  11.489  14.055  0.00  0.00    +0.000 A 
ATOM     27  N   UNL     1      49.436  10.346  13.301  0.00  0.00    +0.000 N 
ATOM     28  C   UNL     1      49.428   9.092  13.853  0.00  0.00    +0.000 A 
ATOM     29  O   UNL     1      49.490   8.093  13.145  0.00  0.00    +0.000 OA
ATOM     30  C   UNL     1      49.384   9.070  15.301  0.00  0.00    +0.000 A 
ATOM     31  H   UNL     1      49.463  10.383  12.292  0.00  0.00    +0.000 HD
ENDBRANCH  18  21
ENDBRANCH   2  17
TORSDOF 6
ENDMDL
MODEL 9
REMARK VINA RESULT:    -6.683      4.573      9.289
REMARK INTER + INTRA:          -9.722
REMARK INTER:                  -9.288
REMARK INTRA:                  -0.434
REMARK UNBOUND:                -0.695
REMARK  Name = 
REMARK  7 active torsions:
REMARK  status: ('A' for Active; 'I' for Inactive)
REMARK    1  A    between atoms: C_1  and  C_2
REMARK    2  A    between atoms: C_2  and  N_3
REMARK    3  A    between atoms: C_2  and  C_16
REMARK    4  A    between atoms: C_4  and  C_6
REMARK    5  A    between atoms: C_19  and  C_20
REMARK    6  A    between atoms: C_20  and  O_21
REMARK    7  A    between atoms: O_21  and  C_22
REMARK                            x       y       z     vdW  Elec       q    Type
REMARK                         _______ _______ _______ _____ _____    ______ ____
ROOT
ATOM      1  C   UNL     1      47.012   2.871  17.428  0.00  0.00    +0.000 C 
ATOM      2  C   UNL     1      47.849   4.151  17.311  0.00  0.00    +0.000 C 
ENDROOT
BRANCH   2   3
ATOM      3  C   UNL     1      49.320   3.767  17.265  0.00  0.00    +0.000 A 
ATOM      4  C   UNL     1      50.282   4.756  17.509  0.00  0.00    +0.000 A 
ATOM      5  C   UNL     1      51.613   4.409  17.739  0.00  0.00    +0.000 A 
ATOM      6  C   UNL     1      52.016   3.069  17.689  0.00  0.00    +0.000 A 
ATOM      7  C   UNL     1      51.076   2.083  17.366  0.00  0.00    +0.000 A 
ATOM      8  C   UNL     1      49.741   2.431  17.142  0.00  0.00    +0.000 A 
BRANCH   6   9
ATOM      9  C   UNL     1      53.444   2.699  18.009  0.00  0.00    +0.000 C 
BRANCH   9  10
ATOM     10  O   UNL     1      53.736   1.401  17.480  0.00  0.00    +0.000 OA
BRANCH  10  11
ATOM     11  C   UNL     1      54.274   0.573  18.448  0.00  0.00    +0.000 A 
ATOM     12  C   UNL     1      54.123  -0.794  18.283  0.00  0.00    +0.000 A 
ATOM     13  C   UNL     1      54.671  -1.638  19.248  0.00  0.00    +0.000 A 
ATOM     14  C   UNL     1      55.347  -1.088  20.334  0.00  0.00    +0.000 A 
ATOM     15  C   UNL     1      55.446   0.289  20.409  0.00  0.00    +0.000 A 
ATOM     16  N   UNL     1      54.925   1.129  19.495  0.00  0.00    +0.000 NA
ENDBRANCH  10  11
ENDBRANCH   9  10
ENDBRANCH   6   9
ENDBRANCH   2   3
BRANCH   2  17
ATOM     17  N   UNL     1      47.466   4.935  16.156  0.00  0.00    +0.000 N 
ATOM     18  C   UNL     1      47.375   4.419  14.893  0.00  0.00    +0.000 C 
ATOM     19  O   UNL     1      47.434   3.217  14.654  0.00  0.00    +0.000 OA
ATOM     20  H   UNL     1      47.613   5.932  16.253  0.00  0.00    +0.000 HD
BRANCH  18  21
ATOM     21  C   UNL     1      47.157   5.397  13.821  0.00  0.00    +0.000 A 
ATOM     22  C   UNL     1      48.134   6.318  13.469  0.00  0.00    +0.000 A 
ATOM     23  S   UNL     1      47.640   7.378  12.222  0.00  0.00    +0.000 S 
ATOM     24  C   UNL     1      46.092   6.673  12.156  0.00  0.00    +0.000 A 
ATOM     25  N   UNL     1      45.123   7.157  11.331  0.00  0.00    +0.000 NA
ATOM     26  C   UNL     1      43.987   6.545  11.421  0.00  0.00    +0.000 A 
ATOM     27  N   UNL     1      43.740   5.476  12.244  0.00  0.00    +0.000 N 
ATOM     28  C   UNL     1      44.704   4.914  13.039  0.00  0.00    +0.000 A 
ATOM     29  O   UNL     1      44.479   3.886  13.668  0.00  0.00    +0.000 OA
ATOM     30  C   UNL     1      45.976   5.608  13.027  0.00  0.00    +0.000 A 
ATOM     31  H   UNL     1      42.844   5.010  12.242  0.00  0.00    +0.000 HD
ENDBRANCH  18  21
ENDBRANCH   2  17
TORSDOF 6
ENDMDL
