MODEL 1
REMARK VINA RESULT:    -8.000      0.000      0.000
REMARK INTER + INTRA:         -12.489
REMARK INTER:                 -11.274
REMARK INTRA:                  -1.214
REMARK UNBOUND:                -1.214
REMARK  Name = 
REMARK  7 active torsions:
REMARK  status: ('A' for Active; 'I' for Inactive)
REMARK    1  A    between atoms: C_2  and  C_19
REMARK    2  A    between atoms: N_3  and  C_4
REMARK    3  A    between atoms: C_4  and  C_5
REMARK    4  A    between atoms: C_8  and  C_9
REMARK    5  A    between atoms: C_9  and  N_10
REMARK    6  A    between atoms: N_10  and  C_11
REMARK    7  A    between atoms: C_11  and  C_12
REMARK                            x       y       z     vdW  Elec       q    Type
REMARK                         _______ _______ _______ _____ _____    ______ ____
ROOT
ATOM      1  C   UNL     1      47.107   7.641  13.208  0.00  0.00    +0.000 C 
ENDROOT
BRANCH   1   2
ATOM      2  C   UNL     1      46.193   6.730  12.430  0.00  0.00    +0.000 A 
ATOM      3  C   UNL     1      46.457   6.463  11.082  0.00  0.00    +0.000 A 
ATOM      4  C   UNL     1      45.670   5.559  10.365  0.00  0.00    +0.000 A 
ATOM      5  C   UNL     1      44.601   4.889  10.980  0.00  0.00    +0.000 A 
ATOM      6  C   UNL     1      44.313   5.191  12.319  0.00  0.00    +0.000 A 
ATOM      7  C   UNL     1      45.095   6.106  13.036  0.00  0.00    +0.000 A 
BRANCH   5   8
ATOM      8  C   UNL     1      43.728   3.904  10.225  0.00  0.00    +0.000 C 
BRANCH   8   9
ATOM      9  N   UNL     1      44.227   2.538  10.345  0.00  0.00    +0.000 NA
ATOM     10  H   UNL     1      43.578   1.999  10.918  0.00  0.00    +0.000 HD
BRANCH   9  11
ATOM     11  C   UNL     1      44.412   1.878   9.053  0.00  0.00    +0.000 C 
BRANCH  11  12
ATOM     12  C   UNL     1      45.857   2.109   8.572  0.00  0.00    +0.000 C 
ATOM     13  C   UNL     1      45.974   3.127   7.445  0.00  0.00    +0.000 C 
ATOM     14  C   UNL     1      47.371   2.860   6.922  0.00  0.00    +0.000 C 
ATOM     15  C   UNL     1      47.573   1.366   7.139  0.00  0.00    +0.000 C 
ATOM     16  N   UNL     1      46.466   0.909   7.985  0.00  0.00    +0.000 NA
ATOM     17  H   UNL     1      46.802   0.281   8.713  0.00  0.00    +0.000 HD
ENDBRANCH  11  12
ENDBRANCH   9  11
ENDBRANCH   8   9
ENDBRANCH   5   8
ENDBRANCH   1   2
BRANCH   1  20
ATOM     18  O   UNL     1      49.737   7.055  13.951  0.00  0.00    +0.000 OA
ATOM     19  C   UNL     1      48.836   6.854  14.759  0.00  0.00    +0.000 C 
ATOM     20  N   UNL     1      47.515   7.098  14.472  0.00  0.00    +0.000 N 
ATOM     21  H   UNL     1      46.831   7.124  15.224  0.00  0.00    +0.000 HD
BRANCH  19  22
ATOM     22  C   UNL     1      49.115   6.307  16.081  0.00  0.00    +0.000 A 
ATOM     23  C   UNL     1      49.954   6.974  16.967  0.00  0.00    +0.000 A 
ATOM     24  S   UNL     1      50.088   6.193  18.481  0.00  0.00    +0.000 S 
ATOM     25  C   UNL     1      49.021   4.956  17.998  0.00  0.00    +0.000 A 
ATOM     26  N   UNL     1      48.665   3.957  18.848  0.00  0.00    +0.000 NA
ATOM     27  C   UNL     1      47.829   3.109  18.353  0.00  0.00    +0.000 A 
ATOM     28  N   UNL     1      47.324   3.161  17.074  0.00  0.00    +0.000 N 
ATOM     29  C   UNL     1      47.710   4.097  16.160  0.00  0.00    +0.000 A 
ATOM     30  O   UNL     1      47.363   4.011  14.988  0.00  0.00    +0.000 OA
ATOM     31  C   UNL     1      48.603   5.113  16.690  0.00  0.00    +0.000 A 
ATOM     32  H   UNL     1      46.710   2.435  16.730  0.00  0.00    +0.000 HD
ENDBRANCH  19  22
ENDBRANCH   1  20
TORSDOF 7
ENDMDL
MODEL 2
REMARK VINA RESULT:    -7.357      2.252      2.899
REMARK INTER + INTRA:         -11.582
REMARK INTER:                 -10.600
REMARK INTRA:                  -0.981
REMARK UNBOUND:                -1.214
REMARK  Name = 
REMARK  7 active torsions:
REMARK  status: ('A' for Active; 'I' for Inactive)
REMARK    1  A    between atoms: C_2  and  C_19
REMARK    2  A    between atoms: N_3  and  C_4
REMARK    3  A    between atoms: C_4  and  C_5
REMARK    4  A    between atoms: C_8  and  C_9
REMARK    5  A    between atoms: C_9  and  N_10
REMARK    6  A    between atoms: N_10  and  C_11
REMARK    7  A    between atoms: C_11  and  C_12
REMARK                            x       y       z     vdW  Elec       q    Type
REMARK                         _______ _______ _______ _____ _____    ______ ____
ROOT
ATOM      1  C   UNL     1      48.225   6.605  13.740  0.00  0.00    +0.000 C 
ENDROOT
BRANCH   1   2
ATOM      2  C   UNL     1      47.033   6.155  12.937  0.00  0.00    +0.000 A 
ATOM      3  C   UNL     1      46.767   6.743  11.695  0.00  0.00    +0.000 A 
ATOM      4  C   UNL     1      45.715   6.285  10.898  0.00  0.00    +0.000 A 
ATOM      5  C   UNL     1      44.904   5.219  11.317  0.00  0.00    +0.000 A 
ATOM      6  C   UNL     1      45.146   4.661  12.582  0.00  0.00    +0.000 A 
ATOM      7  C   UNL     1      46.195   5.126  13.386  0.00  0.00    +0.000 A 
BRANCH   5   8
ATOM      8  C   UNL     1      43.753   4.703  10.474  0.00  0.00    +0.000 C 
BRANCH   8   9
ATOM      9  N   UNL     1      44.214   4.196   9.185  0.00  0.00    +0.000 NA
ATOM     10  H   UNL     1      45.050   4.709   8.909  0.00  0.00    +0.000 HD
BRANCH   9  11
ATOM     11  C   UNL     1      44.497   2.761   9.201  0.00  0.00    +0.000 C 
BRANCH  11  12
ATOM     12  C   UNL     1      45.895   2.517   8.604  0.00  0.00    +0.000 C 
ATOM     13  C   UNL     1      46.132   3.235   7.281  0.00  0.00    +0.000 C 
ATOM     14  C   UNL     1      47.361   2.523   6.751  0.00  0.00    +0.000 C 
ATOM     15  C   UNL     1      47.221   1.098   7.269  0.00  0.00    +0.000 C 
ATOM     16  N   UNL     1      46.133   1.111   8.253  0.00  0.00    +0.000 NA
ATOM     17  H   UNL     1      46.385   0.570   9.079  0.00  0.00    +0.000 HD
ENDBRANCH  11  12
ENDBRANCH   9  11
ENDBRANCH   8   9
ENDBRANCH   5   8
ENDBRANCH   1   2
BRANCH   1  20
ATOM     18  O   UNL     1      50.105   6.176  15.764  0.00  0.00    +0.000 OA
ATOM     19  C   UNL     1      48.957   6.474  16.077  0.00  0.00    +0.000 C 
ATOM     20  N   UNL     1      47.966   6.687  15.150  0.00  0.00    +0.000 N 
ATOM     21  H   UNL     1      47.098   7.137  15.431  0.00  0.00    +0.000 HD
BRANCH  19  22
ATOM     22  C   UNL     1      48.563   6.594  17.476  0.00  0.00    +0.000 A 
ATOM     23  C   UNL     1      48.609   5.495  18.327  0.00  0.00    +0.000 A 
ATOM     24  S   UNL     1      48.172   5.873  19.935  0.00  0.00    +0.000 S 
ATOM     25  C   UNL     1      47.924   7.512  19.539  0.00  0.00    +0.000 A 
ATOM     26  N   UNL     1      47.563   8.421  20.483  0.00  0.00    +0.000 NA
ATOM     27  C   UNL     1      47.440   9.626  20.042  0.00  0.00    +0.000 A 
ATOM     28  N   UNL     1      47.634  10.006  18.733  0.00  0.00    +0.000 N 
ATOM     29  C   UNL     1      47.920   9.120  17.738  0.00  0.00    +0.000 A 
ATOM     30  O   UNL     1      47.923   9.473  16.564  0.00  0.00    +0.000 OA
ATOM     31  C   UNL     1      48.132   7.758  18.195  0.00  0.00    +0.000 A 
ATOM     32  H   UNL     1      47.472  10.961  18.442  0.00  0.00    +0.000 HD
ENDBRANCH  19  22
ENDBRANCH   1  20
TORSDOF 7
ENDMDL
MODEL 3
REMARK VINA RESULT:    -7.161      2.040      3.261
REMARK INTER + INTRA:         -11.305
REMARK INTER:                 -10.282
REMARK INTRA:                  -1.023
REMARK UNBOUND:                -1.214
REMARK  Name = 
REMARK  7 active torsions:
REMARK  status: ('A' for Active; 'I' for Inactive)
REMARK    1  A    between atoms: C_2  and  C_19
REMARK    2  A    between atoms: N_3  and  C_4
REMARK    3  A    between atoms: C_4  and  C_5
REMARK    4  A    between atoms: C_8  and  C_9
REMARK    5  A    between atoms: C_9  and  N_10
REMARK    6  A    between atoms: N_10  and  C_11
REMARK    7  A    between atoms: C_11  and  C_12
REMARK                            x       y       z     vdW  Elec       q    Type
REMARK                         _______ _______ _______ _____ _____    ______ ____
ROOT
ATOM      1  C   UNL     1      47.163   3.642  14.633  0.00  0.00    +0.000 C 
ENDROOT
BRANCH   1   2
ATOM      2  C   UNL     1      46.370   4.004  13.404  0.00  0.00    +0.000 A 
ATOM      3  C   UNL     1      45.680   3.010  12.703  0.00  0.00    +0.000 A 
ATOM      4  C   UNL     1      44.873   3.336  11.609  0.00  0.00    +0.000 A 
ATOM      5  C   UNL     1      44.728   4.668  11.192  0.00  0.00    +0.000 A 
ATOM      6  C   UNL     1      45.455   5.657  11.871  0.00  0.00    +0.000 A 
ATOM      7  C   UNL     1      46.272   5.329  12.961  0.00  0.00    +0.000 A 
BRANCH   5   8
ATOM      8  C   UNL     1      43.861   5.050  10.007  0.00  0.00    +0.000 C 
BRANCH   8   9
ATOM      9  N   UNL     1      44.201   4.275   8.818  0.00  0.00    +0.000 NA
ATOM     10  H   UNL     1      43.555   4.521   8.068  0.00  0.00    +0.000 HD
BRANCH   9  11
ATOM     11  C   UNL     1      45.578   4.481   8.372  0.00  0.00    +0.000 C 
BRANCH  11  12
ATOM     12  C   UNL     1      46.024   3.266   7.535  0.00  0.00    +0.000 C 
ATOM     13  C   UNL     1      46.095   1.967   8.328  0.00  0.00    +0.000 C 
ATOM     14  C   UNL     1      46.911   1.081   7.410  0.00  0.00    +0.000 C 
ATOM     15  C   UNL     1      47.858   2.043   6.705  0.00  0.00    +0.000 C 
ATOM     16  N   UNL     1      47.390   3.398   7.014  0.00  0.00    +0.000 NA
ATOM     17  H   UNL     1      47.403   3.984   6.180  0.00  0.00    +0.000 HD
ENDBRANCH  11  12
ENDBRANCH   9  11
ENDBRANCH   8   9
ENDBRANCH   5   8
ENDBRANCH   1   2
BRANCH   1  20
ATOM     18  O   UNL     1      48.264   3.472  17.196  0.00  0.00    +0.000 OA
ATOM     19  C   UNL     1      47.926   4.571  16.771  0.00  0.00    +0.000 C 
ATOM     20  N   UNL     1      47.362   4.745  15.530  0.00  0.00    +0.000 N 
ATOM     21  H   UNL     1      47.294   5.678  15.131  0.00  0.00    +0.000 HD
BRANCH  19  22
ATOM     22  C   UNL     1      48.077   5.774  17.581  0.00  0.00    +0.000 A 
ATOM     23  C   UNL     1      47.441   5.890  18.812  0.00  0.00    +0.000 A 
ATOM     24  S   UNL     1      47.808   7.348  19.623  0.00  0.00    +0.000 S 
ATOM     25  C   UNL     1      48.835   7.854  18.360  0.00  0.00    +0.000 A 
ATOM     26  N   UNL     1      49.516   9.028  18.429  0.00  0.00    +0.000 NA
ATOM     27  C   UNL     1      50.275   9.263  17.415  0.00  0.00    +0.000 A 
ATOM     28  N   UNL     1      50.407   8.434  16.324  0.00  0.00    +0.000 N 
ATOM     29  C   UNL     1      49.687   7.287  16.173  0.00  0.00    +0.000 A 
ATOM     30  O   UNL     1      49.711   6.664  15.118  0.00  0.00    +0.000 OA
ATOM     31  C   UNL     1      48.864   6.945  17.320  0.00  0.00    +0.000 A 
ATOM     32  H   UNL     1      50.982   8.703  15.536  0.00  0.00    +0.000 HD
ENDBRANCH  19  22
ENDBRANCH   1  20
TORSDOF 7
ENDMDL
MODEL 4
REMARK VINA RESULT:    -6.868      4.364      9.141
REMARK INTER + INTRA:         -10.893
REMARK INTER:                 -10.049
REMARK INTRA:                  -0.844
REMARK UNBOUND:                -1.214
REMARK  Name = 
REMARK  7 active torsions:
REMARK  status: ('A' for Active; 'I' for Inactive)
REMARK    1  A    between atoms: C_2  and  C_19
REMARK    2  A    between atoms: N_3  and  C_4
REMARK    3  A    between atoms: C_4  and  C_5
REMARK    4  A    between atoms: C_8  and  C_9
REMARK    5  A    between atoms: C_9  and  N_10
REMARK    6  A    between atoms: N_10  and  C_11
REMARK    7  A    between atoms: C_11  and  C_12
REMARK                            x       y       z     vdW  Elec       q    Type
REMARK                         _______ _______ _______ _____ _____    ______ ____
ROOT
ATOM      1  C   UNL     1      47.203   3.375  16.776  0.00  0.00    +0.000 C 
ENDROOT
BRANCH   1   2
ATOM      2  C   UNL     1      48.682   3.379  17.060  0.00  0.00    +0.000 A 
ATOM      3  C   UNL     1      49.318   4.571  17.426  0.00  0.00    +0.000 A 
ATOM      4  C   UNL     1      50.671   4.582  17.772  0.00  0.00    +0.000 A 
ATOM      5  C   UNL     1      51.425   3.398  17.770  0.00  0.00    +0.000 A 
ATOM      6  C   UNL     1      50.796   2.213  17.361  0.00  0.00    +0.000 A 
ATOM      7  C   UNL     1      49.441   2.204  17.004  0.00  0.00    +0.000 A 
BRANCH   5   8
ATOM      8  C   UNL     1      52.897   3.381  18.139  0.00  0.00    +0.000 C 
BRANCH   8   9
ATOM      9  N   UNL     1      53.243   2.198  18.921  0.00  0.00    +0.000 NA
ATOM     10  H   UNL     1      52.877   1.372  18.450  0.00  0.00    +0.000 HD
BRANCH   9  11
ATOM     11  C   UNL     1      54.683   2.050  19.131  0.00  0.00    +0.000 C 
BRANCH  11  12
ATOM     12  C   UNL     1      55.118   0.648  18.665  0.00  0.00    +0.000 C 
ATOM     13  C   UNL     1      54.539   0.241  17.315  0.00  0.00    +0.000 C 
ATOM     14  C   UNL     1      54.783  -1.254  17.305  0.00  0.00    +0.000 C 
ATOM     15  C   UNL     1      54.669  -1.663  18.767  0.00  0.00    +0.000 C 
ATOM     16  N   UNL     1      54.647  -0.424  19.552  0.00  0.00    +0.000 NA
ATOM     17  H   UNL     1      55.246  -0.504  20.371  0.00  0.00    +0.000 HD
ENDBRANCH  11  12
ENDBRANCH   9  11
ENDBRANCH   8   9
ENDBRANCH   5   8
ENDBRANCH   1   2
BRANCH   1  20
ATOM     18  O   UNL     1      47.238   3.149  13.990  0.00  0.00    +0.000 OA
ATOM     19  C   UNL     1      46.832   4.192  14.494  0.00  0.00    +0.000 C 
ATOM     20  N   UNL     1      46.795   4.395  15.852  0.00  0.00    +0.000 N 
ATOM     21  H   UNL     1      46.261   5.172  16.233  0.00  0.00    +0.000 HD
BRANCH  19  22
ATOM     22  C   UNL     1      46.386   5.306  13.666  0.00  0.00    +0.000 A 
ATOM     23  C   UNL     1      47.202   6.411  13.456  0.00  0.00    +0.000 A 
ATOM     24  S   UNL     1      46.512   7.566  12.402  0.00  0.00    +0.000 S 
ATOM     25  C   UNL     1      45.115   6.613  12.188  0.00  0.00    +0.000 A 
ATOM     26  N   UNL     1      44.111   7.006  11.361  0.00  0.00    +0.000 NA
ATOM     27  C   UNL     1      43.132   6.171  11.277  0.00  0.00    +0.000 A 
ATOM     28  N   UNL     1      43.059   4.978  11.959  0.00  0.00    +0.000 N 
ATOM     29  C   UNL     1      44.002   4.578  12.859  0.00  0.00    +0.000 A 
ATOM     30  O   UNL     1      43.819   3.593  13.564  0.00  0.00    +0.000 OA
ATOM     31  C   UNL     1      45.157   5.455  12.940  0.00  0.00    +0.000 A 
ATOM     32  H   UNL     1      42.238   4.391  11.889  0.00  0.00    +0.000 HD
ENDBRANCH  19  22
ENDBRANCH   1  20
TORSDOF 7
ENDMDL
MODEL 5
REMARK VINA RESULT:    -6.726      3.206      4.462
REMARK INTER + INTRA:         -10.693
REMARK INTER:                  -9.725
REMARK INTRA:                  -0.969
REMARK UNBOUND:                -1.214
REMARK  Name = 
REMARK  7 active torsions:
REMARK  status: ('A' for Active; 'I' for Inactive)
REMARK    1  A    between atoms: C_2  and  C_19
REMARK    2  A    between atoms: N_3  and  C_4
REMARK    3  A    between atoms: C_4  and  C_5
REMARK    4  A    between atoms: C_8  and  C_9
REMARK    5  A    between atoms: C_9  and  N_10
REMARK    6  A    between atoms: N_10  and  C_11
REMARK    7  A    between atoms: C_11  and  C_12
REMARK                            x       y       z     vdW  Elec       q    Type
REMARK                         _______ _______ _______ _____ _____    ______ ____
ROOT
ATOM      1  C   UNL     1      49.450   6.198  17.654  0.00  0.00    +0.000 C 
ENDROOT
BRANCH   1   2
ATOM      2  C   UNL     1      48.668   5.832  16.420  0.00  0.00    +0.000 A 
ATOM      3  C   UNL     1      47.863   4.687  16.420  0.00  0.00    +0.000 A 
ATOM      4  C   UNL     1      47.067   4.373  15.315  0.00  0.00    +0.000 A 
ATOM      5  C   UNL     1      47.047   5.201  14.183  0.00  0.00    +0.000 A 
ATOM      6  C   UNL     1      47.888   6.325  14.169  0.00  0.00    +0.000 A 
ATOM      7  C   UNL     1      48.694   6.634  15.273  0.00  0.00    +0.000 A 
BRANCH   5   8
ATOM      8  C   UNL     1      46.195   4.884  12.968  0.00  0.00    +0.000 C 
BRANCH   8   9
ATOM      9  N   UNL     1      45.346   3.718  13.194  0.00  0.00    +0.000 NA
ATOM     10  H   UNL     1      44.964   3.767  14.138  0.00  0.00    +0.000 HD
BRANCH   9  11
ATOM     11  C   UNL     1      44.256   3.605  12.225  0.00  0.00    +0.000 C 
BRANCH  11  12
ATOM     12  C   UNL     1      44.853   3.447  10.814  0.00  0.00    +0.000 C 
ATOM     13  C   UNL     1      44.360   4.489   9.818  0.00  0.00    +0.000 C 
ATOM     14  C   UNL     1      44.763   3.875   8.492  0.00  0.00    +0.000 C 
ATOM     15  C   UNL     1      44.652   2.374   8.726  0.00  0.00    +0.000 C 
ATOM     16  N   UNL     1      44.475   2.183  10.169  0.00  0.00    +0.000 NA
ATOM     17  H   UNL     1      45.056   1.417  10.506  0.00  0.00    +0.000 HD
ENDBRANCH  11  12
ENDBRANCH   9  11
ENDBRANCH   8   9
ENDBRANCH   5   8
ENDBRANCH   1   2
BRANCH   1  20
ATOM     18  O   UNL     1      52.013   6.058  16.547  0.00  0.00    +0.000 OA
ATOM     19  C   UNL     1      51.699   5.249  17.414  0.00  0.00    +0.000 C 
ATOM     20  N   UNL     1      50.456   5.235  18.000  0.00  0.00    +0.000 N 
ATOM     21  H   UNL     1      50.305   4.700  18.852  0.00  0.00    +0.000 HD
BRANCH  19  22
ATOM     22  C   UNL     1      52.630   4.219  17.859  0.00  0.00    +0.000 A 
ATOM     23  C   UNL     1      53.860   4.559  18.409  0.00  0.00    +0.000 A 
ATOM     24  S   UNL     1      54.763   3.202  18.925  0.00  0.00    +0.000 S 
ATOM     25  C   UNL     1      53.529   2.131  18.440  0.00  0.00    +0.000 A 
ATOM     26  N   UNL     1      53.642   0.790  18.631  0.00  0.00    +0.000 NA
ATOM     27  C   UNL     1      52.620   0.109  18.242  0.00  0.00    +0.000 A 
ATOM     28  N   UNL     1      51.493   0.647  17.662  0.00  0.00    +0.000 N 
ATOM     29  C   UNL     1      51.366   1.975  17.379  0.00  0.00    +0.000 A 
ATOM     30  O   UNL     1      50.422   2.388  16.717  0.00  0.00    +0.000 OA
ATOM     31  C   UNL     1      52.466   2.794  17.858  0.00  0.00    +0.000 A 
ATOM     32  H   UNL     1      50.746   0.051  17.332  0.00  0.00    +0.000 HD
ENDBRANCH  19  22
ENDBRANCH   1  20
TORSDOF 7
ENDMDL
MODEL 6
REMARK VINA RESULT:    -6.706      2.137      3.061
REMARK INTER + INTRA:         -10.664
REMARK INTER:                  -8.988
REMARK INTRA:                  -1.677
REMARK UNBOUND:                -1.214
REMARK  Name = 
REMARK  7 active torsions:
REMARK  status: ('A' for Active; 'I' for Inactive)
REMARK    1  A    between atoms: C_2  and  C_19
REMARK    2  A    between atoms: N_3  and  C_4
REMARK    3  A    between atoms: C_4  and  C_5
REMARK    4  A    between atoms: C_8  and  C_9
REMARK    5  A    between atoms: C_9  and  N_10
REMARK    6  A    between atoms: N_10  and  C_11
REMARK    7  A    between atoms: C_11  and  C_12
REMARK                            x       y       z     vdW  Elec       q    Type
REMARK                         _______ _______ _______ _____ _____    ______ ____
ROOT
ATOM      1  C   UNL     1      48.910   7.629  13.010  0.00  0.00    +0.000 C 
ENDROOT
BRANCH   1   2
ATOM      2  C   UNL     1      47.472   7.609  12.563  0.00  0.00    +0.000 A 
ATOM      3  C   UNL     1      46.550   8.488  13.141  0.00  0.00    +0.000 A 
ATOM      4  C   UNL     1      45.231   8.542  12.684  0.00  0.00    +0.000 A 
ATOM      5  C   UNL     1      44.799   7.724  11.629  0.00  0.00    +0.000 A 
ATOM      6  C   UNL     1      45.714   6.813  11.081  0.00  0.00    +0.000 A 
ATOM      7  C   UNL     1      47.034   6.751  11.546  0.00  0.00    +0.000 A 
BRANCH   5   8
ATOM      8  C   UNL     1      43.372   7.759  11.115  0.00  0.00    +0.000 C 
BRANCH   8   9
ATOM      9  N   UNL     1      42.910   6.434  10.713  0.00  0.00    +0.000 NA
ATOM     10  H   UNL     1      43.683   5.935  10.275  0.00  0.00    +0.000 HD
BRANCH   9  11
ATOM     11  C   UNL     1      42.381   5.648  11.827  0.00  0.00    +0.000 C 
BRANCH  11  12
ATOM     12  C   UNL     1      43.130   4.304  11.895  0.00  0.00    +0.000 C 
ATOM     13  C   UNL     1      44.322   4.313  12.843  0.00  0.00    +0.000 C 
ATOM     14  C   UNL     1      45.072   3.066  12.419  0.00  0.00    +0.000 C 
ATOM     15  C   UNL     1      44.800   2.956  10.924  0.00  0.00    +0.000 C 
ATOM     16  N   UNL     1      43.740   3.921  10.616  0.00  0.00    +0.000 NA
ATOM     17  H   UNL     1      43.046   3.509   9.994  0.00  0.00    +0.000 HD
ENDBRANCH  11  12
ENDBRANCH   9  11
ENDBRANCH   8   9
ENDBRANCH   5   8
ENDBRANCH   1   2
BRANCH   1  20
ATOM     18  O   UNL     1      48.822   8.375  15.702  0.00  0.00    +0.000 OA
ATOM     19  C   UNL     1      49.093   7.213  15.420  0.00  0.00    +0.000 C 
ATOM     20  N   UNL     1      49.174   6.763  14.125  0.00  0.00    +0.000 N 
ATOM     21  H   UNL     1      49.187   5.764  13.936  0.00  0.00    +0.000 HD
BRANCH  19  22
ATOM     22  C   UNL     1      49.379   6.231  16.459  0.00  0.00    +0.000 A 
ATOM     23  C   UNL     1      50.438   6.412  17.342  0.00  0.00    +0.000 A 
ATOM     24  S   UNL     1      50.551   5.179  18.519  0.00  0.00    +0.000 S 
ATOM     25  C   UNL     1      49.182   4.381  17.890  0.00  0.00    +0.000 A 
ATOM     26  N   UNL     1      48.699   3.247  18.464  0.00  0.00    +0.000 NA
ATOM     27  C   UNL     1      47.643   2.773  17.898  0.00  0.00    +0.000 A 
ATOM     28  N   UNL     1      47.029   3.323  16.795  0.00  0.00    +0.000 N 
ATOM     29  C   UNL     1      47.520   4.412  16.139  0.00  0.00    +0.000 A 
ATOM     30  O   UNL     1      47.040   4.771  15.070  0.00  0.00    +0.000 OA
ATOM     31  C   UNL     1      48.674   5.022  16.777  0.00  0.00    +0.000 A 
ATOM     32  H   UNL     1      46.232   2.872  16.368  0.00  0.00    +0.000 HD
ENDBRANCH  19  22
ENDBRANCH   1  20
TORSDOF 7
ENDMDL
MODEL 7
REMARK VINA RESULT:    -6.681      1.754      2.351
REMARK INTER + INTRA:         -10.629
REMARK INTER:                  -9.426
REMARK INTRA:                  -1.203
REMARK UNBOUND:                -1.214
REMARK  Name = 
REMARK  7 active torsions:
REMARK  status: ('A' for Active; 'I' for Inactive)
REMARK    1  A    between atoms: C_2  and  C_19
REMARK    2  A    between atoms: N_3  and  C_4
REMARK    3  A    between atoms: C_4  and  C_5
REMARK    4  A    between atoms: C_8  and  C_9
REMARK    5  A    between atoms: C_9  and  N_10
REMARK    6  A    between atoms: N_10  and  C_11
REMARK    7  A    between atoms: C_11  and  C_12
REMARK                            x       y       z     vdW  Elec       q    Type
REMARK                         _______ _______ _______ _____ _____    ______ ____
ROOT
ATOM      1  C   UNL     1      48.561   7.530  13.002  0.00  0.00    +0.000 C 
ENDROOT
BRANCH   1   2
ATOM      2  C   UNL     1      47.276   6.746  12.958  0.00  0.00    +0.000 A 
ATOM      3  C   UNL     1      47.269   5.397  13.332  0.00  0.00    +0.000 A 
ATOM      4  C   UNL     1      46.075   4.674  13.376  0.00  0.00    +0.000 A 
ATOM      5  C   UNL     1      44.851   5.282  13.056  0.00  0.00    +0.000 A 
ATOM      6  C   UNL     1      44.867   6.622  12.641  0.00  0.00    +0.000 A 
ATOM      7  C   UNL     1      46.066   7.345  12.586  0.00  0.00    +0.000 A 
BRANCH   5   8
ATOM      8  C   UNL     1      43.540   4.520  13.093  0.00  0.00    +0.000 C 
BRANCH   8   9
ATOM      9  N   UNL     1      43.716   3.123  12.709  0.00  0.00    +0.000 NA
ATOM     10  H   UNL     1      43.185   2.535  13.350  0.00  0.00    +0.000 HD
BRANCH   9  11
ATOM     11  C   UNL     1      43.305   2.850  11.332  0.00  0.00    +0.000 C 
BRANCH  11  12
ATOM     12  C   UNL     1      44.519   3.024  10.400  0.00  0.00    +0.000 C 
ATOM     13  C   UNL     1      44.376   4.177   9.414  0.00  0.00    +0.000 C 
ATOM     14  C   UNL     1      45.468   3.870   8.409  0.00  0.00    +0.000 C 
ATOM     15  C   UNL     1      45.540   2.348   8.387  0.00  0.00    +0.000 C 
ATOM     16  N   UNL     1      44.736   1.871   9.517  0.00  0.00    +0.000 NA
ATOM     17  H   UNL     1      45.217   1.123  10.013  0.00  0.00    +0.000 HD
ENDBRANCH  11  12
ENDBRANCH   9  11
ENDBRANCH   8   9
ENDBRANCH   5   8
ENDBRANCH   1   2
BRANCH   1  20
ATOM     18  O   UNL     1      48.130   8.901  15.400  0.00  0.00    +0.000 OA
ATOM     19  C   UNL     1      49.014   8.051  15.355  0.00  0.00    +0.000 C 
ATOM     20  N   UNL     1      49.304   7.342  14.215  0.00  0.00    +0.000 N 
ATOM     21  H   UNL     1      49.885   6.509  14.272  0.00  0.00    +0.000 HD
BRANCH  19  22
ATOM     22  C   UNL     1      49.841   7.760  16.520  0.00  0.00    +0.000 A 
ATOM     23  C   UNL     1      50.717   8.712  17.030  0.00  0.00    +0.000 A 
ATOM     24  S   UNL     1      51.535   8.187  18.435  0.00  0.00    +0.000 S 
ATOM     25  C   UNL     1      50.731   6.685  18.407  0.00  0.00    +0.000 A 
ATOM     26  N   UNL     1      50.945   5.750  19.370  0.00  0.00    +0.000 NA
ATOM     27  C   UNL     1      50.246   4.676  19.234  0.00  0.00    +0.000 A 
ATOM     28  N   UNL     1      49.357   4.443  18.209  0.00  0.00    +0.000 N 
ATOM     29  C   UNL     1      49.167   5.315  17.179  0.00  0.00    +0.000 A 
ATOM     30  O   UNL     1      48.492   5.000  16.205  0.00  0.00    +0.000 OA
ATOM     31  C   UNL     1      49.885   6.570  17.321  0.00  0.00    +0.000 A 
ATOM     32  H   UNL     1      48.877   3.556  18.132  0.00  0.00    +0.000 HD
ENDBRANCH  19  22
ENDBRANCH   1  20
TORSDOF 7
ENDMDL
MODEL 8
REMARK VINA RESULT:    -6.593      4.544      9.087
REMARK INTER + INTRA:         -10.505
REMARK INTER:                  -9.551
REMARK INTRA:                  -0.954
REMARK UNBOUND:                -1.214
REMARK  Name = 
REMARK  7 active torsions:
REMARK  status: ('A' for Active; 'I' for Inactive)
REMARK    1  A    between atoms: C_2  and  C_19
REMARK    2  A    between atoms: N_3  and  C_4
REMARK    3  A    between atoms: C_4  and  C_5
REMARK    4  A    between atoms: C_8  and  C_9
REMARK    5  A    between atoms: C_9  and  N_10
REMARK    6  A    between atoms: N_10  and  C_11
REMARK    7  A    between atoms: C_11  and  C_12
REMARK                            x       y       z     vdW  Elec       q    Type
REMARK                         _______ _______ _______ _____ _____    ______ ____
ROOT
ATOM      1  C   UNL     1      47.221   3.759  16.872  0.00  0.00    +0.000 C 
ENDROOT
BRANCH   1   2
ATOM      2  C   UNL     1      48.668   3.409  17.106  0.00  0.00    +0.000 A 
ATOM      3  C   UNL     1      49.529   4.351  17.680  0.00  0.00    +0.000 A 
ATOM      4  C   UNL     1      50.852   4.020  17.980  0.00  0.00    +0.000 A 
ATOM      5  C   UNL     1      51.350   2.734  17.722  0.00  0.00    +0.000 A 
ATOM      6  C   UNL     1      50.497   1.805  17.107  0.00  0.00    +0.000 A 
ATOM      7  C   UNL     1      49.172   2.140  16.797  0.00  0.00    +0.000 A 
BRANCH   5   8
ATOM      8  C   UNL     1      52.783   2.347  18.035  0.00  0.00    +0.000 C 
BRANCH   8   9
ATOM      9  N   UNL     1      52.888   0.951  18.447  0.00  0.00    +0.000 NA
ATOM     10  H   UNL     1      52.024   0.469  18.202  0.00  0.00    +0.000 HD
BRANCH   9  11
ATOM     11  C   UNL     1      54.028   0.259  17.846  0.00  0.00    +0.000 C 
BRANCH  11  12
ATOM     12  C   UNL     1      54.305  -1.034  18.636  0.00  0.00    +0.000 C 
ATOM     13  C   UNL     1      54.938  -2.140  17.801  0.00  0.00    +0.000 C 
ATOM     14  C   UNL     1      54.727  -3.358  18.678  0.00  0.00    +0.000 C 
ATOM     15  C   UNL     1      53.414  -3.078  19.398  0.00  0.00    +0.000 C 
ATOM     16  N   UNL     1      53.082  -1.673  19.140  0.00  0.00    +0.000 NA
ATOM     17  H   UNL     1      52.760  -1.215  19.991  0.00  0.00    +0.000 HD
ENDBRANCH  11  12
ENDBRANCH   9  11
ENDBRANCH   8   9
ENDBRANCH   5   8
ENDBRANCH   1   2
BRANCH   1  20
ATOM     18  O   UNL     1      47.181   3.234  14.127  0.00  0.00    +0.000 OA
ATOM     19  C   UNL     1      47.010   4.386  14.511  0.00  0.00    +0.000 C 
ATOM     20  N   UNL     1      47.030   4.737  15.839  0.00  0.00    +0.000 N 
ATOM     21  H   UNL     1      46.676   5.646  16.127  0.00  0.00    +0.000 HD
BRANCH  19  22
ATOM     22  C   UNL     1      46.802   5.474  13.563  0.00  0.00    +0.000 A 
ATOM     23  C   UNL     1      45.731   5.454  12.676  0.00  0.00    +0.000 A 
ATOM     24  S   UNL     1      45.637   6.856  11.704  0.00  0.00    +0.000 S 
ATOM     25  C   UNL     1      47.011   7.531  12.452  0.00  0.00    +0.000 A 
ATOM     26  N   UNL     1      47.468   8.765  12.111  0.00  0.00    +0.000 NA
ATOM     27  C   UNL     1      48.498   9.156  12.780  0.00  0.00    +0.000 A 
ATOM     28  N   UNL     1      49.125   8.416  13.757  0.00  0.00    +0.000 N 
ATOM     29  C   UNL     1      48.753   7.145  14.079  0.00  0.00    +0.000 A 
ATOM     30  O   UNL     1      49.436   6.463  14.834  0.00  0.00    +0.000 OA
ATOM     31  C   UNL     1      47.557   6.683  13.397  0.00  0.00    +0.000 A 
ATOM     32  H   UNL     1      49.962   8.760  14.210  0.00  0.00    +0.000 HD
ENDBRANCH  19  22
ENDBRANCH   1  20
TORSDOF 7
ENDMDL
MODEL 9
REMARK VINA RESULT:    -6.537      3.308      7.779
REMARK INTER + INTRA:         -10.426
REMARK INTER:                  -8.825
REMARK INTRA:                  -1.602
REMARK UNBOUND:                -1.214
REMARK  Name = 
REMARK  7 active torsions:
REMARK  status: ('A' for Active; 'I' for Inactive)
REMARK    1  A    between atoms: C_2  and  C_19
REMARK    2  A    between atoms: N_3  and  C_4
REMARK    3  A    between atoms: C_4  and  C_5
REMARK    4  A    between atoms: C_8  and  C_9
REMARK    5  A    between atoms: C_9  and  N_10
REMARK    6  A    between atoms: N_10  and  C_11
REMARK    7  A    between atoms: C_11  and  C_12
REMARK                            x       y       z     vdW  Elec       q    Type
REMARK                         _______ _______ _______ _____ _____    ______ ____
ROOT
ATOM      1  C   UNL     1      48.043   8.682  14.037  0.00  0.00    +0.000 C 
ENDROOT
BRANCH   1   2
ATOM      2  C   UNL     1      48.583   8.157  15.342  0.00  0.00    +0.000 A 
ATOM      3  C   UNL     1      49.453   7.060  15.345  0.00  0.00    +0.000 A 
ATOM      4  C   UNL     1      50.028   6.609  16.536  0.00  0.00    +0.000 A 
ATOM      5  C   UNL     1      49.756   7.246  17.756  0.00  0.00    +0.000 A 
ATOM      6  C   UNL     1      48.849   8.318  17.754  0.00  0.00    +0.000 A 
ATOM      7  C   UNL     1      48.264   8.765  16.563  0.00  0.00    +0.000 A 
BRANCH   5   8
ATOM      8  C   UNL     1      50.364   6.776  19.064  0.00  0.00    +0.000 C 
BRANCH   8   9
ATOM      9  N   UNL     1      50.392   5.319  19.152  0.00  0.00    +0.000 NA
ATOM     10  H   UNL     1      51.237   5.036  19.647  0.00  0.00    +0.000 HD
BRANCH   9  11
ATOM     11  C   UNL     1      49.217   4.762  19.820  0.00  0.00    +0.000 C 
BRANCH  11  12
ATOM     12  C   UNL     1      48.465   3.846  18.835  0.00  0.00    +0.000 C 
ATOM     13  C   UNL     1      49.322   3.357  17.674  0.00  0.00    +0.000 C 
ATOM     14  C   UNL     1      48.277   2.849  16.702  0.00  0.00    +0.000 C 
ATOM     15  C   UNL     1      47.077   3.758  16.933  0.00  0.00    +0.000 C 
ATOM     16  N   UNL     1      47.357   4.525  18.152  0.00  0.00    +0.000 NA
ATOM     17  H   UNL     1      46.534   4.565  18.751  0.00  0.00    +0.000 HD
ENDBRANCH  11  12
ENDBRANCH   9  11
ENDBRANCH   8   9
ENDBRANCH   5   8
ENDBRANCH   1   2
BRANCH   1  20
ATOM     18  O   UNL     1      47.837   6.891  11.901  0.00  0.00    +0.000 OA
ATOM     19  C   UNL     1      46.832   7.147  12.556  0.00  0.00    +0.000 C 
ATOM     20  N   UNL     1      46.839   8.027  13.612  0.00  0.00    +0.000 N 
ATOM     21  H   UNL     1      46.053   8.049  14.256  0.00  0.00    +0.000 HD
BRANCH  19  22
ATOM     22  C   UNL     1      45.544   6.546  12.231  0.00  0.00    +0.000 A 
ATOM     23  C   UNL     1      44.506   7.315  11.717  0.00  0.00    +0.000 A 
ATOM     24  S   UNL     1      43.113   6.400  11.343  0.00  0.00    +0.000 S 
ATOM     25  C   UNL     1      43.864   4.954  11.842  0.00  0.00    +0.000 A 
ATOM     26  N   UNL     1      43.226   3.757  11.752  0.00  0.00    +0.000 NA
ATOM     27  C   UNL     1      43.928   2.748  12.140  0.00  0.00    +0.000 A 
ATOM     28  N   UNL     1      45.214   2.828  12.625  0.00  0.00    +0.000 N 
ATOM     29  C   UNL     1      45.867   4.010  12.807  0.00  0.00    +0.000 A 
ATOM     30  O   UNL     1      46.943   4.050  13.392  0.00  0.00    +0.000 OA
ATOM     31  C   UNL     1      45.140   5.172  12.325  0.00  0.00    +0.000 A 
ATOM     32  H   UNL     1      45.692   2.002  12.961  0.00  0.00    +0.000 HD
ENDBRANCH  19  22
ENDBRANCH   1  20
TORSDOF 7
ENDMDL
