MODEL 1
REMARK VINA RESULT:    -6.896      0.000      0.000
REMARK INTER + INTRA:         -12.499
REMARK INTER:                 -11.128
REMARK INTRA:                  -1.371
REMARK UNBOUND:                -1.371
REMARK  Name = 
REMARK  13 active torsions:
REMARK  status: ('A' for Active; 'I' for Inactive)
REMARK    1  A    between atoms: C_1  and  O_2
REMARK    2  A    between atoms: O_2  and  C_3
REMARK    3  A    between atoms: C_5  and  C_6
REMARK    4  A    between atoms: C_11  and  C_12
REMARK    5  A    between atoms: N_14  and  C_15
REMARK    6  A    between atoms: C_15  and  C_16
REMARK    7  A    between atoms: C_19  and  C_20
REMARK    8  A    between atoms: C_20  and  C_21
REMARK    9  A    between atoms: C_21  and  N_22
REMARK   10  A    between atoms: N_22  and  C_23
REMARK   11  A    between atoms: N_26  and  C_27
REMARK   12  A    between atoms: C_27  and  C_28
REMARK   13  A    between atoms: C_28  and  O_29
REMARK                            x       y       z     vdW  Elec       q    Type
REMARK                         _______ _______ _______ _____ _____    ______ ____
ROOT
ATOM      1  C   UNL     1      48.359   5.822  16.771  0.00  0.00    +0.000 A 
ATOM      2  C   UNL     1      47.581   4.674  16.589  0.00  0.00    +0.000 A 
ATOM      3  C   UNL     1      47.070   4.364  15.325  0.00  0.00    +0.000 A 
ATOM      4  C   UNL     1      47.304   5.198  14.231  0.00  0.00    +0.000 A 
ATOM      5  C   UNL     1      48.128   6.315  14.410  0.00  0.00    +0.000 A 
ATOM      6  C   UNL     1      48.653   6.629  15.668  0.00  0.00    +0.000 A 
ENDROOT
BRANCH   1   7
ATOM      7  C   UNL     1      48.909   6.149  18.134  0.00  0.00    +0.000 C 
BRANCH   7  10
ATOM      8  C   UNL     1      51.299   5.753  18.443  0.00  0.00    +0.000 C 
ATOM      9  O   UNL     1      51.583   6.876  18.037  0.00  0.00    +0.000 OA
ATOM     10  N   UNL     1      50.013   5.288  18.464  0.00  0.00    +0.000 N 
ATOM     11  H   UNL     1      49.803   4.402  18.905  0.00  0.00    +0.000 HD
BRANCH   8  20
ATOM     12  C   UNL     1      51.892   2.514  17.679  0.00  0.00    +0.000 A 
ATOM     13  N   UNL     1      52.333   1.247  17.555  0.00  0.00    +0.000 NA
ATOM     14  C   UNL     1      53.402   0.866  18.270  0.00  0.00    +0.000 A 
ATOM     15  C   UNL     1      53.879  -0.543  18.091  0.00  0.00    +0.000 C 
ATOM     16  N   UNL     1      54.094   1.634  19.117  0.00  0.00    +0.000 NA
ATOM     17  C   UNL     1      53.625   2.889  19.206  0.00  0.00    +0.000 A 
ATOM     18  S   UNL     1      54.382   4.007  20.240  0.00  0.00    +0.000 S 
ATOM     19  C   UNL     1      53.269   5.224  19.824  0.00  0.00    +0.000 A 
ATOM     20  C   UNL     1      52.331   4.815  18.887  0.00  0.00    +0.000 A 
ATOM     21  C   UNL     1      52.542   3.424  18.524  0.00  0.00    +0.000 A 
BRANCH  12  23
ATOM     22  C   UNL     1      49.756   1.979  16.882  0.00  0.00    +0.000 C 
ATOM     23  O   UNL     1      50.824   2.922  16.907  0.00  0.00    +0.000 OA
ENDBRANCH  12  23
ENDBRANCH   8  20
ENDBRANCH   7  10
ENDBRANCH   1   7
BRANCH   4  24
ATOM     24  C   UNL     1      46.736   4.912  12.855  0.00  0.00    +0.000 C 
BRANCH  24  25
ATOM     25  C   UNL     1      45.391   4.159  12.801  0.00  0.00    +0.000 C 
BRANCH  25  26
ATOM     26  N   UNL     1      45.348   3.076  11.805  0.00  0.00    +0.000 NA
ATOM     27  H   UNL     1      45.181   2.194  12.294  0.00  0.00    +0.000 HD
BRANCH  26  28
ATOM     28  C   UNL     1      44.305   3.271  10.780  0.00  0.00    +0.000 C 
ATOM     29  C   UNL     1      44.338   2.130   9.755  0.00  0.00    +0.000 C 
ATOM     30  C   UNL     1      45.516   2.234   8.781  0.00  0.00    +0.000 C 
ATOM     31  N   UNL     1      45.522   3.514   8.051  0.00  0.00    +0.000 NA
ATOM     32  C   UNL     1      45.554   4.640   9.009  0.00  0.00    +0.000 C 
ATOM     33  C   UNL     1      44.397   4.598  10.011  0.00  0.00    +0.000 C 
BRANCH  31  34
ATOM     34  C   UNL     1      46.704   3.616   7.154  0.00  0.00    +0.000 C 
BRANCH  34  35
ATOM     35  C   UNL     1      47.438   2.286   6.908  0.00  0.00    +0.000 C 
BRANCH  35  36
ATOM     36  O   UNL     1      48.750   2.513   6.405  0.00  0.00    +0.000 OA
ATOM     37  H   UNL     1      49.215   3.002   7.111  0.00  0.00    +0.000 HD
ENDBRANCH  35  36
ENDBRANCH  34  35
ENDBRANCH  31  34
ENDBRANCH  26  28
ENDBRANCH  25  26
ENDBRANCH  24  25
ENDBRANCH   4  24
TORSDOF 11
ENDMDL
MODEL 2
REMARK VINA RESULT:    -6.249      4.144      9.152
REMARK INTER + INTRA:         -11.456
REMARK INTER:                  -9.523
REMARK INTRA:                  -1.933
REMARK UNBOUND:                -1.371
REMARK  Name = 
REMARK  13 active torsions:
REMARK  status: ('A' for Active; 'I' for Inactive)
REMARK    1  A    between atoms: C_1  and  O_2
REMARK    2  A    between atoms: O_2  and  C_3
REMARK    3  A    between atoms: C_5  and  C_6
REMARK    4  A    between atoms: C_11  and  C_12
REMARK    5  A    between atoms: N_14  and  C_15
REMARK    6  A    between atoms: C_15  and  C_16
REMARK    7  A    between atoms: C_19  and  C_20
REMARK    8  A    between atoms: C_20  and  C_21
REMARK    9  A    between atoms: C_21  and  N_22
REMARK   10  A    between atoms: N_22  and  C_23
REMARK   11  A    between atoms: N_26  and  C_27
REMARK   12  A    between atoms: C_27  and  C_28
REMARK   13  A    between atoms: C_28  and  O_29
REMARK                            x       y       z     vdW  Elec       q    Type
REMARK                         _______ _______ _______ _____ _____    ______ ____
ROOT
ATOM      1  C   UNL     1      49.339   8.886  16.082  0.00  0.00    +0.000 A 
ATOM      2  C   UNL     1      50.378   8.764  17.010  0.00  0.00    +0.000 A 
ATOM      3  C   UNL     1      50.153   9.050  18.360  0.00  0.00    +0.000 A 
ATOM      4  C   UNL     1      48.901   9.482  18.804  0.00  0.00    +0.000 A 
ATOM      5  C   UNL     1      47.854   9.549  17.879  0.00  0.00    +0.000 A 
ATOM      6  C   UNL     1      48.065   9.255  16.527  0.00  0.00    +0.000 A 
ENDROOT
BRANCH   1   7
ATOM      7  C   UNL     1      49.587   8.574  14.630  0.00  0.00    +0.000 C 
BRANCH   7  10
ATOM      8  C   UNL     1      48.223   7.124  13.215  0.00  0.00    +0.000 C 
ATOM      9  O   UNL     1      49.167   6.368  13.004  0.00  0.00    +0.000 OA
ATOM     10  N   UNL     1      48.357   8.269  13.951  0.00  0.00    +0.000 N 
ATOM     11  H   UNL     1      47.538   8.811  14.195  0.00  0.00    +0.000 HD
BRANCH   8  20
ATOM     12  C   UNL     1      46.333   4.327  13.035  0.00  0.00    +0.000 A 
ATOM     13  N   UNL     1      45.405   3.374  12.827  0.00  0.00    +0.000 NA
ATOM     14  C   UNL     1      44.279   3.703  12.176  0.00  0.00    +0.000 A 
ATOM     15  C   UNL     1      43.259   2.624  11.981  0.00  0.00    +0.000 C 
ATOM     16  N   UNL     1      43.975   4.914  11.698  0.00  0.00    +0.000 NA
ATOM     17  C   UNL     1      44.924   5.836  11.932  0.00  0.00    +0.000 A 
ATOM     18  S   UNL     1      44.707   7.434  11.392  0.00  0.00    +0.000 S 
ATOM     19  C   UNL     1      46.223   7.902  12.007  0.00  0.00    +0.000 A 
ATOM     20  C   UNL     1      46.898   6.873  12.646  0.00  0.00    +0.000 A 
ATOM     21  C   UNL     1      46.126   5.642  12.597  0.00  0.00    +0.000 A 
BRANCH  12  23
ATOM     22  C   UNL     1      47.268   4.017  15.159  0.00  0.00    +0.000 C 
ATOM     23  O   UNL     1      47.468   4.002  13.748  0.00  0.00    +0.000 OA
ENDBRANCH  12  23
ENDBRANCH   8  20
ENDBRANCH   7  10
ENDBRANCH   1   7
BRANCH   4  24
ATOM     24  C   UNL     1      48.631   9.834  20.253  0.00  0.00    +0.000 C 
BRANCH  24  25
ATOM     25  C   UNL     1      48.026   8.724  21.137  0.00  0.00    +0.000 C 
BRANCH  25  26
ATOM     26  N   UNL     1      48.652   7.404  20.957  0.00  0.00    +0.000 NA
ATOM     27  H   UNL     1      49.190   7.184  21.798  0.00  0.00    +0.000 HD
BRANCH  26  28
ATOM     28  C   UNL     1      47.676   6.327  20.708  0.00  0.00    +0.000 C 
ATOM     29  C   UNL     1      48.271   4.964  21.080  0.00  0.00    +0.000 C 
ATOM     30  C   UNL     1      49.301   4.461  20.063  0.00  0.00    +0.000 C 
ATOM     31  N   UNL     1      48.739   4.365  18.705  0.00  0.00    +0.000 NA
ATOM     32  C   UNL     1      48.209   5.681  18.285  0.00  0.00    +0.000 C 
ATOM     33  C   UNL     1      47.169   6.239  19.259  0.00  0.00    +0.000 C 
BRANCH  31  34
ATOM     34  C   UNL     1      49.769   3.930  17.725  0.00  0.00    +0.000 C 
BRANCH  34  35
ATOM     35  C   UNL     1      49.863   2.406  17.530  0.00  0.00    +0.000 C 
BRANCH  35  36
ATOM     36  O   UNL     1      50.032   2.077  16.155  0.00  0.00    +0.000 OA
ATOM     37  H   UNL     1      50.990   2.155  15.987  0.00  0.00    +0.000 HD
ENDBRANCH  35  36
ENDBRANCH  34  35
ENDBRANCH  31  34
ENDBRANCH  26  28
ENDBRANCH  25  26
ENDBRANCH  24  25
ENDBRANCH   4  24
TORSDOF 11
ENDMDL
MODEL 3
REMARK VINA RESULT:    -6.120      3.866     10.193
REMARK INTER + INTRA:         -11.248
REMARK INTER:                  -9.457
REMARK INTRA:                  -1.791
REMARK UNBOUND:                -1.371
REMARK  Name = 
REMARK  13 active torsions:
REMARK  status: ('A' for Active; 'I' for Inactive)
REMARK    1  A    between atoms: C_1  and  O_2
REMARK    2  A    between atoms: O_2  and  C_3
REMARK    3  A    between atoms: C_5  and  C_6
REMARK    4  A    between atoms: C_11  and  C_12
REMARK    5  A    between atoms: N_14  and  C_15
REMARK    6  A    between atoms: C_15  and  C_16
REMARK    7  A    between atoms: C_19  and  C_20
REMARK    8  A    between atoms: C_20  and  C_21
REMARK    9  A    between atoms: C_21  and  N_22
REMARK   10  A    between atoms: N_22  and  C_23
REMARK   11  A    between atoms: N_26  and  C_27
REMARK   12  A    between atoms: C_27  and  C_28
REMARK   13  A    between atoms: C_28  and  O_29
REMARK                            x       y       z     vdW  Elec       q    Type
REMARK                         _______ _______ _______ _____ _____    ______ ____
ROOT
ATOM      1  C   UNL     1      47.595   4.446  16.132  0.00  0.00    +0.000 A 
ATOM      2  C   UNL     1      47.527   3.242  16.838  0.00  0.00    +0.000 A 
ATOM      3  C   UNL     1      47.888   3.196  18.188  0.00  0.00    +0.000 A 
ATOM      4  C   UNL     1      48.343   4.338  18.849  0.00  0.00    +0.000 A 
ATOM      5  C   UNL     1      48.356   5.550  18.150  0.00  0.00    +0.000 A 
ATOM      6  C   UNL     1      47.987   5.610  16.802  0.00  0.00    +0.000 A 
ENDROOT
BRANCH   1   7
ATOM      7  C   UNL     1      47.201   4.490  14.679  0.00  0.00    +0.000 C 
BRANCH   7  10
ATOM      8  C   UNL     1      47.815   6.464  13.378  0.00  0.00    +0.000 C 
ATOM      9  O   UNL     1      48.868   5.950  13.013  0.00  0.00    +0.000 OA
ATOM     10  N   UNL     1      46.964   5.842  14.250  0.00  0.00    +0.000 N 
ATOM     11  H   UNL     1      46.056   6.245  14.444  0.00  0.00    +0.000 HD
BRANCH   8  20
ATOM     12  C   UNL     1      45.062   7.607  11.784  0.00  0.00    +0.000 A 
ATOM     13  N   UNL     1      44.095   8.305  11.159  0.00  0.00    +0.000 NA
ATOM     14  C   UNL     1      44.265   9.624  10.980  0.00  0.00    +0.000 A 
ATOM     15  C   UNL     1      43.160  10.372  10.301  0.00  0.00    +0.000 C 
ATOM     16  N   UNL     1      45.327  10.337  11.368  0.00  0.00    +0.000 NA
ATOM     17  C   UNL     1      46.265   9.605  11.992  0.00  0.00    +0.000 A 
ATOM     18  S   UNL     1      47.688  10.347  12.553  0.00  0.00    +0.000 S 
ATOM     19  C   UNL     1      48.292   8.868  13.136  0.00  0.00    +0.000 A 
ATOM     20  C   UNL     1      47.424   7.804  12.939  0.00  0.00    +0.000 A 
ATOM     21  C   UNL     1      46.220   8.243  12.254  0.00  0.00    +0.000 A 
BRANCH  12  23
ATOM     22  C   UNL     1      45.234   5.443  10.907  0.00  0.00    +0.000 C 
ATOM     23  O   UNL     1      44.866   6.262  12.013  0.00  0.00    +0.000 OA
ENDBRANCH  12  23
ENDBRANCH   8  20
ENDBRANCH   7  10
ENDBRANCH   1   7
BRANCH   4  24
ATOM     24  C   UNL     1      48.777   4.318  20.301  0.00  0.00    +0.000 C 
BRANCH  24  25
ATOM     25  C   UNL     1      49.953   5.237  20.688  0.00  0.00    +0.000 C 
BRANCH  25  26
ATOM     26  N   UNL     1      51.235   4.535  20.859  0.00  0.00    +0.000 NA
ATOM     27  H   UNL     1      51.093   3.546  20.639  0.00  0.00    +0.000 HD
BRANCH  26  28
ATOM     28  C   UNL     1      52.311   5.073  20.006  0.00  0.00    +0.000 C 
ATOM     29  C   UNL     1      51.950   4.922  18.523  0.00  0.00    +0.000 C 
ATOM     30  C   UNL     1      52.076   3.481  18.019  0.00  0.00    +0.000 C 
ATOM     31  N   UNL     1      53.431   2.938  18.224  0.00  0.00    +0.000 NA
ATOM     32  C   UNL     1      53.791   3.010  19.657  0.00  0.00    +0.000 C 
ATOM     33  C   UNL     1      53.689   4.428  20.222  0.00  0.00    +0.000 C 
BRANCH  31  34
ATOM     34  C   UNL     1      53.516   1.521  17.780  0.00  0.00    +0.000 C 
BRANCH  34  35
ATOM     35  C   UNL     1      52.168   0.891  17.388  0.00  0.00    +0.000 C 
BRANCH  35  36
ATOM     36  O   UNL     1      51.727  -0.029  18.381  0.00  0.00    +0.000 OA
ATOM     37  H   UNL     1      50.990  -0.519  17.969  0.00  0.00    +0.000 HD
ENDBRANCH  35  36
ENDBRANCH  34  35
ENDBRANCH  31  34
ENDBRANCH  26  28
ENDBRANCH  25  26
ENDBRANCH  24  25
ENDBRANCH   4  24
TORSDOF 11
ENDMDL
MODEL 4
REMARK VINA RESULT:    -5.992      6.718      8.472
REMARK INTER + INTRA:         -11.040
REMARK INTER:                  -9.762
REMARK INTRA:                  -1.278
REMARK UNBOUND:                -1.371
REMARK  Name = 
REMARK  13 active torsions:
REMARK  status: ('A' for Active; 'I' for Inactive)
REMARK    1  A    between atoms: C_1  and  O_2
REMARK    2  A    between atoms: O_2  and  C_3
REMARK    3  A    between atoms: C_5  and  C_6
REMARK    4  A    between atoms: C_11  and  C_12
REMARK    5  A    between atoms: N_14  and  C_15
REMARK    6  A    between atoms: C_15  and  C_16
REMARK    7  A    between atoms: C_19  and  C_20
REMARK    8  A    between atoms: C_20  and  C_21
REMARK    9  A    between atoms: C_21  and  N_22
REMARK   10  A    between atoms: N_22  and  C_23
REMARK   11  A    between atoms: N_26  and  C_27
REMARK   12  A    between atoms: C_27  and  C_28
REMARK   13  A    between atoms: C_28  and  O_29
REMARK                            x       y       z     vdW  Elec       q    Type
REMARK                         _______ _______ _______ _____ _____    ______ ____
ROOT
ATOM      1  C   UNL     1      50.510   8.925  11.443  0.00  0.00    +0.000 A 
ATOM      2  C   UNL     1      49.809   7.720  11.557  0.00  0.00    +0.000 A 
ATOM      3  C   UNL     1      48.435   7.725  11.813  0.00  0.00    +0.000 A 
ATOM      4  C   UNL     1      47.741   8.925  11.983  0.00  0.00    +0.000 A 
ATOM      5  C   UNL     1      48.438  10.126  11.814  0.00  0.00    +0.000 A 
ATOM      6  C   UNL     1      49.812  10.132  11.547  0.00  0.00    +0.000 A 
ENDROOT
BRANCH   1   7
ATOM      7  C   UNL     1      51.989   8.911  11.164  0.00  0.00    +0.000 C 
BRANCH   7  10
ATOM      8  C   UNL     1      53.207   8.959   9.048  0.00  0.00    +0.000 C 
ATOM      9  O   UNL     1      53.781  10.002   9.350  0.00  0.00    +0.000 OA
ATOM     10  N   UNL     1      52.261   8.387   9.853  0.00  0.00    +0.000 N 
ATOM     11  H   UNL     1      51.888   7.474   9.625  0.00  0.00    +0.000 HD
BRANCH   8  20
ATOM     12  C   UNL     1      53.772   5.716   8.280  0.00  0.00    +0.000 A 
ATOM     13  N   UNL     1      54.025   4.519   7.718  0.00  0.00    +0.000 NA
ATOM     14  C   UNL     1      54.225   4.459   6.393  0.00  0.00    +0.000 A 
ATOM     15  C   UNL     1      54.483   3.109   5.798  0.00  0.00    +0.000 C 
ATOM     16  N   UNL     1      54.198   5.495   5.548  0.00  0.00    +0.000 NA
ATOM     17  C   UNL     1      53.937   6.668   6.148  0.00  0.00    +0.000 A 
ATOM     18  S   UNL     1      53.867   8.096   5.227  0.00  0.00    +0.000 S 
ATOM     19  C   UNL     1      53.547   9.034   6.609  0.00  0.00    +0.000 A 
ATOM     20  C   UNL     1      53.464   8.285   7.775  0.00  0.00    +0.000 A 
ATOM     21  C   UNL     1      53.701   6.878   7.498  0.00  0.00    +0.000 A 
BRANCH  12  23
ATOM     22  C   UNL     1      54.569   5.231  10.427  0.00  0.00    +0.000 C 
ATOM     23  O   UNL     1      53.516   5.772   9.634  0.00  0.00    +0.000 OA
ENDBRANCH  12  23
ENDBRANCH   8  20
ENDBRANCH   7  10
ENDBRANCH   1   7
BRANCH   4  24
ATOM     24  C   UNL     1      46.259   8.968  12.297  0.00  0.00    +0.000 C 
BRANCH  24  25
ATOM     25  C   UNL     1      45.655   7.719  12.971  0.00  0.00    +0.000 C 
BRANCH  25  26
ATOM     26  N   UNL     1      44.474   7.176  12.280  0.00  0.00    +0.000 NA
ATOM     27  H   UNL     1      44.717   7.017  11.300  0.00  0.00    +0.000 HD
BRANCH  26  28
ATOM     28  C   UNL     1      43.983   5.917  12.871  0.00  0.00    +0.000 C 
ATOM     29  C   UNL     1      45.130   4.911  13.024  0.00  0.00    +0.000 C 
ATOM     30  C   UNL     1      45.561   4.285  11.694  0.00  0.00    +0.000 C 
ATOM     31  N   UNL     1      44.443   3.613  11.009  0.00  0.00    +0.000 NA
ATOM     32  C   UNL     1      43.338   4.571  10.787  0.00  0.00    +0.000 C 
ATOM     33  C   UNL     1      42.857   5.230  12.082  0.00  0.00    +0.000 C 
BRANCH  31  34
ATOM     34  C   UNL     1      44.868   3.062   9.695  0.00  0.00    +0.000 C 
BRANCH  34  35
ATOM     35  C   UNL     1      44.674   4.020   8.506  0.00  0.00    +0.000 C 
BRANCH  35  36
ATOM     36  O   UNL     1      45.867   4.130   7.738  0.00  0.00    +0.000 OA
ATOM     37  H   UNL     1      46.177   5.046   7.872  0.00  0.00    +0.000 HD
ENDBRANCH  35  36
ENDBRANCH  34  35
ENDBRANCH  31  34
ENDBRANCH  26  28
ENDBRANCH  25  26
ENDBRANCH  24  25
ENDBRANCH   4  24
TORSDOF 11
ENDMDL
MODEL 5
REMARK VINA RESULT:    -5.583      3.878      9.242
REMARK INTER + INTRA:         -10.381
REMARK INTER:                  -9.012
REMARK INTRA:                  -1.370
REMARK UNBOUND:                -1.371
REMARK  Name = 
REMARK  13 active torsions:
REMARK  status: ('A' for Active; 'I' for Inactive)
REMARK    1  A    between atoms: C_1  and  O_2
REMARK    2  A    between atoms: O_2  and  C_3
REMARK    3  A    between atoms: C_5  and  C_6
REMARK    4  A    between atoms: C_11  and  C_12
REMARK    5  A    between atoms: N_14  and  C_15
REMARK    6  A    between atoms: C_15  and  C_16
REMARK    7  A    between atoms: C_19  and  C_20
REMARK    8  A    between atoms: C_20  and  C_21
REMARK    9  A    between atoms: C_21  and  N_22
REMARK   10  A    between atoms: N_22  and  C_23
REMARK   11  A    between atoms: N_26  and  C_27
REMARK   12  A    between atoms: C_27  and  C_28
REMARK   13  A    between atoms: C_28  and  O_29
REMARK                            x       y       z     vdW  Elec       q    Type
REMARK                         _______ _______ _______ _____ _____    ______ ____
ROOT
ATOM      1  C   UNL     1      48.956   8.708  16.566  0.00  0.00    +0.000 A 
ATOM      2  C   UNL     1      50.182   8.036  16.573  0.00  0.00    +0.000 A 
ATOM      3  C   UNL     1      50.501   7.164  17.618  0.00  0.00    +0.000 A 
ATOM      4  C   UNL     1      49.618   6.964  18.681  0.00  0.00    +0.000 A 
ATOM      5  C   UNL     1      48.371   7.598  18.639  0.00  0.00    +0.000 A 
ATOM      6  C   UNL     1      48.038   8.465  17.592  0.00  0.00    +0.000 A 
ENDROOT
BRANCH   1   7
ATOM      7  C   UNL     1      48.618   9.644  15.435  0.00  0.00    +0.000 C 
BRANCH   7  10
ATOM      8  C   UNL     1      47.705   8.230  13.666  0.00  0.00    +0.000 C 
ATOM      9  O   UNL     1      48.825   7.883  13.303  0.00  0.00    +0.000 OA
ATOM     10  N   UNL     1      47.512   9.143  14.666  0.00  0.00    +0.000 N 
ATOM     11  H   UNL     1      46.578   9.324  15.011  0.00  0.00    +0.000 HD
BRANCH   8  20
ATOM     12  C   UNL     1      46.350   5.137  13.510  0.00  0.00    +0.000 A 
ATOM     13  N   UNL     1      45.622   4.025  13.289  0.00  0.00    +0.000 NA
ATOM     14  C   UNL     1      44.517   4.120  12.534  0.00  0.00    +0.000 A 
ATOM     15  C   UNL     1      43.720   2.868  12.327  0.00  0.00    +0.000 C 
ATOM     16  N   UNL     1      44.050   5.234  11.963  0.00  0.00    +0.000 NA
ATOM     17  C   UNL     1      44.801   6.319  12.213  0.00  0.00    +0.000 A 
ATOM     18  S   UNL     1      44.359   7.827  11.563  0.00  0.00    +0.000 S 
ATOM     19  C   UNL     1      45.712   8.584  12.264  0.00  0.00    +0.000 A 
ATOM     20  C   UNL     1      46.498   7.721  13.014  0.00  0.00    +0.000 A 
ATOM     21  C   UNL     1      45.957   6.373  12.979  0.00  0.00    +0.000 A 
BRANCH  12  23
ATOM     22  C   UNL     1      47.214   4.329  15.531  0.00  0.00    +0.000 C 
ATOM     23  O   UNL     1      47.458   5.051  14.327  0.00  0.00    +0.000 OA
ENDBRANCH  12  23
ENDBRANCH   8  20
ENDBRANCH   7  10
ENDBRANCH   1   7
BRANCH   4  24
ATOM     24  C   UNL     1      49.944   6.053  19.849  0.00  0.00    +0.000 C 
BRANCH  24  25
ATOM     25  C   UNL     1      49.922   4.536  19.573  0.00  0.00    +0.000 C 
BRANCH  25  26
ATOM     26  N   UNL     1      51.253   3.941  19.375  0.00  0.00    +0.000 NA
ATOM     27  H   UNL     1      51.258   3.010  19.797  0.00  0.00    +0.000 HD
BRANCH  26  28
ATOM     28  C   UNL     1      51.636   3.835  17.954  0.00  0.00    +0.000 C 
ATOM     29  C   UNL     1      51.000   2.593  17.317  0.00  0.00    +0.000 C 
ATOM     30  C   UNL     1      51.676   1.286  17.745  0.00  0.00    +0.000 C 
ATOM     31  N   UNL     1      53.117   1.280  17.437  0.00  0.00    +0.000 NA
ATOM     32  C   UNL     1      53.777   2.432  18.088  0.00  0.00    +0.000 C 
ATOM     33  C   UNL     1      53.150   3.772  17.698  0.00  0.00    +0.000 C 
BRANCH  31  34
ATOM     34  C   UNL     1      53.764   0.027  17.911  0.00  0.00    +0.000 C 
BRANCH  34  35
ATOM     35  C   UNL     1      54.661  -0.663  16.869  0.00  0.00    +0.000 C 
BRANCH  35  36
ATOM     36  O   UNL     1      54.876   0.179  15.741  0.00  0.00    +0.000 OA
ATOM     37  H   UNL     1      55.845   0.288  15.682  0.00  0.00    +0.000 HD
ENDBRANCH  35  36
ENDBRANCH  34  35
ENDBRANCH  31  34
ENDBRANCH  26  28
ENDBRANCH  25  26
ENDBRANCH  24  25
ENDBRANCH   4  24
TORSDOF 11
ENDMDL
MODEL 6
REMARK VINA RESULT:    -5.434      4.172      9.963
REMARK INTER + INTRA:         -10.141
REMARK INTER:                  -7.911
REMARK INTRA:                  -2.230
REMARK UNBOUND:                -1.371
REMARK  Name = 
REMARK  13 active torsions:
REMARK  status: ('A' for Active; 'I' for Inactive)
REMARK    1  A    between atoms: C_1  and  O_2
REMARK    2  A    between atoms: O_2  and  C_3
REMARK    3  A    between atoms: C_5  and  C_6
REMARK    4  A    between atoms: C_11  and  C_12
REMARK    5  A    between atoms: N_14  and  C_15
REMARK    6  A    between atoms: C_15  and  C_16
REMARK    7  A    between atoms: C_19  and  C_20
REMARK    8  A    between atoms: C_20  and  C_21
REMARK    9  A    between atoms: C_21  and  N_22
REMARK   10  A    between atoms: N_22  and  C_23
REMARK   11  A    between atoms: N_26  and  C_27
REMARK   12  A    between atoms: C_27  and  C_28
REMARK   13  A    between atoms: C_28  and  O_29
REMARK                            x       y       z     vdW  Elec       q    Type
REMARK                         _______ _______ _______ _____ _____    ______ ____
ROOT
ATOM      1  C   UNL     1      47.462   4.178  15.952  0.00  0.00    +0.000 A 
ATOM      2  C   UNL     1      48.008   2.999  16.467  0.00  0.00    +0.000 A 
ATOM      3  C   UNL     1      48.453   2.948  17.792  0.00  0.00    +0.000 A 
ATOM      4  C   UNL     1      48.382   4.073  18.616  0.00  0.00    +0.000 A 
ATOM      5  C   UNL     1      47.784   5.232  18.110  0.00  0.00    +0.000 A 
ATOM      6  C   UNL     1      47.327   5.291  16.789  0.00  0.00    +0.000 A 
ENDROOT
BRANCH   1   7
ATOM      7  C   UNL     1      46.983   4.225  14.525  0.00  0.00    +0.000 C 
BRANCH   7  10
ATOM      8  C   UNL     1      47.570   6.262  13.311  0.00  0.00    +0.000 C 
ATOM      9  O   UNL     1      48.665   5.807  12.991  0.00  0.00    +0.000 OA
ATOM     10  N   UNL     1      46.705   5.577  14.120  0.00  0.00    +0.000 N 
ATOM     11  H   UNL     1      45.770   5.932  14.275  0.00  0.00    +0.000 HD
BRANCH   8  20
ATOM     12  C   UNL     1      44.778   7.343  11.744  0.00  0.00    +0.000 A 
ATOM     13  N   UNL     1      43.788   8.020  11.131  0.00  0.00    +0.000 NA
ATOM     14  C   UNL     1      43.921   9.345  10.963  0.00  0.00    +0.000 A 
ATOM     15  C   UNL     1      42.791  10.068  10.298  0.00  0.00    +0.000 C 
ATOM     16  N   UNL     1      44.965  10.083  11.352  0.00  0.00    +0.000 NA
ATOM     17  C   UNL     1      45.926   9.372  11.964  0.00  0.00    +0.000 A 
ATOM     18  S   UNL     1      47.332  10.148  12.523  0.00  0.00    +0.000 S 
ATOM     19  C   UNL     1      47.980   8.680  13.089  0.00  0.00    +0.000 A 
ATOM     20  C   UNL     1      47.140   7.594  12.888  0.00  0.00    +0.000 A 
ATOM     21  C   UNL     1      45.920   8.007  12.213  0.00  0.00    +0.000 A 
BRANCH  12  23
ATOM     22  C   UNL     1      44.968   5.195  10.833  0.00  0.00    +0.000 C 
ATOM     23  O   UNL     1      44.620   5.991  11.962  0.00  0.00    +0.000 OA
ENDBRANCH  12  23
ENDBRANCH   8  20
ENDBRANCH   7  10
ENDBRANCH   1   7
BRANCH   4  24
ATOM     24  C   UNL     1      48.886   4.064  20.046  0.00  0.00    +0.000 C 
BRANCH  24  25
ATOM     25  C   UNL     1      49.369   5.413  20.620  0.00  0.00    +0.000 C 
BRANCH  25  26
ATOM     26  N   UNL     1      50.657   5.871  20.077  0.00  0.00    +0.000 NA
ATOM     27  H   UNL     1      50.671   5.678  19.072  0.00  0.00    +0.000 HD
BRANCH  26  28
ATOM     28  C   UNL     1      50.904   7.307  20.301  0.00  0.00    +0.000 C 
ATOM     29  C   UNL     1      49.705   8.140  19.830  0.00  0.00    +0.000 C 
ATOM     30  C   UNL     1      49.612   8.248  18.305  0.00  0.00    +0.000 C 
ATOM     31  N   UNL     1      50.834   8.819  17.713  0.00  0.00    +0.000 NA
ATOM     32  C   UNL     1      52.008   8.004  18.094  0.00  0.00    +0.000 C 
ATOM     33  C   UNL     1      52.161   7.861  19.610  0.00  0.00    +0.000 C 
BRANCH  31  34
ATOM     34  C   UNL     1      50.745   8.863  16.229  0.00  0.00    +0.000 C 
BRANCH  34  35
ATOM     35  C   UNL     1      51.351   7.641  15.516  0.00  0.00    +0.000 C 
BRANCH  35  36
ATOM     36  O   UNL     1      50.349   6.673  15.220  0.00  0.00    +0.000 OA
ATOM     37  H   UNL     1      50.624   5.865  15.694  0.00  0.00    +0.000 HD
ENDBRANCH  35  36
ENDBRANCH  34  35
ENDBRANCH  31  34
ENDBRANCH  26  28
ENDBRANCH  25  26
ENDBRANCH  24  25
ENDBRANCH   4  24
TORSDOF 11
ENDMDL
MODEL 7
REMARK VINA RESULT:    -4.876     11.237     12.682
REMARK INTER + INTRA:          -9.240
REMARK INTER:                  -7.074
REMARK INTRA:                  -2.166
REMARK UNBOUND:                -1.371
REMARK  Name = 
REMARK  13 active torsions:
REMARK  status: ('A' for Active; 'I' for Inactive)
REMARK    1  A    between atoms: C_1  and  O_2
REMARK    2  A    between atoms: O_2  and  C_3
REMARK    3  A    between atoms: C_5  and  C_6
REMARK    4  A    between atoms: C_11  and  C_12
REMARK    5  A    between atoms: N_14  and  C_15
REMARK    6  A    between atoms: C_15  and  C_16
REMARK    7  A    between atoms: C_19  and  C_20
REMARK    8  A    between atoms: C_20  and  C_21
REMARK    9  A    between atoms: C_21  and  N_22
REMARK   10  A    between atoms: N_22  and  C_23
REMARK   11  A    between atoms: N_26  and  C_27
REMARK   12  A    between atoms: C_27  and  C_28
REMARK   13  A    between atoms: C_28  and  O_29
REMARK                            x       y       z     vdW  Elec       q    Type
REMARK                         _______ _______ _______ _____ _____    ______ ____
ROOT
ATOM      1  C   UNL     1      40.469  -4.177  18.660  0.00  0.00    +0.000 A 
ATOM      2  C   UNL     1      41.799  -3.965  18.286  0.00  0.00    +0.000 A 
ATOM      3  C   UNL     1      42.259  -4.405  17.041  0.00  0.00    +0.000 A 
ATOM      4  C   UNL     1      41.412  -5.080  16.160  0.00  0.00    +0.000 A 
ATOM      5  C   UNL     1      40.069  -5.240  16.520  0.00  0.00    +0.000 A 
ATOM      6  C   UNL     1      39.596  -4.795  17.759  0.00  0.00    +0.000 A 
ENDROOT
BRANCH   1   7
ATOM      7  C   UNL     1      39.979  -3.699  20.002  0.00  0.00    +0.000 C 
BRANCH   7  10
ATOM      8  C   UNL     1      39.927  -1.269  20.246  0.00  0.00    +0.000 C 
ATOM      9  O   UNL     1      41.027  -1.256  20.791  0.00  0.00    +0.000 OA
ATOM     10  N   UNL     1      39.307  -2.433  19.883  0.00  0.00    +0.000 N 
ATOM     11  H   UNL     1      38.453  -2.403  19.340  0.00  0.00    +0.000 HD
BRANCH   8  20
ATOM     12  C   UNL     1      38.508  -0.016  17.446  0.00  0.00    +0.000 A 
ATOM     13  N   UNL     1      37.879   0.696  16.492  0.00  0.00    +0.000 NA
ATOM     14  C   UNL     1      37.341   1.880  16.821  0.00  0.00    +0.000 A 
ATOM     15  C   UNL     1      36.630   2.635  15.740  0.00  0.00    +0.000 C 
ATOM     16  N   UNL     1      37.366   2.442  18.034  0.00  0.00    +0.000 NA
ATOM     17  C   UNL     1      37.997   1.698  18.956  0.00  0.00    +0.000 A 
ATOM     18  S   UNL     1      38.128   2.259  20.556  0.00  0.00    +0.000 S 
ATOM     19  C   UNL     1      39.000   0.875  21.025  0.00  0.00    +0.000 A 
ATOM     20  C   UNL     1      39.182  -0.035  19.995  0.00  0.00    +0.000 A 
ATOM     21  C   UNL     1      38.588   0.458  18.763  0.00  0.00    +0.000 A 
BRANCH  12  23
ATOM     22  C   UNL     1      40.249  -1.188  16.409  0.00  0.00    +0.000 C 
ATOM     23  O   UNL     1      39.017  -1.256  17.121  0.00  0.00    +0.000 OA
ENDBRANCH  12  23
ENDBRANCH   8  20
ENDBRANCH   7  10
ENDBRANCH   1   7
BRANCH   4  24
ATOM     24  C   UNL     1      41.885  -5.602  14.818  0.00  0.00    +0.000 C 
BRANCH  24  25
ATOM     25  C   UNL     1      40.802  -5.840  13.744  0.00  0.00    +0.000 C 
BRANCH  25  26
ATOM     26  N   UNL     1      40.813  -4.855  12.651  0.00  0.00    +0.000 NA
ATOM     27  H   UNL     1      39.971  -4.988  12.087  0.00  0.00    +0.000 HD
BRANCH  26  28
ATOM     28  C   UNL     1      40.865  -3.460  13.127  0.00  0.00    +0.000 C 
ATOM     29  C   UNL     1      39.506  -3.033  13.695  0.00  0.00    +0.000 C 
ATOM     30  C   UNL     1      38.457  -2.774  12.608  0.00  0.00    +0.000 C 
ATOM     31  N   UNL     1      38.898  -1.752  11.643  0.00  0.00    +0.000 NA
ATOM     32  C   UNL     1      40.179  -2.159  11.027  0.00  0.00    +0.000 C 
ATOM     33  C   UNL     1      41.274  -2.430  12.062  0.00  0.00    +0.000 C 
BRANCH  31  34
ATOM     34  C   UNL     1      37.891  -1.557  10.567  0.00  0.00    +0.000 C 
BRANCH  34  35
ATOM     35  C   UNL     1      37.587  -0.085  10.233  0.00  0.00    +0.000 C 
BRANCH  35  36
ATOM     36  O   UNL     1      38.285   0.792  11.112  0.00  0.00    +0.000 OA
ATOM     37  H   UNL     1      37.949   0.582  12.005  0.00  0.00    +0.000 HD
ENDBRANCH  35  36
ENDBRANCH  34  35
ENDBRANCH  31  34
ENDBRANCH  26  28
ENDBRANCH  25  26
ENDBRANCH  24  25
ENDBRANCH   4  24
TORSDOF 11
ENDMDL
MODEL 8
REMARK VINA RESULT:    -4.785     11.774     13.584
REMARK INTER + INTRA:          -9.093
REMARK INTER:                  -6.537
REMARK INTRA:                  -2.555
REMARK UNBOUND:                -1.371
REMARK  Name = 
REMARK  13 active torsions:
REMARK  status: ('A' for Active; 'I' for Inactive)
REMARK    1  A    between atoms: C_1  and  O_2
REMARK    2  A    between atoms: O_2  and  C_3
REMARK    3  A    between atoms: C_5  and  C_6
REMARK    4  A    between atoms: C_11  and  C_12
REMARK    5  A    between atoms: N_14  and  C_15
REMARK    6  A    between atoms: C_15  and  C_16
REMARK    7  A    between atoms: C_19  and  C_20
REMARK    8  A    between atoms: C_20  and  C_21
REMARK    9  A    between atoms: C_21  and  N_22
REMARK   10  A    between atoms: N_22  and  C_23
REMARK   11  A    between atoms: N_26  and  C_27
REMARK   12  A    between atoms: C_27  and  C_28
REMARK   13  A    between atoms: C_28  and  O_29
REMARK                            x       y       z     vdW  Elec       q    Type
REMARK                         _______ _______ _______ _____ _____    ______ ____
ROOT
ATOM      1  C   UNL     1      40.738  -2.813  19.039  0.00  0.00    +0.000 A 
ATOM      2  C   UNL     1      41.519  -3.680  19.808  0.00  0.00    +0.000 A 
ATOM      3  C   UNL     1      42.401  -4.570  19.189  0.00  0.00    +0.000 A 
ATOM      4  C   UNL     1      42.503  -4.629  17.798  0.00  0.00    +0.000 A 
ATOM      5  C   UNL     1      41.758  -3.721  17.037  0.00  0.00    +0.000 A 
ATOM      6  C   UNL     1      40.880  -2.819  17.647  0.00  0.00    +0.000 A 
ENDROOT
BRANCH   1   7
ATOM      7  C   UNL     1      39.792  -1.854  19.712  0.00  0.00    +0.000 C 
BRANCH   7  10
ATOM      8  C   UNL     1      38.281  -0.023  19.138  0.00  0.00    +0.000 C 
ATOM      9  O   UNL     1      37.761  -0.044  20.249  0.00  0.00    +0.000 OA
ATOM     10  N   UNL     1      39.244  -0.920  18.766  0.00  0.00    +0.000 N 
ATOM     11  H   UNL     1      39.726  -0.807  17.883  0.00  0.00    +0.000 HD
BRANCH   8  20
ATOM     12  C   UNL     1      37.606  -0.373  15.844  0.00  0.00    +0.000 A 
ATOM     13  N   UNL     1      37.297  -0.241  14.540  0.00  0.00    +0.000 NA
ATOM     14  C   UNL     1      36.983   0.977  14.073  0.00  0.00    +0.000 A 
ATOM     15  C   UNL     1      36.624   1.083  12.623  0.00  0.00    +0.000 C 
ATOM     16  N   UNL     1      36.945   2.105  14.789  0.00  0.00    +0.000 NA
ATOM     17  C   UNL     1      37.253   1.929  16.084  0.00  0.00    +0.000 A 
ATOM     18  S   UNL     1      37.258   3.258  17.144  0.00  0.00    +0.000 S 
ATOM     19  C   UNL     1      37.730   2.278  18.453  0.00  0.00    +0.000 A 
ATOM     20  C   UNL     1      37.866   0.939  18.116  0.00  0.00    +0.000 A 
ATOM     21  C   UNL     1      37.586   0.734  16.704  0.00  0.00    +0.000 A 
BRANCH  12  23
ATOM     22  C   UNL     1      36.713  -2.430  16.517  0.00  0.00    +0.000 C 
ATOM     23  O   UNL     1      37.880  -1.632  16.336  0.00  0.00    +0.000 OA
ENDBRANCH  12  23
ENDBRANCH   8  20
ENDBRANCH   7  10
ENDBRANCH   1   7
BRANCH   4  24
ATOM     24  C   UNL     1      43.421  -5.606  17.091  0.00  0.00    +0.000 C 
BRANCH  24  25
ATOM     25  C   UNL     1      42.746  -6.736  16.286  0.00  0.00    +0.000 C 
BRANCH  25  26
ATOM     26  N   UNL     1      42.581  -6.438  14.855  0.00  0.00    +0.000 NA
ATOM     27  H   UNL     1      43.440  -6.701  14.368  0.00  0.00    +0.000 HD
BRANCH  26  28
ATOM     28  C   UNL     1      41.439  -7.143  14.243  0.00  0.00    +0.000 C 
ATOM     29  C   UNL     1      41.154  -6.591  12.840  0.00  0.00    +0.000 C 
ATOM     30  C   UNL     1      40.478  -5.217  12.862  0.00  0.00    +0.000 C 
ATOM     31  N   UNL     1      39.215  -5.231  13.619  0.00  0.00    +0.000 NA
ATOM     32  C   UNL     1      39.460  -5.699  15.000  0.00  0.00    +0.000 C 
ATOM     33  C   UNL     1      40.131  -7.074  15.049  0.00  0.00    +0.000 C 
BRANCH  31  34
ATOM     34  C   UNL     1      38.604  -3.876  13.675  0.00  0.00    +0.000 C 
BRANCH  34  35
ATOM     35  C   UNL     1      39.500  -2.748  13.133  0.00  0.00    +0.000 C 
BRANCH  35  36
ATOM     36  O   UNL     1      40.056  -1.981  14.196  0.00  0.00    +0.000 OA
ATOM     37  H   UNL     1      40.286  -2.630  14.888  0.00  0.00    +0.000 HD
ENDBRANCH  35  36
ENDBRANCH  34  35
ENDBRANCH  31  34
ENDBRANCH  26  28
ENDBRANCH  25  26
ENDBRANCH  24  25
ENDBRANCH   4  24
TORSDOF 11
ENDMDL
