MODEL 1
REMARK VINA RESULT:    -8.183      0.000      0.000
REMARK INTER + INTRA:         -12.046
REMARK INTER:                 -11.054
REMARK INTRA:                  -0.992
REMARK UNBOUND:                -0.992
REMARK  Name = 
REMARK  6 active torsions:
REMARK  status: ('A' for Active; 'I' for Inactive)
REMARK    1  A    between atoms: C_2  and  C_4
REMARK    2  A    between atoms: N_8  and  C_9
REMARK    3  A    between atoms: C_9  and  C_10
REMARK    4  A    between atoms: C_14  and  C_15
REMARK    5  A    between atoms: C_19  and  O_20
REMARK    6  A    between atoms: O_20  and  C_21
REMARK                            x       y       z     vdW  Elec       q    Type
REMARK                         _______ _______ _______ _____ _____    ______ ____
ROOT
ATOM      1  C   UNL     1      43.990   4.820  11.545  0.00  0.00    +0.000 C 
ATOM      2  C   UNL     1      42.594   5.148  12.067  0.00  0.00    +0.000 C 
ATOM      3  C   UNL     1      43.153   5.928  10.924  0.00  0.00    +0.000 C 
ENDROOT
BRANCH   1   8
ATOM      4  C   UNL     1      46.411   2.718   7.576  0.00  0.00    +0.000 A 
ATOM      5  C   UNL     1      46.233   3.998   8.032  0.00  0.00    +0.000 A 
ATOM      6  N   UNL     1      45.489   4.307   9.116  0.00  0.00    +0.000 NA
ATOM      7  C   UNL     1      44.906   3.289   9.772  0.00  0.00    +0.000 A 
ATOM      8  N   UNL     1      44.122   3.521  10.896  0.00  0.00    +0.000 N 
ATOM      9  N   UNL     1      45.015   2.004   9.391  0.00  0.00    +0.000 NA
ATOM     10  C   UNL     1      45.751   1.745   8.285  0.00  0.00    +0.000 A 
ATOM     11  H   UNL     1      43.970   2.654  11.394  0.00  0.00    +0.000 HD
BRANCH   4  13
ATOM     12  N   UNL     1      47.160   3.213   5.322  0.00  0.00    +0.000 N 
ATOM     13  C   UNL     1      47.226   2.375   6.400  0.00  0.00    +0.000 C 
ATOM     14  O   UNL     1      47.961   1.398   6.408  0.00  0.00    +0.000 OA
ATOM     15  H   UNL     1      47.805   3.011   4.566  0.00  0.00    +0.000 HD
ATOM     16  H   UNL     1      46.787   4.149   5.368  0.00  0.00    +0.000 HD
ENDBRANCH   4  13
ENDBRANCH   1   8
BRANCH   1  17
ATOM     17  C   UNL     1      45.197   5.278  12.360  0.00  0.00    +0.000 A 
ATOM     18  C   UNL     1      45.699   4.494  13.411  0.00  0.00    +0.000 A 
ATOM     19  C   UNL     1      46.877   4.833  14.072  0.00  0.00    +0.000 A 
ATOM     20  C   UNL     1      47.590   5.967  13.685  0.00  0.00    +0.000 A 
ATOM     21  C   UNL     1      47.130   6.794  12.647  0.00  0.00    +0.000 A 
ATOM     22  C   UNL     1      45.914   6.445  12.029  0.00  0.00    +0.000 A 
BRANCH  21  23
ATOM     23  C   UNL     1      47.931   7.934  12.155  0.00  0.00    +0.000 A 
ATOM     24  C   UNL     1      47.404   9.229  12.106  0.00  0.00    +0.000 A 
ATOM     25  N   UNL     1      48.077  10.330  11.702  0.00  0.00    +0.000 NA
ATOM     26  C   UNL     1      49.364  10.145  11.341  0.00  0.00    +0.000 A 
ATOM     27  C   UNL     1      50.016   8.920  11.377  0.00  0.00    +0.000 A 
ATOM     28  C   UNL     1      49.275   7.801  11.761  0.00  0.00    +0.000 A 
BRANCH  27  29
ATOM     29  O   UNL     1      51.327   8.925  11.005  0.00  0.00    +0.000 OA
BRANCH  29  30
ATOM     30  C   UNL     1      51.884   7.652  10.726  0.00  0.00    +0.000 C 
ATOM     31  F   UNL     1      51.989   7.506   9.384  0.00  0.00    +0.000 F 
ATOM     32  F   UNL     1      53.148   7.648  11.221  0.00  0.00    +0.000 F 
ENDBRANCH  29  30
ENDBRANCH  27  29
ENDBRANCH  21  23
ENDBRANCH   1  17
TORSDOF 6
ENDMDL
MODEL 2
REMARK VINA RESULT:    -8.108      3.698      4.813
REMARK INTER + INTRA:         -11.945
REMARK INTER:                 -11.070
REMARK INTRA:                  -0.875
REMARK UNBOUND:                -0.992
REMARK  Name = 
REMARK  6 active torsions:
REMARK  status: ('A' for Active; 'I' for Inactive)
REMARK    1  A    between atoms: C_2  and  C_4
REMARK    2  A    between atoms: N_8  and  C_9
REMARK    3  A    between atoms: C_9  and  C_10
REMARK    4  A    between atoms: C_14  and  C_15
REMARK    5  A    between atoms: C_19  and  O_20
REMARK    6  A    between atoms: O_20  and  C_21
REMARK                            x       y       z     vdW  Elec       q    Type
REMARK                         _______ _______ _______ _____ _____    ______ ____
ROOT
ATOM      1  C   UNL     1      44.014   4.857  11.518  0.00  0.00    +0.000 C 
ATOM      2  C   UNL     1      42.701   5.106  12.254  0.00  0.00    +0.000 C 
ATOM      3  C   UNL     1      42.995   5.861  11.001  0.00  0.00    +0.000 C 
ENDROOT
BRANCH   1   8
ATOM      4  C   UNL     1      46.397   2.638   7.589  0.00  0.00    +0.000 A 
ATOM      5  C   UNL     1      46.216   3.931   8.004  0.00  0.00    +0.000 A 
ATOM      6  N   UNL     1      45.484   4.272   9.087  0.00  0.00    +0.000 NA
ATOM      7  C   UNL     1      44.917   3.273   9.785  0.00  0.00    +0.000 A 
ATOM      8  N   UNL     1      44.147   3.537  10.911  0.00  0.00    +0.000 N 
ATOM      9  N   UNL     1      45.031   1.977   9.446  0.00  0.00    +0.000 NA
ATOM     10  C   UNL     1      45.754   1.684   8.340  0.00  0.00    +0.000 A 
ATOM     11  H   UNL     1      44.008   2.687  11.440  0.00  0.00    +0.000 HD
BRANCH   4  13
ATOM     12  N   UNL     1      47.146   3.084   5.326  0.00  0.00    +0.000 N 
ATOM     13  C   UNL     1      47.199   2.261   6.415  0.00  0.00    +0.000 C 
ATOM     14  O   UNL     1      47.913   1.268   6.434  0.00  0.00    +0.000 OA
ATOM     15  H   UNL     1      47.782   2.858   4.569  0.00  0.00    +0.000 HD
ATOM     16  H   UNL     1      46.793   4.029   5.360  0.00  0.00    +0.000 HD
ENDBRANCH   4  13
ENDBRANCH   1   8
BRANCH   1  17
ATOM     17  C   UNL     1      45.296   5.451  12.096  0.00  0.00    +0.000 A 
ATOM     18  C   UNL     1      45.785   6.689  11.648  0.00  0.00    +0.000 A 
ATOM     19  C   UNL     1      46.874   7.305  12.259  0.00  0.00    +0.000 A 
ATOM     20  C   UNL     1      47.497   6.695  13.347  0.00  0.00    +0.000 A 
ATOM     21  C   UNL     1      47.057   5.452  13.832  0.00  0.00    +0.000 A 
ATOM     22  C   UNL     1      45.980   4.838  13.163  0.00  0.00    +0.000 A 
BRANCH  21  23
ATOM     23  C   UNL     1      47.636   4.849  15.051  0.00  0.00    +0.000 A 
ATOM     24  C   UNL     1      47.660   3.463  15.238  0.00  0.00    +0.000 A 
ATOM     25  N   UNL     1      48.198   2.830  16.305  0.00  0.00    +0.000 NA
ATOM     26  C   UNL     1      48.771   3.616  17.241  0.00  0.00    +0.000 A 
ATOM     27  C   UNL     1      48.846   5.000  17.158  0.00  0.00    +0.000 A 
ATOM     28  C   UNL     1      48.242   5.618  16.061  0.00  0.00    +0.000 A 
BRANCH  27  29
ATOM     29  O   UNL     1      49.487   5.630  18.181  0.00  0.00    +0.000 OA
BRANCH  29  30
ATOM     30  C   UNL     1      48.711   6.581  18.891  0.00  0.00    +0.000 C 
ATOM     31  F   UNL     1      47.577   5.980  19.324  0.00  0.00    +0.000 F 
ATOM     32  F   UNL     1      49.416   6.932  19.996  0.00  0.00    +0.000 F 
ENDBRANCH  29  30
ENDBRANCH  27  29
ENDBRANCH  21  23
ENDBRANCH   1  17
TORSDOF 6
ENDMDL
MODEL 3
REMARK VINA RESULT:    -7.959      3.920      7.645
REMARK INTER + INTRA:         -11.743
REMARK INTER:                 -11.775
REMARK INTRA:                   0.032
REMARK UNBOUND:                -0.992
REMARK  Name = 
REMARK  6 active torsions:
REMARK  status: ('A' for Active; 'I' for Inactive)
REMARK    1  A    between atoms: C_2  and  C_4
REMARK    2  A    between atoms: N_8  and  C_9
REMARK    3  A    between atoms: C_9  and  C_10
REMARK    4  A    between atoms: C_14  and  C_15
REMARK    5  A    between atoms: C_19  and  O_20
REMARK    6  A    between atoms: O_20  and  C_21
REMARK                            x       y       z     vdW  Elec       q    Type
REMARK                         _______ _______ _______ _____ _____    ______ ____
ROOT
ATOM      1  C   UNL     1      48.671   7.872  12.792  0.00  0.00    +0.000 C 
ATOM      2  C   UNL     1      49.781   7.334  11.894  0.00  0.00    +0.000 C 
ATOM      3  C   UNL     1      49.488   8.797  11.903  0.00  0.00    +0.000 C 
ENDROOT
BRANCH   1   8
ATOM      4  C   UNL     1      47.831   4.660  16.666  0.00  0.00    +0.000 A 
ATOM      5  C   UNL     1      47.421   4.727  15.360  0.00  0.00    +0.000 A 
ATOM      6  N   UNL     1      47.756   5.734  14.524  0.00  0.00    +0.000 NA
ATOM      7  C   UNL     1      48.540   6.708  15.018  0.00  0.00    +0.000 A 
ATOM      8  N   UNL     1      48.929   7.781  14.224  0.00  0.00    +0.000 N 
ATOM      9  N   UNL     1      48.980   6.731  16.288  0.00  0.00    +0.000 NA
ATOM     10  C   UNL     1      48.600   5.714  17.096  0.00  0.00    +0.000 A 
ATOM     11  H   UNL     1      49.693   8.275  14.664  0.00  0.00    +0.000 HD
BRANCH   4  13
ATOM     12  N   UNL     1      48.285   3.355  18.660  0.00  0.00    +0.000 N 
ATOM     13  C   UNL     1      47.476   3.563  17.579  0.00  0.00    +0.000 C 
ATOM     14  O   UNL     1      46.472   2.890  17.392  0.00  0.00    +0.000 OA
ATOM     15  H   UNL     1      47.964   2.661  19.326  0.00  0.00    +0.000 HD
ATOM     16  H   UNL     1      48.952   4.035  18.994  0.00  0.00    +0.000 HD
ENDBRANCH   4  13
ENDBRANCH   1   8
BRANCH   1  17
ATOM     17  C   UNL     1      47.221   7.653  12.366  0.00  0.00    +0.000 A 
ATOM     18  C   UNL     1      46.266   8.674  12.501  0.00  0.00    +0.000 A 
ATOM     19  C   UNL     1      44.977   8.535  11.995  0.00  0.00    +0.000 A 
ATOM     20  C   UNL     1      44.615   7.366  11.325  0.00  0.00    +0.000 A 
ATOM     21  C   UNL     1      45.526   6.308  11.168  0.00  0.00    +0.000 A 
ATOM     22  C   UNL     1      46.808   6.466  11.731  0.00  0.00    +0.000 A 
BRANCH  21  23
ATOM     23  C   UNL     1      45.191   5.113  10.367  0.00  0.00    +0.000 A 
ATOM     24  C   UNL     1      44.348   4.114  10.866  0.00  0.00    +0.000 A 
ATOM     25  N   UNL     1      43.966   3.007  10.189  0.00  0.00    +0.000 NA
ATOM     26  C   UNL     1      44.429   2.889   8.927  0.00  0.00    +0.000 A 
ATOM     27  C   UNL     1      45.241   3.825   8.303  0.00  0.00    +0.000 A 
ATOM     28  C   UNL     1      45.648   4.933   9.049  0.00  0.00    +0.000 A 
BRANCH  27  29
ATOM     29  O   UNL     1      45.590   3.555   7.013  0.00  0.00    +0.000 OA
BRANCH  29  30
ATOM     30  C   UNL     1      46.958   3.250   6.804  0.00  0.00    +0.000 C 
ATOM     31  F   UNL     1      47.277   2.156   7.537  0.00  0.00    +0.000 F 
ATOM     32  F   UNL     1      47.099   2.904   5.499  0.00  0.00    +0.000 F 
ENDBRANCH  29  30
ENDBRANCH  27  29
ENDBRANCH  21  23
ENDBRANCH   1  17
TORSDOF 6
ENDMDL
MODEL 4
REMARK VINA RESULT:    -7.409      3.993      8.381
REMARK INTER + INTRA:         -11.000
REMARK INTER:                 -10.133
REMARK INTRA:                  -0.866
REMARK UNBOUND:                -0.992
REMARK  Name = 
REMARK  6 active torsions:
REMARK  status: ('A' for Active; 'I' for Inactive)
REMARK    1  A    between atoms: C_2  and  C_4
REMARK    2  A    between atoms: N_8  and  C_9
REMARK    3  A    between atoms: C_9  and  C_10
REMARK    4  A    between atoms: C_14  and  C_15
REMARK    5  A    between atoms: C_19  and  O_20
REMARK    6  A    between atoms: O_20  and  C_21
REMARK                            x       y       z     vdW  Elec       q    Type
REMARK                         _______ _______ _______ _____ _____    ______ ____
ROOT
ATOM      1  C   UNL     1      48.862   7.967  12.552  0.00  0.00    +0.000 C 
ATOM      2  C   UNL     1      49.796   8.377  11.417  0.00  0.00    +0.000 C 
ATOM      3  C   UNL     1      49.332   9.405  12.394  0.00  0.00    +0.000 C 
ENDROOT
BRANCH   1   8
ATOM      4  C   UNL     1      48.934   7.402  17.623  0.00  0.00    +0.000 A 
ATOM      5  C   UNL     1      48.460   8.359  16.763  0.00  0.00    +0.000 A 
ATOM      6  N   UNL     1      48.609   8.296  15.422  0.00  0.00    +0.000 NA
ATOM      7  C   UNL     1      49.253   7.227  14.924  0.00  0.00    +0.000 A 
ATOM      8  N   UNL     1      49.450   7.087  13.556  0.00  0.00    +0.000 N 
ATOM      9  N   UNL     1      49.762   6.247  15.691  0.00  0.00    +0.000 NA
ATOM     10  C   UNL     1      49.610   6.363  17.031  0.00  0.00    +0.000 A 
ATOM     11  H   UNL     1      49.723   6.138  13.343  0.00  0.00    +0.000 HD
BRANCH   4  13
ATOM     12  N   UNL     1      47.496   7.392  19.576  0.00  0.00    +0.000 N 
ATOM     13  C   UNL     1      48.768   7.461  19.083  0.00  0.00    +0.000 C 
ATOM     14  O   UNL     1      49.739   7.532  19.823  0.00  0.00    +0.000 OA
ATOM     15  H   UNL     1      47.415   7.333  20.585  0.00  0.00    +0.000 HD
ATOM     16  H   UNL     1      46.707   7.071  19.035  0.00  0.00    +0.000 HD
ENDBRANCH   4  13
ENDBRANCH   1   8
BRANCH   1  17
ATOM     17  C   UNL     1      47.393   7.710  12.227  0.00  0.00    +0.000 A 
ATOM     18  C   UNL     1      46.432   8.723  12.377  0.00  0.00    +0.000 A 
ATOM     19  C   UNL     1      45.116   8.544  11.959  0.00  0.00    +0.000 A 
ATOM     20  C   UNL     1      44.732   7.342  11.365  0.00  0.00    +0.000 A 
ATOM     21  C   UNL     1      45.648   6.290  11.198  0.00  0.00    +0.000 A 
ATOM     22  C   UNL     1      46.959   6.490  11.672  0.00  0.00    +0.000 A 
BRANCH  21  23
ATOM     23  C   UNL     1      45.283   5.056  10.473  0.00  0.00    +0.000 A 
ATOM     24  C   UNL     1      44.547   4.038  11.090  0.00  0.00    +0.000 A 
ATOM     25  N   UNL     1      44.145   2.895  10.491  0.00  0.00    +0.000 NA
ATOM     26  C   UNL     1      44.472   2.754   9.189  0.00  0.00    +0.000 A 
ATOM     27  C   UNL     1      45.168   3.704   8.453  0.00  0.00    +0.000 A 
ATOM     28  C   UNL     1      45.602   4.852   9.118  0.00  0.00    +0.000 A 
BRANCH  27  29
ATOM     29  O   UNL     1      45.385   3.407   7.140  0.00  0.00    +0.000 OA
BRANCH  29  30
ATOM     30  C   UNL     1      46.746   3.362   6.745  0.00  0.00    +0.000 C 
ATOM     31  F   UNL     1      47.355   2.343   7.397  0.00  0.00    +0.000 F 
ATOM     32  F   UNL     1      46.771   3.054   5.423  0.00  0.00    +0.000 F 
ENDBRANCH  29  30
ENDBRANCH  27  29
ENDBRANCH  21  23
ENDBRANCH   1  17
TORSDOF 6
ENDMDL
MODEL 5
REMARK VINA RESULT:    -7.055      5.665      8.452
REMARK INTER + INTRA:         -10.522
REMARK INTER:                 -10.177
REMARK INTRA:                  -0.346
REMARK UNBOUND:                -0.992
REMARK  Name = 
REMARK  6 active torsions:
REMARK  status: ('A' for Active; 'I' for Inactive)
REMARK    1  A    between atoms: C_2  and  C_4
REMARK    2  A    between atoms: N_8  and  C_9
REMARK    3  A    between atoms: C_9  and  C_10
REMARK    4  A    between atoms: C_14  and  C_15
REMARK    5  A    between atoms: C_19  and  O_20
REMARK    6  A    between atoms: O_20  and  C_21
REMARK                            x       y       z     vdW  Elec       q    Type
REMARK                         _______ _______ _______ _____ _____    ______ ____
ROOT
ATOM      1  C   UNL     1      48.171   4.713  16.990  0.00  0.00    +0.000 C 
ATOM      2  C   UNL     1      47.128   4.831  18.097  0.00  0.00    +0.000 C 
ATOM      3  C   UNL     1      47.304   3.529  17.390  0.00  0.00    +0.000 C 
ENDROOT
BRANCH   1   8
ATOM      4  C   UNL     1      52.258   1.716  17.580  0.00  0.00    +0.000 A 
ATOM      5  C   UNL     1      50.935   1.501  17.292  0.00  0.00    +0.000 A 
ATOM      6  N   UNL     1      50.015   2.488  17.233  0.00  0.00    +0.000 NA
ATOM      7  C   UNL     1      50.441   3.741  17.467  0.00  0.00    +0.000 A 
ATOM      8  N   UNL     1      49.559   4.814  17.428  0.00  0.00    +0.000 N 
ATOM      9  N   UNL     1      51.716   4.044  17.768  0.00  0.00    +0.000 NA
ATOM     10  C   UNL     1      52.599   3.021  17.839  0.00  0.00    +0.000 A 
ATOM     11  H   UNL     1      50.074   5.682  17.382  0.00  0.00    +0.000 HD
BRANCH   4  13
ATOM     12  N   UNL     1      52.971  -0.457  18.390  0.00  0.00    +0.000 N 
ATOM     13  C   UNL     1      53.266   0.646  17.638  0.00  0.00    +0.000 C 
ATOM     14  O   UNL     1      54.309   0.730  17.006  0.00  0.00    +0.000 OA
ATOM     15  H   UNL     1      53.635  -1.221  18.333  0.00  0.00    +0.000 HD
ATOM     16  H   UNL     1      52.039  -0.684  18.702  0.00  0.00    +0.000 HD
ENDBRANCH   4  13
ENDBRANCH   1   8
BRANCH   1  17
ATOM     17  C   UNL     1      47.861   5.333  15.630  0.00  0.00    +0.000 A 
ATOM     18  C   UNL     1      48.653   6.370  15.110  0.00  0.00    +0.000 A 
ATOM     19  C   UNL     1      48.464   6.851  13.817  0.00  0.00    +0.000 A 
ATOM     20  C   UNL     1      47.478   6.292  13.005  0.00  0.00    +0.000 A 
ATOM     21  C   UNL     1      46.649   5.260  13.474  0.00  0.00    +0.000 A 
ATOM     22  C   UNL     1      46.840   4.827  14.801  0.00  0.00    +0.000 A 
BRANCH  21  23
ATOM     23  C   UNL     1      45.677   4.586  12.589  0.00  0.00    +0.000 A 
ATOM     24  C   UNL     1      44.686   3.742  13.102  0.00  0.00    +0.000 A 
ATOM     25  N   UNL     1      43.740   3.114  12.368  0.00  0.00    +0.000 NA
ATOM     26  C   UNL     1      43.759   3.351  11.039  0.00  0.00    +0.000 A 
ATOM     27  C   UNL     1      44.665   4.194  10.410  0.00  0.00    +0.000 A 
ATOM     28  C   UNL     1      45.652   4.791  11.198  0.00  0.00    +0.000 A 
BRANCH  27  29
ATOM     29  O   UNL     1      44.518   4.338   9.063  0.00  0.00    +0.000 OA
BRANCH  29  30
ATOM     30  C   UNL     1      45.514   3.713   8.273  0.00  0.00    +0.000 C 
ATOM     31  F   UNL     1      44.950   3.286   7.118  0.00  0.00    +0.000 F 
ATOM     32  F   UNL     1      46.419   4.668   7.937  0.00  0.00    +0.000 F 
ENDBRANCH  29  30
ENDBRANCH  27  29
ENDBRANCH  21  23
ENDBRANCH   1  17
TORSDOF 6
ENDMDL
MODEL 6
REMARK VINA RESULT:    -6.237      6.319      8.735
REMARK INTER + INTRA:          -9.417
REMARK INTER:                  -8.995
REMARK INTRA:                  -0.422
REMARK UNBOUND:                -0.992
REMARK  Name = 
REMARK  6 active torsions:
REMARK  status: ('A' for Active; 'I' for Inactive)
REMARK    1  A    between atoms: C_2  and  C_4
REMARK    2  A    between atoms: N_8  and  C_9
REMARK    3  A    between atoms: C_9  and  C_10
REMARK    4  A    between atoms: C_14  and  C_15
REMARK    5  A    between atoms: C_19  and  O_20
REMARK    6  A    between atoms: O_20  and  C_21
REMARK                            x       y       z     vdW  Elec       q    Type
REMARK                         _______ _______ _______ _____ _____    ______ ____
ROOT
ATOM      1  C   UNL     1      48.854   5.185  17.575  0.00  0.00    +0.000 C 
ATOM      2  C   UNL     1      47.705   5.411  18.552  0.00  0.00    +0.000 C 
ATOM      3  C   UNL     1      47.745   4.158  17.743  0.00  0.00    +0.000 C 
ENDROOT
BRANCH   1   8
ATOM      4  C   UNL     1      52.483   1.609  17.862  0.00  0.00    +0.000 A 
ATOM      5  C   UNL     1      51.204   1.651  17.372  0.00  0.00    +0.000 A 
ATOM      6  N   UNL     1      50.407   2.739  17.458  0.00  0.00    +0.000 NA
ATOM      7  C   UNL     1      50.918   3.829  18.055  0.00  0.00    +0.000 A 
ATOM      8  N   UNL     1      50.163   4.989  18.187  0.00  0.00    +0.000 N 
ATOM      9  N   UNL     1      52.156   3.876  18.576  0.00  0.00    +0.000 NA
ATOM     10  C   UNL     1      52.911   2.755  18.487  0.00  0.00    +0.000 A 
ATOM     11  H   UNL     1      50.764   5.765  18.429  0.00  0.00    +0.000 HD
BRANCH   4  13
ATOM     12  N   UNL     1      53.579  -0.087  16.519  0.00  0.00    +0.000 N 
ATOM     13  C   UNL     1      53.358   0.431  17.764  0.00  0.00    +0.000 C 
ATOM     14  O   UNL     1      53.893  -0.039  18.758  0.00  0.00    +0.000 OA
ATOM     15  H   UNL     1      54.263  -0.834  16.466  0.00  0.00    +0.000 HD
ATOM     16  H   UNL     1      53.383   0.414  15.665  0.00  0.00    +0.000 HD
ENDBRANCH   4  13
ENDBRANCH   1   8
BRANCH   1  17
ATOM     17  C   UNL     1      48.850   5.956  16.257  0.00  0.00    +0.000 A 
ATOM     18  C   UNL     1      49.922   6.793  15.906  0.00  0.00    +0.000 A 
ATOM     19  C   UNL     1      49.994   7.395  14.652  0.00  0.00    +0.000 A 
ATOM     20  C   UNL     1      48.993   7.160  13.710  0.00  0.00    +0.000 A 
ATOM     21  C   UNL     1      47.893   6.339  14.009  0.00  0.00    +0.000 A 
ATOM     22  C   UNL     1      47.831   5.782  15.301  0.00  0.00    +0.000 A 
BRANCH  21  23
ATOM     23  C   UNL     1      46.885   5.994  12.984  0.00  0.00    +0.000 A 
ATOM     24  C   UNL     1      46.462   6.930  12.034  0.00  0.00    +0.000 A 
ATOM     25  N   UNL     1      45.571   6.689  11.046  0.00  0.00    +0.000 NA
ATOM     26  C   UNL     1      45.081   5.434  10.976  0.00  0.00    +0.000 A 
ATOM     27  C   UNL     1      45.445   4.405  11.834  0.00  0.00    +0.000 A 
ATOM     28  C   UNL     1      46.335   4.705  12.867  0.00  0.00    +0.000 A 
BRANCH  27  29
ATOM     29  O   UNL     1      44.870   3.192  11.598  0.00  0.00    +0.000 OA
BRANCH  29  30
ATOM     30  C   UNL     1      43.640   2.963  12.264  0.00  0.00    +0.000 C 
ATOM     31  F   UNL     1      43.537   3.831  13.299  0.00  0.00    +0.000 F 
ATOM     32  F   UNL     1      42.647   3.272  11.392  0.00  0.00    +0.000 F 
ENDBRANCH  29  30
ENDBRANCH  27  29
ENDBRANCH  21  23
ENDBRANCH   1  17
TORSDOF 6
ENDMDL
MODEL 7
REMARK VINA RESULT:    -6.225      4.642      8.152
REMARK INTER + INTRA:          -9.401
REMARK INTER:                  -8.928
REMARK INTRA:                  -0.472
REMARK UNBOUND:                -0.992
REMARK  Name = 
REMARK  6 active torsions:
REMARK  status: ('A' for Active; 'I' for Inactive)
REMARK    1  A    between atoms: C_2  and  C_4
REMARK    2  A    between atoms: N_8  and  C_9
REMARK    3  A    between atoms: C_9  and  C_10
REMARK    4  A    between atoms: C_14  and  C_15
REMARK    5  A    between atoms: C_19  and  O_20
REMARK    6  A    between atoms: O_20  and  C_21
REMARK                            x       y       z     vdW  Elec       q    Type
REMARK                         _______ _______ _______ _____ _____    ______ ____
ROOT
ATOM      1  C   UNL     1      49.176   8.909  15.243  0.00  0.00    +0.000 C 
ATOM      2  C   UNL     1      49.252  10.404  15.544  0.00  0.00    +0.000 C 
ATOM      3  C   UNL     1      48.098   9.609  16.057  0.00  0.00    +0.000 C 
ENDROOT
BRANCH   1   8
ATOM      4  C   UNL     1      49.615   4.351  17.494  0.00  0.00    +0.000 A 
ATOM      5  C   UNL     1      48.567   5.106  17.036  0.00  0.00    +0.000 A 
ATOM      6  N   UNL     1      48.712   6.339  16.503  0.00  0.00    +0.000 NA
ATOM      7  C   UNL     1      49.960   6.830  16.422  0.00  0.00    +0.000 A 
ATOM      8  N   UNL     1      50.197   8.092  15.889  0.00  0.00    +0.000 N 
ATOM      9  N   UNL     1      51.046   6.167  16.856  0.00  0.00    +0.000 NA
ATOM     10  C   UNL     1      50.850   4.945  17.404  0.00  0.00    +0.000 A 
ATOM     11  H   UNL     1      51.180   8.199  15.681  0.00  0.00    +0.000 HD
BRANCH   4  13
ATOM     12  N   UNL     1      48.555   2.849  19.077  0.00  0.00    +0.000 N 
ATOM     13  C   UNL     1      49.463   3.005  18.068  0.00  0.00    +0.000 C 
ATOM     14  O   UNL     1      50.102   2.059  17.629  0.00  0.00    +0.000 OA
ATOM     15  H   UNL     1      48.397   1.897  19.386  0.00  0.00    +0.000 HD
ATOM     16  H   UNL     1      47.833   3.523  19.283  0.00  0.00    +0.000 HD
ENDBRANCH   4  13
ENDBRANCH   1   8
BRANCH   1  17
ATOM     17  C   UNL     1      48.767   8.470  13.840  0.00  0.00    +0.000 A 
ATOM     18  C   UNL     1      49.517   8.853  12.716  0.00  0.00    +0.000 A 
ATOM     19  C   UNL     1      49.234   8.351  11.448  0.00  0.00    +0.000 A 
ATOM     20  C   UNL     1      48.194   7.437  11.278  0.00  0.00    +0.000 A 
ATOM     21  C   UNL     1      47.405   7.026  12.365  0.00  0.00    +0.000 A 
ATOM     22  C   UNL     1      47.691   7.587  13.624  0.00  0.00    +0.000 A 
BRANCH  21  23
ATOM     23  C   UNL     1      46.374   5.977  12.217  0.00  0.00    +0.000 A 
ATOM     24  C   UNL     1      45.994   5.172  13.296  0.00  0.00    +0.000 A 
ATOM     25  N   UNL     1      45.040   4.214  13.256  0.00  0.00    +0.000 NA
ATOM     26  C   UNL     1      44.401   4.056  12.077  0.00  0.00    +0.000 A 
ATOM     27  C   UNL     1      44.658   4.813  10.943  0.00  0.00    +0.000 A 
ATOM     28  C   UNL     1      45.680   5.763  11.013  0.00  0.00    +0.000 A 
BRANCH  27  29
ATOM     29  O   UNL     1      43.896   4.535   9.848  0.00  0.00    +0.000 OA
BRANCH  29  30
ATOM     30  C   UNL     1      44.544   3.792   8.829  0.00  0.00    +0.000 C 
ATOM     31  F   UNL     1      45.707   4.411   8.513  0.00  0.00    +0.000 F 
ATOM     32  F   UNL     1      44.873   2.586   9.358  0.00  0.00    +0.000 F 
ENDBRANCH  29  30
ENDBRANCH  27  29
ENDBRANCH  21  23
ENDBRANCH   1  17
TORSDOF 6
ENDMDL
MODEL 8
REMARK VINA RESULT:    -6.086      5.063      8.266
REMARK INTER + INTRA:          -9.212
REMARK INTER:                  -8.294
REMARK INTRA:                  -0.918
REMARK UNBOUND:                -0.992
REMARK  Name = 
REMARK  6 active torsions:
REMARK  status: ('A' for Active; 'I' for Inactive)
REMARK    1  A    between atoms: C_2  and  C_4
REMARK    2  A    between atoms: N_8  and  C_9
REMARK    3  A    between atoms: C_9  and  C_10
REMARK    4  A    between atoms: C_14  and  C_15
REMARK    5  A    between atoms: C_19  and  O_20
REMARK    6  A    between atoms: O_20  and  C_21
REMARK                            x       y       z     vdW  Elec       q    Type
REMARK                         _______ _______ _______ _____ _____    ______ ____
ROOT
ATOM      1  C   UNL     1      50.778   8.611  15.350  0.00  0.00    +0.000 C 
ATOM      2  C   UNL     1      51.504   9.895  15.740  0.00  0.00    +0.000 C 
ATOM      3  C   UNL     1      50.092   9.689  16.176  0.00  0.00    +0.000 C 
ENDROOT
BRANCH   1   8
ATOM      4  C   UNL     1      49.000   4.394  17.608  0.00  0.00    +0.000 A 
ATOM      5  C   UNL     1      48.441   5.567  17.174  0.00  0.00    +0.000 A 
ATOM      6  N   UNL     1      49.154   6.578  16.632  0.00  0.00    +0.000 NA
ATOM      7  C   UNL     1      50.481   6.402  16.517  0.00  0.00    +0.000 A 
ATOM      8  N   UNL     1      51.288   7.394  15.973  0.00  0.00    +0.000 N 
ATOM      9  N   UNL     1      51.118   5.291  16.926  0.00  0.00    +0.000 NA
ATOM     10  C   UNL     1      50.366   4.313  17.484  0.00  0.00    +0.000 A 
ATOM     11  H   UNL     1      52.194   7.012  15.740  0.00  0.00    +0.000 HD
BRANCH   4  13
ATOM     12  N   UNL     1      48.371   3.055  19.530  0.00  0.00    +0.000 N 
ATOM     13  C   UNL     1      48.228   3.287  18.191  0.00  0.00    +0.000 C 
ATOM     14  O   UNL     1      47.460   2.626  17.506  0.00  0.00    +0.000 OA
ATOM     15  H   UNL     1      47.755   2.355  19.926  0.00  0.00    +0.000 HD
ATOM     16  H   UNL     1      48.774   3.724  20.170  0.00  0.00    +0.000 HD
ENDBRANCH   4  13
ENDBRANCH   1   8
BRANCH   1  17
ATOM     17  C   UNL     1      50.285   8.461  13.913  0.00  0.00    +0.000 A 
ATOM     18  C   UNL     1      51.188   8.431  12.839  0.00  0.00    +0.000 A 
ATOM     19  C   UNL     1      50.764   8.161  11.540  0.00  0.00    +0.000 A 
ATOM     20  C   UNL     1      49.418   7.901  11.288  0.00  0.00    +0.000 A 
ATOM     21  C   UNL     1      48.468   7.927  12.323  0.00  0.00    +0.000 A 
ATOM     22  C   UNL     1      48.925   8.246  13.616  0.00  0.00    +0.000 A 
BRANCH  21  23
ATOM     23  C   UNL     1      47.059   7.546  12.088  0.00  0.00    +0.000 A 
ATOM     24  C   UNL     1      46.047   8.508  12.009  0.00  0.00    +0.000 A 
ATOM     25  N   UNL     1      44.742   8.249  11.766  0.00  0.00    +0.000 NA
ATOM     26  C   UNL     1      44.417   6.955  11.566  0.00  0.00    +0.000 A 
ATOM     27  C   UNL     1      45.331   5.909  11.582  0.00  0.00    +0.000 A 
ATOM     28  C   UNL     1      46.661   6.214  11.878  0.00  0.00    +0.000 A 
BRANCH  27  29
ATOM     29  O   UNL     1      44.829   4.668  11.330  0.00  0.00    +0.000 OA
BRANCH  29  30
ATOM     30  C   UNL     1      44.899   3.753  12.411  0.00  0.00    +0.000 C 
ATOM     31  F   UNL     1      44.536   4.395  13.548  0.00  0.00    +0.000 F 
ATOM     32  F   UNL     1      43.966   2.793  12.187  0.00  0.00    +0.000 F 
ENDBRANCH  29  30
ENDBRANCH  27  29
ENDBRANCH  21  23
ENDBRANCH   1  17
TORSDOF 6
ENDMDL
MODEL 9
REMARK VINA RESULT:    -5.923      5.512      8.169
REMARK INTER + INTRA:          -8.993
REMARK INTER:                  -8.000
REMARK INTRA:                  -0.993
REMARK UNBOUND:                -0.992
REMARK  Name = 
REMARK  6 active torsions:
REMARK  status: ('A' for Active; 'I' for Inactive)
REMARK    1  A    between atoms: C_2  and  C_4
REMARK    2  A    between atoms: N_8  and  C_9
REMARK    3  A    between atoms: C_9  and  C_10
REMARK    4  A    between atoms: C_14  and  C_15
REMARK    5  A    between atoms: C_19  and  O_20
REMARK    6  A    between atoms: O_20  and  C_21
REMARK                            x       y       z     vdW  Elec       q    Type
REMARK                         _______ _______ _______ _____ _____    ______ ____
ROOT
ATOM      1  C   UNL     1      49.112   8.528  17.995  0.00  0.00    +0.000 C 
ATOM      2  C   UNL     1      48.856   9.648  18.999  0.00  0.00    +0.000 C 
ATOM      3  C   UNL     1      47.777   8.659  18.711  0.00  0.00    +0.000 C 
ENDROOT
BRANCH   1   8
ATOM      4  C   UNL     1      50.072   3.556  17.367  0.00  0.00    +0.000 A 
ATOM      5  C   UNL     1      49.028   4.386  17.051  0.00  0.00    +0.000 A 
ATOM      6  N   UNL     1      48.994   5.697  17.375  0.00  0.00    +0.000 NA
ATOM      7  C   UNL     1      50.053   6.195  18.036  0.00  0.00    +0.000 A 
ATOM      8  N   UNL     1      50.096   7.534  18.408  0.00  0.00    +0.000 N 
ATOM      9  N   UNL     1      51.114   5.454  18.398  0.00  0.00    +0.000 NA
ATOM     10  C   UNL     1      51.094   4.140  18.074  0.00  0.00    +0.000 A 
ATOM     11  H   UNL     1      51.039   7.788  18.669  0.00  0.00    +0.000 HD
BRANCH   4  13
ATOM     12  N   UNL     1      50.943   1.324  17.744  0.00  0.00    +0.000 N 
ATOM     13  C   UNL     1      50.118   2.129  17.012  0.00  0.00    +0.000 C 
ATOM     14  O   UNL     1      49.413   1.681  16.118  0.00  0.00    +0.000 OA
ATOM     15  H   UNL     1      50.882   0.331  17.546  0.00  0.00    +0.000 HD
ATOM     16  H   UNL     1      51.328   1.589  18.639  0.00  0.00    +0.000 HD
ENDBRANCH   4  13
ENDBRANCH   1   8
BRANCH   1  17
ATOM     17  C   UNL     1      49.102   8.869  16.507  0.00  0.00    +0.000 A 
ATOM     18  C   UNL     1      50.209   9.486  15.900  0.00  0.00    +0.000 A 
ATOM     19  C   UNL     1      50.267   9.680  14.522  0.00  0.00    +0.000 A 
ATOM     20  C   UNL     1      49.216   9.247  13.714  0.00  0.00    +0.000 A 
ATOM     21  C   UNL     1      48.081   8.633  14.267  0.00  0.00    +0.000 A 
ATOM     22  C   UNL     1      48.036   8.492  15.668  0.00  0.00    +0.000 A 
BRANCH  21  23
ATOM     23  C   UNL     1      47.013   8.071  13.413  0.00  0.00    +0.000 A 
ATOM     24  C   UNL     1      46.051   8.892  12.815  0.00  0.00    +0.000 A 
ATOM     25  N   UNL     1      45.063   8.466  11.996  0.00  0.00    +0.000 NA
ATOM     26  C   UNL     1      45.034   7.142  11.733  0.00  0.00    +0.000 A 
ATOM     27  C   UNL     1      45.949   6.227  12.234  0.00  0.00    +0.000 A 
ATOM     28  C   UNL     1      46.929   6.701  13.109  0.00  0.00    +0.000 A 
BRANCH  27  29
ATOM     29  O   UNL     1      45.785   4.933  11.839  0.00  0.00    +0.000 OA
BRANCH  29  30
ATOM     30  C   UNL     1      45.400   4.030  12.862  0.00  0.00    +0.000 C 
ATOM     31  F   UNL     1      44.369   3.276  12.412  0.00  0.00    +0.000 F 
ATOM     32  F   UNL     1      46.444   3.187  13.068  0.00  0.00    +0.000 F 
ENDBRANCH  29  30
ENDBRANCH  27  29
ENDBRANCH  21  23
ENDBRANCH   1  17
TORSDOF 6
ENDMDL
