MODEL 1
REMARK VINA RESULT:    -8.785      0.000      0.000
REMARK INTER + INTRA:         -12.019
REMARK INTER:                 -11.353
REMARK INTRA:                  -0.666
REMARK UNBOUND:                -0.666
REMARK  Name = 
REMARK  5 active torsions:
REMARK  status: ('A' for Active; 'I' for Inactive)
REMARK    1  A    between atoms: C_2  and  C_18
REMARK    2  A    between atoms: N_3  and  C_4
REMARK    3  A    between atoms: C_4  and  C_5
REMARK    4  A    between atoms: C_8  and  C_9
REMARK    5  A    between atoms: C_9  and  C_10
REMARK                            x       y       z     vdW  Elec       q    Type
REMARK                         _______ _______ _______ _____ _____    ______ ____
ROOT
ATOM      1  O   UNL     1      48.969   6.630  13.267  0.00  0.00    +0.000 OA
ATOM      2  C   UNL     1      48.152   6.567  14.180  0.00  0.00    +0.000 C 
ATOM      3  N   UNL     1      46.808   6.773  13.969  0.00  0.00    +0.000 N 
ATOM      4  H   UNL     1      46.204   6.919  14.772  0.00  0.00    +0.000 HD
ENDROOT
BRANCH   2   5
ATOM      5  C   UNL     1      48.548   6.226  15.550  0.00  0.00    +0.000 A 
ATOM      6  C   UNL     1      49.319   7.111  16.293  0.00  0.00    +0.000 A 
ATOM      7  S   UNL     1      49.700   6.541  17.855  0.00  0.00    +0.000 S 
ATOM      8  C   UNL     1      48.806   5.113  17.614  0.00  0.00    +0.000 A 
ATOM      9  N   UNL     1      48.693   4.179  18.596  0.00  0.00    +0.000 NA
ATOM     10  C   UNL     1      47.953   3.166  18.288  0.00  0.00    +0.000 A 
ATOM     11  N   UNL     1      47.321   2.998  17.083  0.00  0.00    +0.000 N 
ATOM     12  C   UNL     1      47.434   3.896  16.051  0.00  0.00    +0.000 A 
ATOM     13  O   UNL     1      46.899   3.691  14.965  0.00  0.00    +0.000 OA
ATOM     14  C   UNL     1      48.241   5.063  16.350  0.00  0.00    +0.000 A 
ATOM     15  H   UNL     1      46.766   2.175  16.900  0.00  0.00    +0.000 HD
ENDBRANCH   2   5
BRANCH   3  16
ATOM     16  C   UNL     1      46.311   7.229  12.695  0.00  0.00    +0.000 C 
BRANCH  16  17
ATOM     17  C   UNL     1      45.861   6.084  11.836  0.00  0.00    +0.000 A 
ATOM     18  C   UNL     1      45.236   4.959  12.375  0.00  0.00    +0.000 A 
ATOM     19  C   UNL     1      44.812   3.930  11.534  0.00  0.00    +0.000 A 
ATOM     20  C   UNL     1      45.018   4.051  10.161  0.00  0.00    +0.000 A 
ATOM     21  N   UNL     1      45.615   5.140   9.613  0.00  0.00    +0.000 NA
ATOM     22  C   UNL     1      46.010   6.126  10.453  0.00  0.00    +0.000 A 
BRANCH  20  23
ATOM     23  C   UNL     1      44.495   2.996   9.211  0.00  0.00    +0.000 C 
BRANCH  23  24
ATOM     24  C   UNL     1      45.546   2.545   8.223  0.00  0.00    +0.000 A 
ATOM     25  C   UNL     1      45.857   3.339   7.119  0.00  0.00    +0.000 A 
ATOM     26  C   UNL     1      46.754   2.859   6.171  0.00  0.00    +0.000 A 
ATOM     27  C   UNL     1      47.336   1.612   6.359  0.00  0.00    +0.000 A 
ATOM     28  C   UNL     1      47.003   0.900   7.500  0.00  0.00    +0.000 A 
ATOM     29  N   UNL     1      46.122   1.333   8.429  0.00  0.00    +0.000 NA
ENDBRANCH  23  24
ENDBRANCH  20  23
ENDBRANCH  16  17
ENDBRANCH   3  16
TORSDOF 5
ENDMDL
MODEL 2
REMARK VINA RESULT:    -8.011      1.716      2.467
REMARK INTER + INTRA:         -11.019
REMARK INTER:                 -10.598
REMARK INTRA:                  -0.421
REMARK UNBOUND:                -0.666
REMARK  Name = 
REMARK  5 active torsions:
REMARK  status: ('A' for Active; 'I' for Inactive)
REMARK    1  A    between atoms: C_2  and  C_18
REMARK    2  A    between atoms: N_3  and  C_4
REMARK    3  A    between atoms: C_4  and  C_5
REMARK    4  A    between atoms: C_8  and  C_9
REMARK    5  A    between atoms: C_9  and  C_10
REMARK                            x       y       z     vdW  Elec       q    Type
REMARK                         _______ _______ _______ _____ _____    ______ ____
ROOT
ATOM      1  O   UNL     1      48.802   6.359  14.529  0.00  0.00    +0.000 OA
ATOM      2  C   UNL     1      47.863   5.712  14.980  0.00  0.00    +0.000 C 
ATOM      3  N   UNL     1      46.667   5.600  14.307  0.00  0.00    +0.000 N 
ATOM      4  H   UNL     1      45.859   5.239  14.804  0.00  0.00    +0.000 HD
ENDROOT
BRANCH   2   5
ATOM      5  C   UNL     1      47.965   4.978  16.245  0.00  0.00    +0.000 A 
ATOM      6  C   UNL     1      47.760   3.604  16.272  0.00  0.00    +0.000 A 
ATOM      7  S   UNL     1      47.900   2.923  17.830  0.00  0.00    +0.000 S 
ATOM      8  C   UNL     1      48.288   4.431  18.517  0.00  0.00    +0.000 A 
ATOM      9  N   UNL     1      48.562   4.550  19.844  0.00  0.00    +0.000 NA
ATOM     10  C   UNL     1      48.878   5.745  20.219  0.00  0.00    +0.000 A 
ATOM     11  N   UNL     1      48.939   6.834  19.389  0.00  0.00    +0.000 N 
ATOM     12  C   UNL     1      48.637   6.770  18.051  0.00  0.00    +0.000 A 
ATOM     13  O   UNL     1      48.648   7.773  17.345  0.00  0.00    +0.000 OA
ATOM     14  C   UNL     1      48.291   5.445  17.573  0.00  0.00    +0.000 A 
ATOM     15  H   UNL     1      49.180   7.746  19.748  0.00  0.00    +0.000 HD
ENDBRANCH   2   5
BRANCH   3  16
ATOM     16  C   UNL     1      46.404   6.367  13.115  0.00  0.00    +0.000 C 
BRANCH  16  17
ATOM     17  C   UNL     1      45.871   5.505  12.010  0.00  0.00    +0.000 A 
ATOM     18  C   UNL     1      45.814   5.952  10.689  0.00  0.00    +0.000 A 
ATOM     19  C   UNL     1      45.335   5.105   9.689  0.00  0.00    +0.000 A 
ATOM     20  C   UNL     1      44.924   3.819  10.033  0.00  0.00    +0.000 A 
ATOM     21  N   UNL     1      44.979   3.358  11.309  0.00  0.00    +0.000 NA
ATOM     22  C   UNL     1      45.455   4.201  12.257  0.00  0.00    +0.000 A 
BRANCH  20  23
ATOM     23  C   UNL     1      44.480   2.845   8.963  0.00  0.00    +0.000 C 
BRANCH  23  24
ATOM     24  C   UNL     1      45.573   2.564   7.958  0.00  0.00    +0.000 A 
ATOM     25  C   UNL     1      46.356   1.415   8.075  0.00  0.00    +0.000 A 
ATOM     26  C   UNL     1      47.419   1.227   7.198  0.00  0.00    +0.000 A 
ATOM     27  C   UNL     1      47.661   2.176   6.213  0.00  0.00    +0.000 A 
ATOM     28  C   UNL     1      46.816   3.271   6.139  0.00  0.00    +0.000 A 
ATOM     29  N   UNL     1      45.786   3.489   6.987  0.00  0.00    +0.000 NA
ENDBRANCH  23  24
ENDBRANCH  20  23
ENDBRANCH  16  17
ENDBRANCH   3  16
TORSDOF 5
ENDMDL
MODEL 3
REMARK VINA RESULT:    -7.839      1.157      1.673
REMARK INTER + INTRA:         -10.796
REMARK INTER:                 -10.069
REMARK INTRA:                  -0.727
REMARK UNBOUND:                -0.666
REMARK  Name = 
REMARK  5 active torsions:
REMARK  status: ('A' for Active; 'I' for Inactive)
REMARK    1  A    between atoms: C_2  and  C_18
REMARK    2  A    between atoms: N_3  and  C_4
REMARK    3  A    between atoms: C_4  and  C_5
REMARK    4  A    between atoms: C_8  and  C_9
REMARK    5  A    between atoms: C_9  and  C_10
REMARK                            x       y       z     vdW  Elec       q    Type
REMARK                         _______ _______ _______ _____ _____    ______ ____
ROOT
ATOM      1  O   UNL     1      49.398   6.955  13.704  0.00  0.00    +0.000 OA
ATOM      2  C   UNL     1      48.616   6.889  14.647  0.00  0.00    +0.000 C 
ATOM      3  N   UNL     1      47.324   7.353  14.553  0.00  0.00    +0.000 N 
ATOM      4  H   UNL     1      46.784   7.471  15.406  0.00  0.00    +0.000 HD
ENDROOT
BRANCH   2   5
ATOM      5  C   UNL     1      48.992   6.271  15.922  0.00  0.00    +0.000 A 
ATOM      6  C   UNL     1      49.996   6.835  16.700  0.00  0.00    +0.000 A 
ATOM      7  S   UNL     1      50.311   5.973  18.138  0.00  0.00    +0.000 S 
ATOM      8  C   UNL     1      49.084   4.844  17.798  0.00  0.00    +0.000 A 
ATOM      9  N   UNL     1      48.801   3.831  18.661  0.00  0.00    +0.000 NA
ATOM     10  C   UNL     1      47.821   3.075  18.293  0.00  0.00    +0.000 A 
ATOM     11  N   UNL     1      47.100   3.235  17.138  0.00  0.00    +0.000 N 
ATOM     12  C   UNL     1      47.372   4.220  16.221  0.00  0.00    +0.000 A 
ATOM     13  O   UNL     1      46.744   4.305  15.170  0.00  0.00    +0.000 OA
ATOM     14  C   UNL     1      48.455   5.110  16.593  0.00  0.00    +0.000 A 
ATOM     15  H   UNL     1      46.352   2.600  16.902  0.00  0.00    +0.000 HD
ENDBRANCH   2   5
BRANCH   3  16
ATOM     16  C   UNL     1      46.873   8.085  13.396  0.00  0.00    +0.000 C 
BRANCH  16  17
ATOM     17  C   UNL     1      46.137   7.199  12.435  0.00  0.00    +0.000 A 
ATOM     18  C   UNL     1      46.802   6.267  11.636  0.00  0.00    +0.000 A 
ATOM     19  C   UNL     1      46.074   5.446  10.775  0.00  0.00    +0.000 A 
ATOM     20  C   UNL     1      44.686   5.572  10.734  0.00  0.00    +0.000 A 
ATOM     21  N   UNL     1      44.017   6.464  11.508  0.00  0.00    +0.000 NA
ATOM     22  C   UNL     1      44.750   7.243  12.339  0.00  0.00    +0.000 A 
BRANCH  20  23
ATOM     23  C   UNL     1      43.857   4.640   9.876  0.00  0.00    +0.000 C 
BRANCH  23  24
ATOM     24  C   UNL     1      44.715   3.753   9.003  0.00  0.00    +0.000 A 
ATOM     25  C   UNL     1      44.849   2.396   9.299  0.00  0.00    +0.000 A 
ATOM     26  C   UNL     1      45.721   1.621   8.542  0.00  0.00    +0.000 A 
ATOM     27  C   UNL     1      46.419   2.211   7.496  0.00  0.00    +0.000 A 
ATOM     28  C   UNL     1      46.204   3.556   7.244  0.00  0.00    +0.000 A 
ATOM     29  N   UNL     1      45.377   4.338   7.972  0.00  0.00    +0.000 NA
ENDBRANCH  23  24
ENDBRANCH  20  23
ENDBRANCH  16  17
ENDBRANCH   3  16
TORSDOF 5
ENDMDL
MODEL 4
REMARK VINA RESULT:    -7.810      2.265      3.850
REMARK INTER + INTRA:         -10.759
REMARK INTER:                  -9.799
REMARK INTRA:                  -0.960
REMARK UNBOUND:                -0.666
REMARK  Name = 
REMARK  5 active torsions:
REMARK  status: ('A' for Active; 'I' for Inactive)
REMARK    1  A    between atoms: C_2  and  C_18
REMARK    2  A    between atoms: N_3  and  C_4
REMARK    3  A    between atoms: C_4  and  C_5
REMARK    4  A    between atoms: C_8  and  C_9
REMARK    5  A    between atoms: C_9  and  C_10
REMARK                            x       y       z     vdW  Elec       q    Type
REMARK                         _______ _______ _______ _____ _____    ______ ____
ROOT
ATOM      1  O   UNL     1      48.646   5.391  15.888  0.00  0.00    +0.000 OA
ATOM      2  C   UNL     1      48.237   6.284  15.153  0.00  0.00    +0.000 C 
ATOM      3  N   UNL     1      47.123   6.121  14.361  0.00  0.00    +0.000 N 
ATOM      4  H   UNL     1      46.946   6.796  13.623  0.00  0.00    +0.000 HD
ENDROOT
BRANCH   2   5
ATOM      5  C   UNL     1      48.881   7.600  15.102  0.00  0.00    +0.000 A 
ATOM      6  C   UNL     1      48.973   8.375  16.252  0.00  0.00    +0.000 A 
ATOM      7  S   UNL     1      49.735   9.881  16.002  0.00  0.00    +0.000 S 
ATOM      8  C   UNL     1      50.014   9.531  14.360  0.00  0.00    +0.000 A 
ATOM      9  N   UNL     1      50.669  10.411  13.555  0.00  0.00    +0.000 NA
ATOM     10  C   UNL     1      50.844   9.997  12.344  0.00  0.00    +0.000 A 
ATOM     11  N   UNL     1      50.419   8.786  11.861  0.00  0.00    +0.000 N 
ATOM     12  C   UNL     1      49.725   7.882  12.627  0.00  0.00    +0.000 A 
ATOM     13  O   UNL     1      49.310   6.829  12.152  0.00  0.00    +0.000 OA
ATOM     14  C   UNL     1      49.515   8.289  14.003  0.00  0.00    +0.000 A 
ATOM     15  H   UNL     1      50.577   8.528  10.899  0.00  0.00    +0.000 HD
ENDBRANCH   2   5
BRANCH   3  16
ATOM     16  C   UNL     1      46.475   4.840  14.234  0.00  0.00    +0.000 C 
BRANCH  16  17
ATOM     17  C   UNL     1      45.945   4.623  12.848  0.00  0.00    +0.000 A 
ATOM     18  C   UNL     1      46.069   5.593  11.852  0.00  0.00    +0.000 A 
ATOM     19  C   UNL     1      45.584   5.337  10.569  0.00  0.00    +0.000 A 
ATOM     20  C   UNL     1      44.985   4.106  10.307  0.00  0.00    +0.000 A 
ATOM     21  N   UNL     1      44.862   3.144  11.257  0.00  0.00    +0.000 NA
ATOM     22  C   UNL     1      45.348   3.419  12.490  0.00  0.00    +0.000 A 
BRANCH  20  23
ATOM     23  C   UNL     1      44.525   3.761   8.907  0.00  0.00    +0.000 C 
BRANCH  23  24
ATOM     24  C   UNL     1      45.585   3.019   8.125  0.00  0.00    +0.000 A 
ATOM     25  C   UNL     1      46.239   3.644   7.063  0.00  0.00    +0.000 A 
ATOM     26  C   UNL     1      47.137   2.910   6.295  0.00  0.00    +0.000 A 
ATOM     27  C   UNL     1      47.379   1.582   6.620  0.00  0.00    +0.000 A 
ATOM     28  C   UNL     1      46.717   1.045   7.711  0.00  0.00    +0.000 A 
ATOM     29  N   UNL     1      45.826   1.727   8.465  0.00  0.00    +0.000 NA
ENDBRANCH  23  24
ENDBRANCH  20  23
ENDBRANCH  16  17
ENDBRANCH   3  16
TORSDOF 5
ENDMDL
MODEL 5
REMARK VINA RESULT:    -7.617      1.996      3.460
REMARK INTER + INTRA:         -10.510
REMARK INTER:                 -10.125
REMARK INTRA:                  -0.386
REMARK UNBOUND:                -0.666
REMARK  Name = 
REMARK  5 active torsions:
REMARK  status: ('A' for Active; 'I' for Inactive)
REMARK    1  A    between atoms: C_2  and  C_18
REMARK    2  A    between atoms: N_3  and  C_4
REMARK    3  A    between atoms: C_4  and  C_5
REMARK    4  A    between atoms: C_8  and  C_9
REMARK    5  A    between atoms: C_9  and  C_10
REMARK                            x       y       z     vdW  Elec       q    Type
REMARK                         _______ _______ _______ _____ _____    ______ ____
ROOT
ATOM      1  O   UNL     1      47.201   3.859  14.745  0.00  0.00    +0.000 OA
ATOM      2  C   UNL     1      47.081   5.044  14.453  0.00  0.00    +0.000 C 
ATOM      3  N   UNL     1      45.904   5.555  13.955  0.00  0.00    +0.000 N 
ATOM      4  H   UNL     1      45.912   6.479  13.534  0.00  0.00    +0.000 HD
ENDROOT
BRANCH   2   5
ATOM      5  C   UNL     1      48.170   6.005  14.655  0.00  0.00    +0.000 A 
ATOM      6  C   UNL     1      48.811   6.082  15.886  0.00  0.00    +0.000 A 
ATOM      7  S   UNL     1      50.037   7.267  15.945  0.00  0.00    +0.000 S 
ATOM      8  C   UNL     1      49.789   7.685  14.314  0.00  0.00    +0.000 A 
ATOM      9  N   UNL     1      50.549   8.638  13.710  0.00  0.00    +0.000 NA
ATOM     10  C   UNL     1      50.278   8.825  12.461  0.00  0.00    +0.000 A 
ATOM     11  N   UNL     1      49.311   8.150  11.761  0.00  0.00    +0.000 N 
ATOM     12  C   UNL     1      48.497   7.206  12.338  0.00  0.00    +0.000 A 
ATOM     13  O   UNL     1      47.604   6.657  11.699  0.00  0.00    +0.000 OA
ATOM     14  C   UNL     1      48.771   6.945  13.738  0.00  0.00    +0.000 A 
ATOM     15  H   UNL     1      49.139   8.353  10.788  0.00  0.00    +0.000 HD
ENDBRANCH   2   5
BRANCH   3  16
ATOM     16  C   UNL     1      44.804   4.693  13.602  0.00  0.00    +0.000 C 
BRANCH  16  17
ATOM     17  C   UNL     1      44.711   4.495  12.118  0.00  0.00    +0.000 A 
ATOM     18  C   UNL     1      45.300   5.385  11.218  0.00  0.00    +0.000 A 
ATOM     19  C   UNL     1      45.210   5.146   9.846  0.00  0.00    +0.000 A 
ATOM     20  C   UNL     1      44.533   4.012   9.401  0.00  0.00    +0.000 A 
ATOM     21  N   UNL     1      43.961   3.128  10.257  0.00  0.00    +0.000 NA
ATOM     22  C   UNL     1      44.070   3.383  11.583  0.00  0.00    +0.000 A 
BRANCH  20  23
ATOM     23  C   UNL     1      44.489   3.676   7.926  0.00  0.00    +0.000 C 
BRANCH  23  24
ATOM     24  C   UNL     1      45.719   2.921   7.476  0.00  0.00    +0.000 A 
ATOM     25  C   UNL     1      46.498   3.411   6.428  0.00  0.00    +0.000 A 
ATOM     26  C   UNL     1      47.567   2.650   5.965  0.00  0.00    +0.000 A 
ATOM     27  C   UNL     1      47.847   1.434   6.575  0.00  0.00    +0.000 A 
ATOM     28  C   UNL     1      47.049   1.034   7.634  0.00  0.00    +0.000 A 
ATOM     29  N   UNL     1      45.993   1.743   8.094  0.00  0.00    +0.000 NA
ENDBRANCH  23  24
ENDBRANCH  20  23
ENDBRANCH  16  17
ENDBRANCH   3  16
TORSDOF 5
ENDMDL
MODEL 6
REMARK VINA RESULT:    -7.515      3.676      4.620
REMARK INTER + INTRA:         -10.377
REMARK INTER:                 -10.003
REMARK INTRA:                  -0.374
REMARK UNBOUND:                -0.666
REMARK  Name = 
REMARK  5 active torsions:
REMARK  status: ('A' for Active; 'I' for Inactive)
REMARK    1  A    between atoms: C_2  and  C_18
REMARK    2  A    between atoms: N_3  and  C_4
REMARK    3  A    between atoms: C_4  and  C_5
REMARK    4  A    between atoms: C_8  and  C_9
REMARK    5  A    between atoms: C_9  and  C_10
REMARK                            x       y       z     vdW  Elec       q    Type
REMARK                         _______ _______ _______ _____ _____    ______ ____
ROOT
ATOM      1  O   UNL     1      46.828   6.897  13.839  0.00  0.00    +0.000 OA
ATOM      2  C   UNL     1      46.345   7.645  12.996  0.00  0.00    +0.000 C 
ATOM      3  N   UNL     1      45.044   7.514  12.566  0.00  0.00    +0.000 N 
ATOM      4  H   UNL     1      44.754   8.010  11.729  0.00  0.00    +0.000 HD
ENDROOT
BRANCH   2   5
ATOM      5  C   UNL     1      47.107   8.758  12.422  0.00  0.00    +0.000 A 
ATOM      6  C   UNL     1      46.499   9.993  12.229  0.00  0.00    +0.000 A 
ATOM      7  S   UNL     1      47.530  11.161  11.535  0.00  0.00    +0.000 S 
ATOM      8  C   UNL     1      48.840  10.076  11.513  0.00  0.00    +0.000 A 
ATOM      9  N   UNL     1      50.063  10.458  11.057  0.00  0.00    +0.000 NA
ATOM     10  C   UNL     1      50.972   9.544  11.135  0.00  0.00    +0.000 A 
ATOM     11  N   UNL     1      50.769   8.279  11.623  0.00  0.00    +0.000 N 
ATOM     12  C   UNL     1      49.545   7.837  12.061  0.00  0.00    +0.000 A 
ATOM     13  O   UNL     1      49.381   6.682  12.441  0.00  0.00    +0.000 OA
ATOM     14  C   UNL     1      48.490   8.831  12.010  0.00  0.00    +0.000 A 
ATOM     15  H   UNL     1      51.520   7.605  11.645  0.00  0.00    +0.000 HD
ENDBRANCH   2   5
BRANCH   3  16
ATOM     16  C   UNL     1      44.233   6.391  12.967  0.00  0.00    +0.000 C 
BRANCH  16  17
ATOM     17  C   UNL     1      44.374   5.240  12.015  0.00  0.00    +0.000 A 
ATOM     18  C   UNL     1      44.890   4.008  12.421  0.00  0.00    +0.000 A 
ATOM     19  C   UNL     1      44.979   2.958  11.508  0.00  0.00    +0.000 A 
ATOM     20  C   UNL     1      44.543   3.161  10.199  0.00  0.00    +0.000 A 
ATOM     21  N   UNL     1      44.029   4.348   9.784  0.00  0.00    +0.000 NA
ATOM     22  C   UNL     1      43.949   5.346  10.695  0.00  0.00    +0.000 A 
BRANCH  20  23
ATOM     23  C   UNL     1      44.545   2.021   9.205  0.00  0.00    +0.000 C 
BRANCH  23  24
ATOM     24  C   UNL     1      45.673   2.136   8.206  0.00  0.00    +0.000 A 
ATOM     25  C   UNL     1      45.795   3.278   7.414  0.00  0.00    +0.000 A 
ATOM     26  C   UNL     1      46.780   3.320   6.433  0.00  0.00    +0.000 A 
ATOM     27  C   UNL     1      47.633   2.235   6.282  0.00  0.00    +0.000 A 
ATOM     28  C   UNL     1      47.471   1.153   7.131  0.00  0.00    +0.000 A 
ATOM     29  N   UNL     1      46.512   1.075   8.082  0.00  0.00    +0.000 NA
ENDBRANCH  23  24
ENDBRANCH  20  23
ENDBRANCH  16  17
ENDBRANCH   3  16
TORSDOF 5
ENDMDL
MODEL 7
REMARK VINA RESULT:    -7.422      2.731      3.484
REMARK INTER + INTRA:         -10.257
REMARK INTER:                  -9.813
REMARK INTRA:                  -0.444
REMARK UNBOUND:                -0.666
REMARK  Name = 
REMARK  5 active torsions:
REMARK  status: ('A' for Active; 'I' for Inactive)
REMARK    1  A    between atoms: C_2  and  C_18
REMARK    2  A    between atoms: N_3  and  C_4
REMARK    3  A    between atoms: C_4  and  C_5
REMARK    4  A    between atoms: C_8  and  C_9
REMARK    5  A    between atoms: C_9  and  C_10
REMARK                            x       y       z     vdW  Elec       q    Type
REMARK                         _______ _______ _______ _____ _____    ______ ____
ROOT
ATOM      1  O   UNL     1      46.801   9.220  12.597  0.00  0.00    +0.000 OA
ATOM      2  C   UNL     1      47.581   8.295  12.801  0.00  0.00    +0.000 C 
ATOM      3  N   UNL     1      47.153   6.991  12.903  0.00  0.00    +0.000 N 
ATOM      4  H   UNL     1      47.791   6.295  13.276  0.00  0.00    +0.000 HD
ENDROOT
BRANCH   2   5
ATOM      5  C   UNL     1      49.028   8.512  12.905  0.00  0.00    +0.000 A 
ATOM      6  C   UNL     1      49.683   9.300  11.966  0.00  0.00    +0.000 A 
ATOM      7  S   UNL     1      51.363   9.425  12.234  0.00  0.00    +0.000 S 
ATOM      8  C   UNL     1      51.268   8.472  13.640  0.00  0.00    +0.000 A 
ATOM      9  N   UNL     1      52.374   8.209  14.387  0.00  0.00    +0.000 NA
ATOM     10  C   UNL     1      52.147   7.507  15.448  0.00  0.00    +0.000 A 
ATOM     11  N   UNL     1      50.916   7.038  15.827  0.00  0.00    +0.000 N 
ATOM     12  C   UNL     1      49.779   7.248  15.086  0.00  0.00    +0.000 A 
ATOM     13  O   UNL     1      48.700   6.770  15.423  0.00  0.00    +0.000 OA
ATOM     14  C   UNL     1      49.974   8.047  13.892  0.00  0.00    +0.000 A 
ATOM     15  H   UNL     1      50.808   6.482  16.662  0.00  0.00    +0.000 HD
ENDBRANCH   2   5
BRANCH   3  16
ATOM     16  C   UNL     1      45.749   6.664  12.935  0.00  0.00    +0.000 C 
BRANCH  16  17
ATOM     17  C   UNL     1      45.401   5.622  11.914  0.00  0.00    +0.000 A 
ATOM     18  C   UNL     1      45.576   5.842  10.547  0.00  0.00    +0.000 A 
ATOM     19  C   UNL     1      45.262   4.834   9.636  0.00  0.00    +0.000 A 
ATOM     20  C   UNL     1      44.782   3.616  10.114  0.00  0.00    +0.000 A 
ATOM     21  N   UNL     1      44.613   3.376  11.440  0.00  0.00    +0.000 NA
ATOM     22  C   UNL     1      44.932   4.371  12.301  0.00  0.00    +0.000 A 
BRANCH  20  23
ATOM     23  C   UNL     1      44.513   2.471   9.162  0.00  0.00    +0.000 C 
BRANCH  23  24
ATOM     24  C   UNL     1      45.619   2.303   8.145  0.00  0.00    +0.000 A 
ATOM     25  C   UNL     1      45.794   3.250   7.136  0.00  0.00    +0.000 A 
ATOM     26  C   UNL     1      46.752   3.023   6.154  0.00  0.00    +0.000 A 
ATOM     27  C   UNL     1      47.529   1.873   6.216  0.00  0.00    +0.000 A 
ATOM     28  C   UNL     1      47.319   1.000   7.271  0.00  0.00    +0.000 A 
ATOM     29  N   UNL     1      46.384   1.184   8.230  0.00  0.00    +0.000 NA
ENDBRANCH  23  24
ENDBRANCH  20  23
ENDBRANCH  16  17
ENDBRANCH   3  16
TORSDOF 5
ENDMDL
MODEL 8
REMARK VINA RESULT:    -7.194      2.169      2.955
REMARK INTER + INTRA:          -9.963
REMARK INTER:                  -9.235
REMARK INTRA:                  -0.728
REMARK UNBOUND:                -0.666
REMARK  Name = 
REMARK  5 active torsions:
REMARK  status: ('A' for Active; 'I' for Inactive)
REMARK    1  A    between atoms: C_2  and  C_18
REMARK    2  A    between atoms: N_3  and  C_4
REMARK    3  A    between atoms: C_4  and  C_5
REMARK    4  A    between atoms: C_8  and  C_9
REMARK    5  A    between atoms: C_9  and  C_10
REMARK                            x       y       z     vdW  Elec       q    Type
REMARK                         _______ _______ _______ _____ _____    ______ ____
ROOT
ATOM      1  O   UNL     1      48.545   7.829  16.453  0.00  0.00    +0.000 OA
ATOM      2  C   UNL     1      48.631   6.658  16.099  0.00  0.00    +0.000 C 
ATOM      3  N   UNL     1      48.212   6.241  14.856  0.00  0.00    +0.000 N 
ATOM      4  H   UNL     1      48.106   5.245  14.685  0.00  0.00    +0.000 HD
ENDROOT
BRANCH   2   5
ATOM      5  C   UNL     1      49.225   5.630  16.961  0.00  0.00    +0.000 A 
ATOM      6  C   UNL     1      48.410   4.725  17.629  0.00  0.00    +0.000 A 
ATOM      7  S   UNL     1      49.271   3.617  18.598  0.00  0.00    +0.000 S 
ATOM      8  C   UNL     1      50.766   4.274  18.121  0.00  0.00    +0.000 A 
ATOM      9  N   UNL     1      51.939   3.755  18.575  0.00  0.00    +0.000 NA
ATOM     10  C   UNL     1      52.995   4.328  18.099  0.00  0.00    +0.000 A 
ATOM     11  N   UNL     1      52.986   5.377  17.216  0.00  0.00    +0.000 N 
ATOM     12  C   UNL     1      51.828   5.955  16.759  0.00  0.00    +0.000 A 
ATOM     13  O   UNL     1      51.852   6.928  16.011  0.00  0.00    +0.000 OA
ATOM     14  C   UNL     1      50.610   5.338  17.249  0.00  0.00    +0.000 A 
ATOM     15  H   UNL     1      53.848   5.789  16.893  0.00  0.00    +0.000 HD
ENDBRANCH   2   5
BRANCH   3  16
ATOM     16  C   UNL     1      47.506   7.129  13.967  0.00  0.00    +0.000 C 
BRANCH  16  17
ATOM     17  C   UNL     1      46.712   6.371  12.944  0.00  0.00    +0.000 A 
ATOM     18  C   UNL     1      46.231   5.084  13.191  0.00  0.00    +0.000 A 
ATOM     19  C   UNL     1      45.475   4.428  12.219  0.00  0.00    +0.000 A 
ATOM     20  C   UNL     1      45.211   5.078  11.015  0.00  0.00    +0.000 A 
ATOM     21  N   UNL     1      45.660   6.333  10.757  0.00  0.00    +0.000 NA
ATOM     22  C   UNL     1      46.385   6.948  11.721  0.00  0.00    +0.000 A 
BRANCH  20  23
ATOM     23  C   UNL     1      44.323   4.432   9.974  0.00  0.00    +0.000 C 
BRANCH  23  24
ATOM     24  C   UNL     1      45.115   3.632   8.965  0.00  0.00    +0.000 A 
ATOM     25  C   UNL     1      45.254   2.252   9.117  0.00  0.00    +0.000 A 
ATOM     26  C   UNL     1      46.070   1.553   8.234  0.00  0.00    +0.000 A 
ATOM     27  C   UNL     1      46.706   2.241   7.208  0.00  0.00    +0.000 A 
ATOM     28  C   UNL     1      46.488   3.604   7.103  0.00  0.00    +0.000 A 
ATOM     29  N   UNL     1      45.716   4.314   7.956  0.00  0.00    +0.000 NA
ENDBRANCH  23  24
ENDBRANCH  20  23
ENDBRANCH  16  17
ENDBRANCH   3  16
TORSDOF 5
ENDMDL
MODEL 9
REMARK VINA RESULT:    -6.702      2.907      8.338
REMARK INTER + INTRA:          -9.327
REMARK INTER:                  -8.393
REMARK INTRA:                  -0.934
REMARK UNBOUND:                -0.666
REMARK  Name = 
REMARK  5 active torsions:
REMARK  status: ('A' for Active; 'I' for Inactive)
REMARK    1  A    between atoms: C_2  and  C_18
REMARK    2  A    between atoms: N_3  and  C_4
REMARK    3  A    between atoms: C_4  and  C_5
REMARK    4  A    between atoms: C_8  and  C_9
REMARK    5  A    between atoms: C_9  and  C_10
REMARK                            x       y       z     vdW  Elec       q    Type
REMARK                         _______ _______ _______ _____ _____    ______ ____
ROOT
ATOM      1  O   UNL     1      44.597   7.259  12.265  0.00  0.00    +0.000 OA
ATOM      2  C   UNL     1      45.301   6.372  11.793  0.00  0.00    +0.000 C 
ATOM      3  N   UNL     1      46.654   6.538  11.607  0.00  0.00    +0.000 N 
ATOM      4  H   UNL     1      47.153   5.870  11.028  0.00  0.00    +0.000 HD
ENDROOT
BRANCH   2   5
ATOM      5  C   UNL     1      44.755   5.058  11.438  0.00  0.00    +0.000 A 
ATOM      6  C   UNL     1      43.942   4.376  12.335  0.00  0.00    +0.000 A 
ATOM      7  S   UNL     1      43.415   2.858  11.762  0.00  0.00    +0.000 S 
ATOM      8  C   UNL     1      44.213   3.079  10.275  0.00  0.00    +0.000 A 
ATOM      9  N   UNL     1      44.142   2.141   9.293  0.00  0.00    +0.000 NA
ATOM     10  C   UNL     1      44.762   2.459   8.205  0.00  0.00    +0.000 A 
ATOM     11  N   UNL     1      45.454   3.626   8.012  0.00  0.00    +0.000 N 
ATOM     12  C   UNL     1      45.583   4.585   8.986  0.00  0.00    +0.000 A 
ATOM     13  O   UNL     1      46.254   5.597   8.802  0.00  0.00    +0.000 OA
ATOM     14  C   UNL     1      44.889   4.287  10.224  0.00  0.00    +0.000 A 
ATOM     15  H   UNL     1      45.930   3.809   7.141  0.00  0.00    +0.000 HD
ENDBRANCH   2   5
BRANCH   3  16
ATOM     16  C   UNL     1      47.286   7.819  11.806  0.00  0.00    +0.000 C 
BRANCH  16  17
ATOM     17  C   UNL     1      48.038   7.868  13.103  0.00  0.00    +0.000 A 
ATOM     18  C   UNL     1      47.676   8.738  14.133  0.00  0.00    +0.000 A 
ATOM     19  C   UNL     1      48.389   8.730  15.332  0.00  0.00    +0.000 A 
ATOM     20  C   UNL     1      49.453   7.842  15.479  0.00  0.00    +0.000 A 
ATOM     21  N   UNL     1      49.817   6.980  14.495  0.00  0.00    +0.000 NA
ATOM     22  C   UNL     1      49.103   7.006  13.346  0.00  0.00    +0.000 A 
BRANCH  20  23
ATOM     23  C   UNL     1      50.194   7.745  16.795  0.00  0.00    +0.000 C 
BRANCH  23  24
ATOM     24  C   UNL     1      50.377   6.313  17.243  0.00  0.00    +0.000 A 
ATOM     25  C   UNL     1      51.653   5.751  17.292  0.00  0.00    +0.000 A 
ATOM     26  C   UNL     1      51.788   4.404  17.611  0.00  0.00    +0.000 A 
ATOM     27  C   UNL     1      50.652   3.658  17.896  0.00  0.00    +0.000 A 
ATOM     28  C   UNL     1      49.424   4.298  17.862  0.00  0.00    +0.000 A 
ATOM     29  N   UNL     1      49.260   5.600  17.538  0.00  0.00    +0.000 NA
ENDBRANCH  23  24
ENDBRANCH  20  23
ENDBRANCH  16  17
ENDBRANCH   3  16
TORSDOF 5
ENDMDL
