MODEL 1
REMARK VINA RESULT:    -8.496      0.000      0.000
REMARK INTER + INTRA:         -13.828
REMARK INTER:                 -12.717
REMARK INTRA:                  -1.111
REMARK UNBOUND:                -1.111
REMARK  Name = 
REMARK  9 active torsions:
REMARK  status: ('A' for Active; 'I' for Inactive)
REMARK    1  A    between atoms: N_1  and  C_2
REMARK    2  A    between atoms: C_2  and  C_3
REMARK    3  A    between atoms: C_3  and  N_4
REMARK    4  A    between atoms: C_3  and  C_26
REMARK    5  A    between atoms: N_4  and  C_5
REMARK    6  A    between atoms: C_5  and  C_6
REMARK    7  A    between atoms: C_9  and  C_10
REMARK    8  A    between atoms: C_10  and  N_11
REMARK    9  A    between atoms: C_12  and  C_14
REMARK                            x       y       z     vdW  Elec       q    Type
REMARK                         _______ _______ _______ _____ _____    ______ ____
ROOT
ATOM      1  C   UNL     1      44.646   6.044  11.078  0.00  0.00    +0.000 A 
ATOM      2  C   UNL     1      46.014   5.880  10.872  0.00  0.00    +0.000 A 
ATOM      3  C   UNL     1      46.908   6.636  11.625  0.00  0.00    +0.000 A 
ATOM      4  C   UNL     1      46.422   7.560  12.552  0.00  0.00    +0.000 A 
ATOM      5  C   UNL     1      45.040   7.662  12.685  0.00  0.00    +0.000 A 
ATOM      6  N   UNL     1      44.147   6.928  11.980  0.00  0.00    +0.000 NA
ENDROOT
BRANCH   1   7
ATOM      7  C   UNL     1      43.657   5.188  10.309  0.00  0.00    +0.000 C 
BRANCH   7   8
ATOM      8  N   UNL     1      44.274   4.545   9.147  0.00  0.00    +0.000 NA
ATOM      9  H   UNL     1      43.648   4.715   8.353  0.00  0.00    +0.000 HD
BRANCH   8  10
ATOM     10  C   UNL     1      44.396   3.074   9.306  0.00  0.00    +0.000 C 
BRANCH  10  11
ATOM     11  C   UNL     1      45.554   2.538   8.455  0.00  0.00    +0.000 A 
ATOM     12  C   UNL     1      46.286   3.384   7.620  0.00  0.00    +0.000 A 
ATOM     13  C   UNL     1      47.310   2.862   6.837  0.00  0.00    +0.000 A 
ATOM     14  C   UNL     1      47.567   1.500   6.884  0.00  0.00    +0.000 A 
ATOM     15  C   UNL     1      46.787   0.718   7.719  0.00  0.00    +0.000 A 
ATOM     16  N   UNL     1      45.796   1.200   8.504  0.00  0.00    +0.000 NA
ENDBRANCH  10  11
BRANCH  10  17
ATOM     17  C   UNL     1      44.507   2.603  10.795  0.00  0.00    +0.000 C 
BRANCH  17  18
ATOM     18  N   UNL     1      43.265   2.118  11.413  0.00  0.00    +0.000 NA
ATOM     19  H   UNL     1      43.016   2.699  12.209  0.00  0.00    +0.000 HD
ATOM     20  H   UNL     1      43.408   1.163  11.744  0.00  0.00    +0.000 HD
ENDBRANCH  17  18
ENDBRANCH  10  17
ENDBRANCH   8  10
ENDBRANCH   7   8
ENDBRANCH   1   7
BRANCH   4  21
ATOM     21  C   UNL     1      47.344   8.369  13.415  0.00  0.00    +0.000 C 
BRANCH  21  22
ATOM     22  N   UNL     1      47.702   7.642  14.606  0.00  0.00    +0.000 N 
ATOM     23  C   UNL     1      48.910   7.007  14.733  0.00  0.00    +0.000 C 
ATOM     24  O   UNL     1      49.762   7.037  13.850  0.00  0.00    +0.000 OA
ATOM     25  H   UNL     1      46.943   7.381  15.228  0.00  0.00    +0.000 HD
BRANCH  23  26
ATOM     26  C   UNL     1      49.153   6.341  16.018  0.00  0.00    +0.000 A 
ATOM     27  C   UNL     1      50.130   6.824  16.877  0.00  0.00    +0.000 A 
ATOM     28  S   UNL     1      50.237   5.958  18.344  0.00  0.00    +0.000 S 
ATOM     29  C   UNL     1      49.014   4.879  17.860  0.00  0.00    +0.000 A 
ATOM     30  N   UNL     1      48.627   3.851  18.661  0.00  0.00    +0.000 NA
ATOM     31  C   UNL     1      47.705   3.099  18.163  0.00  0.00    +0.000 A 
ATOM     32  N   UNL     1      47.126   3.282  16.928  0.00  0.00    +0.000 N 
ATOM     33  C   UNL     1      47.468   4.322  16.099  0.00  0.00    +0.000 A 
ATOM     34  O   UNL     1      46.896   4.492  15.024  0.00  0.00    +0.000 OA
ATOM     35  C   UNL     1      48.512   5.189  16.609  0.00  0.00    +0.000 A 
ATOM     36  H   UNL     1      46.399   2.667  16.605  0.00  0.00    +0.000 HD
ENDBRANCH  23  26
ENDBRANCH  21  22
ENDBRANCH   4  21
TORSDOF 9
ENDMDL
MODEL 2
REMARK VINA RESULT:    -8.000      1.639      1.877
REMARK INTER + INTRA:         -13.086
REMARK INTER:                 -12.261
REMARK INTRA:                  -0.825
REMARK UNBOUND:                -1.111
REMARK  Name = 
REMARK  9 active torsions:
REMARK  status: ('A' for Active; 'I' for Inactive)
REMARK    1  A    between atoms: N_1  and  C_2
REMARK    2  A    between atoms: C_2  and  C_3
REMARK    3  A    between atoms: C_3  and  N_4
REMARK    4  A    between atoms: C_3  and  C_26
REMARK    5  A    between atoms: N_4  and  C_5
REMARK    6  A    between atoms: C_5  and  C_6
REMARK    7  A    between atoms: C_9  and  C_10
REMARK    8  A    between atoms: C_10  and  N_11
REMARK    9  A    between atoms: C_12  and  C_14
REMARK                            x       y       z     vdW  Elec       q    Type
REMARK                         _______ _______ _______ _____ _____    ______ ____
ROOT
ATOM      1  C   UNL     1      45.005   5.696  11.718  0.00  0.00    +0.000 A 
ATOM      2  C   UNL     1      45.930   6.534  11.098  0.00  0.00    +0.000 A 
ATOM      3  C   UNL     1      47.100   6.868  11.774  0.00  0.00    +0.000 A 
ATOM      4  C   UNL     1      47.315   6.383  13.065  0.00  0.00    +0.000 A 
ATOM      5  C   UNL     1      46.333   5.559  13.608  0.00  0.00    +0.000 A 
ATOM      6  N   UNL     1      45.194   5.202  12.968  0.00  0.00    +0.000 NA
ENDROOT
BRANCH   1   7
ATOM      7  C   UNL     1      43.752   5.274  10.974  0.00  0.00    +0.000 C 
BRANCH   7   8
ATOM      8  N   UNL     1      44.053   4.756   9.638  0.00  0.00    +0.000 NA
ATOM      9  H   UNL     1      43.274   5.040   9.033  0.00  0.00    +0.000 HD
BRANCH   8  10
ATOM     10  C   UNL     1      44.122   3.274   9.601  0.00  0.00    +0.000 C 
BRANCH  10  11
ATOM     11  C   UNL     1      45.254   2.813   8.676  0.00  0.00    +0.000 A 
ATOM     12  C   UNL     1      45.845   3.694   7.768  0.00  0.00    +0.000 A 
ATOM     13  C   UNL     1      46.849   3.238   6.920  0.00  0.00    +0.000 A 
ATOM     14  C   UNL     1      47.226   1.905   6.976  0.00  0.00    +0.000 A 
ATOM     15  C   UNL     1      46.581   1.084   7.886  0.00  0.00    +0.000 A 
ATOM     16  N   UNL     1      45.613   1.502   8.735  0.00  0.00    +0.000 NA
ENDBRANCH  10  11
BRANCH  10  17
ATOM     17  C   UNL     1      44.225   2.608  11.016  0.00  0.00    +0.000 C 
BRANCH  17  18
ATOM     18  N   UNL     1      42.982   2.031  11.549  0.00  0.00    +0.000 NA
ATOM     19  H   UNL     1      42.436   2.745  12.022  0.00  0.00    +0.000 HD
ATOM     20  H   UNL     1      43.216   1.304  12.225  0.00  0.00    +0.000 HD
ENDBRANCH  17  18
ENDBRANCH  10  17
ENDBRANCH   8  10
ENDBRANCH   7   8
ENDBRANCH   1   7
BRANCH   4  21
ATOM     21  C   UNL     1      48.576   6.681  13.820  0.00  0.00    +0.000 C 
BRANCH  21  22
ATOM     22  N   UNL     1      48.349   6.627  15.241  0.00  0.00    +0.000 N 
ATOM     23  C   UNL     1      49.062   7.401  16.120  0.00  0.00    +0.000 C 
ATOM     24  O   UNL     1      49.919   8.197  15.747  0.00  0.00    +0.000 OA
ATOM     25  H   UNL     1      47.853   5.816  15.595  0.00  0.00    +0.000 HD
BRANCH  23  26
ATOM     26  C   UNL     1      48.693   7.271  17.535  0.00  0.00    +0.000 A 
ATOM     27  C   UNL     1      48.222   8.373  18.234  0.00  0.00    +0.000 A 
ATOM     28  S   UNL     1      47.794   8.023  19.850  0.00  0.00    +0.000 S 
ATOM     29  C   UNL     1      48.271   6.399  19.682  0.00  0.00    +0.000 A 
ATOM     30  N   UNL     1      48.190   5.532  20.727  0.00  0.00    +0.000 NA
ATOM     31  C   UNL     1      48.603   4.338  20.466  0.00  0.00    +0.000 A 
ATOM     32  N   UNL     1      49.091   3.925  19.249  0.00  0.00    +0.000 N 
ATOM     33  C   UNL     1      49.165   4.760  18.161  0.00  0.00    +0.000 A 
ATOM     34  O   UNL     1      49.555   4.349  17.070  0.00  0.00    +0.000 OA
ATOM     35  C   UNL     1      48.726   6.119  18.406  0.00  0.00    +0.000 A 
ATOM     36  H   UNL     1      49.382   2.972  19.107  0.00  0.00    +0.000 HD
ENDBRANCH  23  26
ENDBRANCH  21  22
ENDBRANCH   4  21
TORSDOF 9
ENDMDL
MODEL 3
REMARK VINA RESULT:    -7.532      2.077      2.842
REMARK INTER + INTRA:         -12.386
REMARK INTER:                 -11.452
REMARK INTRA:                  -0.934
REMARK UNBOUND:                -1.111
REMARK  Name = 
REMARK  9 active torsions:
REMARK  status: ('A' for Active; 'I' for Inactive)
REMARK    1  A    between atoms: N_1  and  C_2
REMARK    2  A    between atoms: C_2  and  C_3
REMARK    3  A    between atoms: C_3  and  N_4
REMARK    4  A    between atoms: C_3  and  C_26
REMARK    5  A    between atoms: N_4  and  C_5
REMARK    6  A    between atoms: C_5  and  C_6
REMARK    7  A    between atoms: C_9  and  C_10
REMARK    8  A    between atoms: C_10  and  N_11
REMARK    9  A    between atoms: C_12  and  C_14
REMARK                            x       y       z     vdW  Elec       q    Type
REMARK                         _______ _______ _______ _____ _____    ______ ____
ROOT
ATOM      1  C   UNL     1      44.612   6.362  11.860  0.00  0.00    +0.000 A 
ATOM      2  C   UNL     1      44.733   7.745  11.739  0.00  0.00    +0.000 A 
ATOM      3  C   UNL     1      45.772   8.395  12.400  0.00  0.00    +0.000 A 
ATOM      4  C   UNL     1      46.655   7.658  13.191  0.00  0.00    +0.000 A 
ATOM      5  C   UNL     1      46.453   6.282  13.259  0.00  0.00    +0.000 A 
ATOM      6  N   UNL     1      45.463   5.621  12.614  0.00  0.00    +0.000 NA
ENDROOT
BRANCH   1   7
ATOM      7  C   UNL     1      43.521   5.630  11.101  0.00  0.00    +0.000 C 
BRANCH   7   8
ATOM      8  N   UNL     1      43.992   5.131   9.807  0.00  0.00    +0.000 NA
ATOM      9  H   UNL     1      43.321   5.462   9.106  0.00  0.00    +0.000 HD
BRANCH   8  10
ATOM     10  C   UNL     1      44.007   3.648   9.738  0.00  0.00    +0.000 C 
BRANCH  10  11
ATOM     11  C   UNL     1      45.081   3.170   8.754  0.00  0.00    +0.000 A 
ATOM     12  C   UNL     1      45.530   1.848   8.765  0.00  0.00    +0.000 A 
ATOM     13  C   UNL     1      46.528   1.452   7.881  0.00  0.00    +0.000 A 
ATOM     14  C   UNL     1      47.077   2.390   7.019  0.00  0.00    +0.000 A 
ATOM     15  C   UNL     1      46.597   3.688   7.078  0.00  0.00    +0.000 A 
ATOM     16  N   UNL     1      45.617   4.098   7.916  0.00  0.00    +0.000 NA
ENDBRANCH  10  11
BRANCH  10  17
ATOM     17  C   UNL     1      44.148   2.949  11.132  0.00  0.00    +0.000 C 
BRANCH  17  18
ATOM     18  N   UNL     1      43.005   2.130  11.562  0.00  0.00    +0.000 NA
ATOM     19  H   UNL     1      42.499   1.780  10.754  0.00  0.00    +0.000 HD
ATOM     20  H   UNL     1      42.371   2.708  12.114  0.00  0.00    +0.000 HD
ENDBRANCH  17  18
ENDBRANCH  10  17
ENDBRANCH   8  10
ENDBRANCH   7   8
ENDBRANCH   1   7
BRANCH   4  21
ATOM     21  C   UNL     1      47.813   8.304  13.891  0.00  0.00    +0.000 C 
BRANCH  21  22
ATOM     22  N   UNL     1      47.899   7.860  15.258  0.00  0.00    +0.000 N 
ATOM     23  C   UNL     1      48.909   7.041  15.693  0.00  0.00    +0.000 C 
ATOM     24  O   UNL     1      49.807   6.656  14.950  0.00  0.00    +0.000 OA
ATOM     25  H   UNL     1      47.057   7.938  15.820  0.00  0.00    +0.000 HD
BRANCH  23  26
ATOM     26  C   UNL     1      48.893   6.704  17.122  0.00  0.00    +0.000 A 
ATOM     27  C   UNL     1      48.856   5.377  17.522  0.00  0.00    +0.000 A 
ATOM     28  S   UNL     1      48.894   5.174  19.217  0.00  0.00    +0.000 S 
ATOM     29  C   UNL     1      48.912   6.856  19.473  0.00  0.00    +0.000 A 
ATOM     30  N   UNL     1      48.919   7.375  20.729  0.00  0.00    +0.000 NA
ATOM     31  C   UNL     1      48.912   8.664  20.777  0.00  0.00    +0.000 A 
ATOM     32  N   UNL     1      48.902   9.491  19.678  0.00  0.00    +0.000 N 
ATOM     33  C   UNL     1      48.922   9.008  18.392  0.00  0.00    +0.000 A 
ATOM     34  O   UNL     1      48.967   9.770  17.428  0.00  0.00    +0.000 OA
ATOM     35  C   UNL     1      48.915   7.563  18.284  0.00  0.00    +0.000 A 
ATOM     36  H   UNL     1      48.914  10.491  19.785  0.00  0.00    +0.000 HD
ENDBRANCH  23  26
ENDBRANCH  21  22
ENDBRANCH   4  21
TORSDOF 9
ENDMDL
MODEL 4
REMARK VINA RESULT:    -7.271      3.090      7.872
REMARK INTER + INTRA:         -11.996
REMARK INTER:                 -10.577
REMARK INTRA:                  -1.419
REMARK UNBOUND:                -1.111
REMARK  Name = 
REMARK  9 active torsions:
REMARK  status: ('A' for Active; 'I' for Inactive)
REMARK    1  A    between atoms: N_1  and  C_2
REMARK    2  A    between atoms: C_2  and  C_3
REMARK    3  A    between atoms: C_3  and  N_4
REMARK    4  A    between atoms: C_3  and  C_26
REMARK    5  A    between atoms: N_4  and  C_5
REMARK    6  A    between atoms: C_5  and  C_6
REMARK    7  A    between atoms: C_9  and  C_10
REMARK    8  A    between atoms: C_10  and  N_11
REMARK    9  A    between atoms: C_12  and  C_14
REMARK                            x       y       z     vdW  Elec       q    Type
REMARK                         _______ _______ _______ _____ _____    ______ ____
ROOT
ATOM      1  C   UNL     1      48.770   7.453  16.172  0.00  0.00    +0.000 A 
ATOM      2  C   UNL     1      48.359   8.708  15.726  0.00  0.00    +0.000 A 
ATOM      3  C   UNL     1      48.207   8.923  14.359  0.00  0.00    +0.000 A 
ATOM      4  C   UNL     1      48.492   7.893  13.461  0.00  0.00    +0.000 A 
ATOM      5  C   UNL     1      48.903   6.676  13.997  0.00  0.00    +0.000 A 
ATOM      6  N   UNL     1      49.042   6.431  15.321  0.00  0.00    +0.000 NA
ENDROOT
BRANCH   1   7
ATOM      7  C   UNL     1      48.885   7.182  17.661  0.00  0.00    +0.000 C 
BRANCH   7   8
ATOM      8  N   UNL     1      47.580   6.937  18.278  0.00  0.00    +0.000 NA
ATOM      9  H   UNL     1      47.440   7.684  18.968  0.00  0.00    +0.000 HD
BRANCH   8  10
ATOM     10  C   UNL     1      47.526   5.647  19.009  0.00  0.00    +0.000 C 
BRANCH  10  11
ATOM     11  C   UNL     1      48.052   4.509  18.126  0.00  0.00    +0.000 A 
ATOM     12  C   UNL     1      47.258   3.950  17.123  0.00  0.00    +0.000 A 
ATOM     13  C   UNL     1      47.753   2.898  16.359  0.00  0.00    +0.000 A 
ATOM     14  C   UNL     1      49.022   2.407  16.628  0.00  0.00    +0.000 A 
ATOM     15  C   UNL     1      49.744   2.997  17.652  0.00  0.00    +0.000 A 
ATOM     16  N   UNL     1      49.296   4.031  18.401  0.00  0.00    +0.000 NA
ENDBRANCH  10  11
BRANCH  10  17
ATOM     17  C   UNL     1      48.241   5.675  20.402  0.00  0.00    +0.000 C 
BRANCH  17  18
ATOM     18  N   UNL     1      48.272   4.403  21.138  0.00  0.00    +0.000 NA
ATOM     19  H   UNL     1      47.739   4.480  21.999  0.00  0.00    +0.000 HD
ATOM     20  H   UNL     1      49.239   4.180  21.377  0.00  0.00    +0.000 HD
ENDBRANCH  17  18
ENDBRANCH  10  17
ENDBRANCH   8  10
ENDBRANCH   7   8
ENDBRANCH   1   7
BRANCH   4  21
ATOM     21  C   UNL     1      48.305   8.063  11.982  0.00  0.00    +0.000 C 
BRANCH  21  22
ATOM     22  N   UNL     1      47.583   6.948  11.425  0.00  0.00    +0.000 N 
ATOM     23  C   UNL     1      46.213   6.892  11.435  0.00  0.00    +0.000 C 
ATOM     24  O   UNL     1      45.525   7.795  11.901  0.00  0.00    +0.000 OA
ATOM     25  H   UNL     1      48.107   6.091  11.277  0.00  0.00    +0.000 HD
BRANCH  23  26
ATOM     26  C   UNL     1      45.614   5.716  10.794  0.00  0.00    +0.000 A 
ATOM     27  C   UNL     1      45.764   5.515   9.430  0.00  0.00    +0.000 A 
ATOM     28  S   UNL     1      45.046   4.072   8.869  0.00  0.00    +0.000 S 
ATOM     29  C   UNL     1      44.467   3.692  10.424  0.00  0.00    +0.000 A 
ATOM     30  N   UNL     1      43.729   2.571  10.643  0.00  0.00    +0.000 NA
ATOM     31  C   UNL     1      43.339   2.417  11.863  0.00  0.00    +0.000 A 
ATOM     32  N   UNL     1      43.622   3.283  12.894  0.00  0.00    +0.000 N 
ATOM     33  C   UNL     1      44.387   4.410  12.721  0.00  0.00    +0.000 A 
ATOM     34  O   UNL     1      44.669   5.138  13.671  0.00  0.00    +0.000 OA
ATOM     35  C   UNL     1      44.838   4.638  11.363  0.00  0.00    +0.000 A 
ATOM     36  H   UNL     1      43.300   3.094  13.828  0.00  0.00    +0.000 HD
ENDBRANCH  23  26
ENDBRANCH  21  22
ENDBRANCH   4  21
TORSDOF 9
ENDMDL
MODEL 5
REMARK VINA RESULT:    -7.251      2.076      2.997
REMARK INTER + INTRA:         -11.965
REMARK INTER:                 -10.898
REMARK INTRA:                  -1.067
REMARK UNBOUND:                -1.111
REMARK  Name = 
REMARK  9 active torsions:
REMARK  status: ('A' for Active; 'I' for Inactive)
REMARK    1  A    between atoms: N_1  and  C_2
REMARK    2  A    between atoms: C_2  and  C_3
REMARK    3  A    between atoms: C_3  and  N_4
REMARK    4  A    between atoms: C_3  and  C_26
REMARK    5  A    between atoms: N_4  and  C_5
REMARK    6  A    between atoms: C_5  and  C_6
REMARK    7  A    between atoms: C_9  and  C_10
REMARK    8  A    between atoms: C_10  and  N_11
REMARK    9  A    between atoms: C_12  and  C_14
REMARK                            x       y       z     vdW  Elec       q    Type
REMARK                         _______ _______ _______ _____ _____    ______ ____
ROOT
ATOM      1  C   UNL     1      44.915   6.382  11.889  0.00  0.00    +0.000 A 
ATOM      2  C   UNL     1      45.829   5.655  12.648  0.00  0.00    +0.000 A 
ATOM      3  C   UNL     1      46.813   6.336  13.359  0.00  0.00    +0.000 A 
ATOM      4  C   UNL     1      46.884   7.728  13.280  0.00  0.00    +0.000 A 
ATOM      5  C   UNL     1      45.933   8.371  12.493  0.00  0.00    +0.000 A 
ATOM      6  N   UNL     1      44.954   7.737  11.805  0.00  0.00    +0.000 NA
ENDROOT
BRANCH   1   7
ATOM      7  C   UNL     1      43.800   5.661  11.154  0.00  0.00    +0.000 C 
BRANCH   7   8
ATOM      8  N   UNL     1      44.229   5.180   9.840  0.00  0.00    +0.000 NA
ATOM      9  H   UNL     1      43.592   5.600   9.154  0.00  0.00    +0.000 HD
BRANCH   8  10
ATOM     10  C   UNL     1      44.114   3.706   9.705  0.00  0.00    +0.000 C 
BRANCH  10  11
ATOM     11  C   UNL     1      45.139   3.179   8.693  0.00  0.00    +0.000 A 
ATOM     12  C   UNL     1      45.589   1.859   8.746  0.00  0.00    +0.000 A 
ATOM     13  C   UNL     1      46.542   1.420   7.834  0.00  0.00    +0.000 A 
ATOM     14  C   UNL     1      47.047   2.314   6.902  0.00  0.00    +0.000 A 
ATOM     15  C   UNL     1      46.570   3.614   6.922  0.00  0.00    +0.000 A 
ATOM     16  N   UNL     1      45.631   4.065   7.786  0.00  0.00    +0.000 NA
ENDBRANCH  10  11
BRANCH  10  17
ATOM     17  C   UNL     1      44.196   2.936  11.066  0.00  0.00    +0.000 C 
BRANCH  17  18
ATOM     18  N   UNL     1      42.996   2.179  11.453  0.00  0.00    +0.000 NA
ATOM     19  H   UNL     1      42.343   2.133  10.677  0.00  0.00    +0.000 HD
ATOM     20  H   UNL     1      42.539   2.655  12.231  0.00  0.00    +0.000 HD
ENDBRANCH  17  18
ENDBRANCH  10  17
ENDBRANCH   8  10
ENDBRANCH   7   8
ENDBRANCH   1   7
BRANCH   4  21
ATOM     21  C   UNL     1      47.899   8.511  14.058  0.00  0.00    +0.000 C 
BRANCH  21  22
ATOM     22  N   UNL     1      48.795   7.631  14.763  0.00  0.00    +0.000 N 
ATOM     23  C   UNL     1      48.990   7.726  16.117  0.00  0.00    +0.000 C 
ATOM     24  O   UNL     1      48.400   8.551  16.808  0.00  0.00    +0.000 OA
ATOM     25  H   UNL     1      49.478   7.129  14.205  0.00  0.00    +0.000 HD
BRANCH  23  26
ATOM     26  C   UNL     1      49.900   6.736  16.706  0.00  0.00    +0.000 A 
ATOM     27  C   UNL     1      49.421   5.809  17.620  0.00  0.00    +0.000 A 
ATOM     28  S   UNL     1      50.607   4.705  18.158  0.00  0.00    +0.000 S 
ATOM     29  C   UNL     1      51.812   5.461  17.224  0.00  0.00    +0.000 A 
ATOM     30  N   UNL     1      53.098   5.019  17.246  0.00  0.00    +0.000 NA
ATOM     31  C   UNL     1      53.910   5.694  16.507  0.00  0.00    +0.000 A 
ATOM     32  N   UNL     1      53.555   6.778  15.738  0.00  0.00    +0.000 N 
ATOM     33  C   UNL     1      52.263   7.240  15.666  0.00  0.00    +0.000 A 
ATOM     34  O   UNL     1      51.965   8.178  14.929  0.00  0.00    +0.000 OA
ATOM     35  C   UNL     1      51.313   6.523  16.492  0.00  0.00    +0.000 A 
ATOM     36  H   UNL     1      54.236   7.252  15.170  0.00  0.00    +0.000 HD
ENDBRANCH  23  26
ENDBRANCH  21  22
ENDBRANCH   4  21
TORSDOF 9
ENDMDL
MODEL 6
REMARK VINA RESULT:    -7.056      2.831      8.395
REMARK INTER + INTRA:         -11.673
REMARK INTER:                 -10.089
REMARK INTRA:                  -1.584
REMARK UNBOUND:                -1.111
REMARK  Name = 
REMARK  9 active torsions:
REMARK  status: ('A' for Active; 'I' for Inactive)
REMARK    1  A    between atoms: N_1  and  C_2
REMARK    2  A    between atoms: C_2  and  C_3
REMARK    3  A    between atoms: C_3  and  N_4
REMARK    4  A    between atoms: C_3  and  C_26
REMARK    5  A    between atoms: N_4  and  C_5
REMARK    6  A    between atoms: C_5  and  C_6
REMARK    7  A    between atoms: C_9  and  C_10
REMARK    8  A    between atoms: C_10  and  N_11
REMARK    9  A    between atoms: C_12  and  C_14
REMARK                            x       y       z     vdW  Elec       q    Type
REMARK                         _______ _______ _______ _____ _____    ______ ____
ROOT
ATOM      1  C   UNL     1      49.181   7.669  16.023  0.00  0.00    +0.000 A 
ATOM      2  C   UNL     1      48.406   8.774  15.677  0.00  0.00    +0.000 A 
ATOM      3  C   UNL     1      47.833   8.829  14.410  0.00  0.00    +0.000 A 
ATOM      4  C   UNL     1      48.063   7.794  13.502  0.00  0.00    +0.000 A 
ATOM      5  C   UNL     1      48.856   6.734  13.932  0.00  0.00    +0.000 A 
ATOM      6  N   UNL     1      49.412   6.644  15.163  0.00  0.00    +0.000 NA
ENDROOT
BRANCH   1   7
ATOM      7  C   UNL     1      49.767   7.564  17.419  0.00  0.00    +0.000 C 
BRANCH   7   8
ATOM      8  N   UNL     1      48.737   7.323  18.431  0.00  0.00    +0.000 NA
ATOM      9  H   UNL     1      48.806   8.092  19.106  0.00  0.00    +0.000 HD
BRANCH   8  10
ATOM     10  C   UNL     1      48.954   6.059  19.178  0.00  0.00    +0.000 C 
BRANCH  10  11
ATOM     11  C   UNL     1      48.708   4.849  18.268  0.00  0.00    +0.000 A 
ATOM     12  C   UNL     1      47.457   4.627  17.689  0.00  0.00    +0.000 A 
ATOM     13  C   UNL     1      47.258   3.504  16.893  0.00  0.00    +0.000 A 
ATOM     14  C   UNL     1      48.303   2.611  16.711  0.00  0.00    +0.000 A 
ATOM     15  C   UNL     1      49.509   2.885  17.333  0.00  0.00    +0.000 A 
ATOM     16  N   UNL     1      49.738   3.977  18.099  0.00  0.00    +0.000 NA
ENDBRANCH  10  11
BRANCH  10  17
ATOM     17  C   UNL     1      50.347   5.973  19.889  0.00  0.00    +0.000 C 
BRANCH  17  18
ATOM     18  N   UNL     1      50.554   4.811  20.765  0.00  0.00    +0.000 NA
ATOM     19  H   UNL     1      51.546   4.619  20.868  0.00  0.00    +0.000 HD
ATOM     20  H   UNL     1      50.110   3.994  20.346  0.00  0.00    +0.000 HD
ENDBRANCH  17  18
ENDBRANCH  10  17
ENDBRANCH   8  10
ENDBRANCH   7   8
ENDBRANCH   1   7
BRANCH   4  21
ATOM     21  C   UNL     1      47.436   7.787  12.139  0.00  0.00    +0.000 C 
BRANCH  21  22
ATOM     22  N   UNL     1      46.748   6.545  11.898  0.00  0.00    +0.000 N 
ATOM     23  C   UNL     1      45.383   6.482  11.778  0.00  0.00    +0.000 C 
ATOM     24  O   UNL     1      44.673   7.480  11.850  0.00  0.00    +0.000 OA
ATOM     25  H   UNL     1      47.261   5.691  12.092  0.00  0.00    +0.000 HD
BRANCH  23  26
ATOM     26  C   UNL     1      44.824   5.156  11.491  0.00  0.00    +0.000 A 
ATOM     27  C   UNL     1      44.068   4.498  12.450  0.00  0.00    +0.000 A 
ATOM     28  S   UNL     1      43.457   2.993  11.923  0.00  0.00    +0.000 S 
ATOM     29  C   UNL     1      44.225   3.149  10.412  0.00  0.00    +0.000 A 
ATOM     30  N   UNL     1      44.130   2.171   9.472  0.00  0.00    +0.000 NA
ATOM     31  C   UNL     1      44.776   2.411   8.382  0.00  0.00    +0.000 A 
ATOM     32  N   UNL     1      45.513   3.546   8.140  0.00  0.00    +0.000 N 
ATOM     33  C   UNL     1      45.613   4.569   9.051  0.00  0.00    +0.000 A 
ATOM     34  O   UNL     1      46.235   5.597   8.786  0.00  0.00    +0.000 OA
ATOM     35  C   UNL     1      44.916   4.342  10.300  0.00  0.00    +0.000 A 
ATOM     36  H   UNL     1      45.981   3.678   7.259  0.00  0.00    +0.000 HD
ENDBRANCH  23  26
ENDBRANCH  21  22
ENDBRANCH   4  21
TORSDOF 9
ENDMDL
MODEL 7
REMARK VINA RESULT:    -6.822      3.133      8.078
REMARK INTER + INTRA:         -11.324
REMARK INTER:                  -9.809
REMARK INTRA:                  -1.515
REMARK UNBOUND:                -1.111
REMARK  Name = 
REMARK  9 active torsions:
REMARK  status: ('A' for Active; 'I' for Inactive)
REMARK    1  A    between atoms: N_1  and  C_2
REMARK    2  A    between atoms: C_2  and  C_3
REMARK    3  A    between atoms: C_3  and  N_4
REMARK    4  A    between atoms: C_3  and  C_26
REMARK    5  A    between atoms: N_4  and  C_5
REMARK    6  A    between atoms: C_5  and  C_6
REMARK    7  A    between atoms: C_9  and  C_10
REMARK    8  A    between atoms: C_10  and  N_11
REMARK    9  A    between atoms: C_12  and  C_14
REMARK                            x       y       z     vdW  Elec       q    Type
REMARK                         _______ _______ _______ _____ _____    ______ ____
ROOT
ATOM      1  C   UNL     1      50.543   7.132  15.373  0.00  0.00    +0.000 A 
ATOM      2  C   UNL     1      51.083   8.032  14.458  0.00  0.00    +0.000 A 
ATOM      3  C   UNL     1      50.347   8.370  13.325  0.00  0.00    +0.000 A 
ATOM      4  C   UNL     1      49.098   7.785  13.113  0.00  0.00    +0.000 A 
ATOM      5  C   UNL     1      48.641   6.891  14.077  0.00  0.00    +0.000 A 
ATOM      6  N   UNL     1      49.326   6.557  15.197  0.00  0.00    +0.000 NA
ENDROOT
BRANCH   1   7
ATOM      7  C   UNL     1      51.305   6.795  16.642  0.00  0.00    +0.000 C 
BRANCH   7   8
ATOM      8  N   UNL     1      51.646   5.374  16.719  0.00  0.00    +0.000 NA
ATOM      9  H   UNL     1      51.152   4.914  15.946  0.00  0.00    +0.000 HD
BRANCH   8  10
ATOM     10  C   UNL     1      51.180   4.741  17.978  0.00  0.00    +0.000 C 
BRANCH  10  11
ATOM     11  C   UNL     1      49.785   4.134  17.789  0.00  0.00    +0.000 A 
ATOM     12  C   UNL     1      48.767   4.366  18.715  0.00  0.00    +0.000 A 
ATOM     13  C   UNL     1      47.521   3.776  18.532  0.00  0.00    +0.000 A 
ATOM     14  C   UNL     1      47.323   2.945  17.440  0.00  0.00    +0.000 A 
ATOM     15  C   UNL     1      48.384   2.743  16.574  0.00  0.00    +0.000 A 
ATOM     16  N   UNL     1      49.602   3.316  16.717  0.00  0.00    +0.000 NA
ENDBRANCH  10  11
BRANCH  10  17
ATOM     17  C   UNL     1      52.187   3.701  18.576  0.00  0.00    +0.000 C 
BRANCH  17  18
ATOM     18  N   UNL     1      51.956   2.296  18.209  0.00  0.00    +0.000 NA
ATOM     19  H   UNL     1      52.811   1.880  17.850  0.00  0.00    +0.000 HD
ATOM     20  H   UNL     1      51.246   2.255  17.478  0.00  0.00    +0.000 HD
ENDBRANCH  17  18
ENDBRANCH  10  17
ENDBRANCH   8  10
ENDBRANCH   7   8
ENDBRANCH   1   7
BRANCH   4  21
ATOM     21  C   UNL     1      48.249   8.146  11.930  0.00  0.00    +0.000 C 
BRANCH  21  22
ATOM     22  N   UNL     1      47.548   6.992  11.431  0.00  0.00    +0.000 N 
ATOM     23  C   UNL     1      46.179   6.942  11.375  0.00  0.00    +0.000 C 
ATOM     24  O   UNL     1      45.474   7.882  11.729  0.00  0.00    +0.000 OA
ATOM     25  H   UNL     1      48.071   6.124  11.381  0.00  0.00    +0.000 HD
BRANCH  23  26
ATOM     26  C   UNL     1      45.604   5.719  10.804  0.00  0.00    +0.000 A 
ATOM     27  C   UNL     1      45.790   5.424   9.461  0.00  0.00    +0.000 A 
ATOM     28  S   UNL     1      45.096   3.939   8.985  0.00  0.00    +0.000 S 
ATOM     29  C   UNL     1      44.481   3.664  10.548  0.00  0.00    +0.000 A 
ATOM     30  N   UNL     1      43.745   2.555  10.827  0.00  0.00    +0.000 NA
ATOM     31  C   UNL     1      43.326   2.482  12.044  0.00  0.00    +0.000 A 
ATOM     32  N   UNL     1      43.577   3.420  13.019  0.00  0.00    +0.000 N 
ATOM     33  C   UNL     1      44.338   4.539  12.786  0.00  0.00    +0.000 A 
ATOM     34  O   UNL     1      44.591   5.334  13.690  0.00  0.00    +0.000 OA
ATOM     35  C   UNL     1      44.821   4.676  11.427  0.00  0.00    +0.000 A 
ATOM     36  H   UNL     1      43.233   3.294  13.956  0.00  0.00    +0.000 HD
ENDBRANCH  23  26
ENDBRANCH  21  22
ENDBRANCH   4  21
TORSDOF 9
ENDMDL
MODEL 8
REMARK VINA RESULT:    -6.731      5.227      7.054
REMARK INTER + INTRA:         -11.187
REMARK INTER:                 -10.124
REMARK INTRA:                  -1.063
REMARK UNBOUND:                -1.111
REMARK  Name = 
REMARK  9 active torsions:
REMARK  status: ('A' for Active; 'I' for Inactive)
REMARK    1  A    between atoms: N_1  and  C_2
REMARK    2  A    between atoms: C_2  and  C_3
REMARK    3  A    between atoms: C_3  and  N_4
REMARK    4  A    between atoms: C_3  and  C_26
REMARK    5  A    between atoms: N_4  and  C_5
REMARK    6  A    between atoms: C_5  and  C_6
REMARK    7  A    between atoms: C_9  and  C_10
REMARK    8  A    between atoms: C_10  and  N_11
REMARK    9  A    between atoms: C_12  and  C_14
REMARK                            x       y       z     vdW  Elec       q    Type
REMARK                         _______ _______ _______ _____ _____    ______ ____
ROOT
ATOM      1  C   UNL     1      47.064   7.430  12.469  0.00  0.00    +0.000 A 
ATOM      2  C   UNL     1      47.393   8.728  12.085  0.00  0.00    +0.000 A 
ATOM      3  C   UNL     1      48.732   9.060  11.897  0.00  0.00    +0.000 A 
ATOM      4  C   UNL     1      49.720   8.099  12.119  0.00  0.00    +0.000 A 
ATOM      5  C   UNL     1      49.299   6.830  12.507  0.00  0.00    +0.000 A 
ATOM      6  N   UNL     1      48.004   6.474  12.681  0.00  0.00    +0.000 NA
ENDROOT
BRANCH   1   7
ATOM      7  C   UNL     1      45.607   7.034  12.623  0.00  0.00    +0.000 C 
BRANCH   7   8
ATOM      8  N   UNL     1      45.386   5.619  12.318  0.00  0.00    +0.000 NA
ATOM      9  H   UNL     1      46.260   5.270  11.909  0.00  0.00    +0.000 HD
BRANCH   8  10
ATOM     10  C   UNL     1      44.314   5.412  11.313  0.00  0.00    +0.000 C 
BRANCH  10  11
ATOM     11  C   UNL     1      44.812   4.510  10.177  0.00  0.00    +0.000 A 
ATOM     12  C   UNL     1      45.620   5.017   9.157  0.00  0.00    +0.000 A 
ATOM     13  C   UNL     1      46.030   4.181   8.124  0.00  0.00    +0.000 A 
ATOM     14  C   UNL     1      45.605   2.861   8.115  0.00  0.00    +0.000 A 
ATOM     15  C   UNL     1      44.788   2.433   9.148  0.00  0.00    +0.000 A 
ATOM     16  N   UNL     1      44.386   3.218  10.175  0.00  0.00    +0.000 NA
ENDBRANCH  10  11
BRANCH  10  17
ATOM     17  C   UNL     1      42.969   4.887  11.919  0.00  0.00    +0.000 C 
BRANCH  17  18
ATOM     18  N   UNL     1      42.624   5.391  13.257  0.00  0.00    +0.000 NA
ATOM     19  H   UNL     1      43.143   4.885  13.969  0.00  0.00    +0.000 HD
ATOM     20  H   UNL     1      41.628   5.246  13.421  0.00  0.00    +0.000 HD
ENDBRANCH  17  18
ENDBRANCH  10  17
ENDBRANCH   8  10
ENDBRANCH   7   8
ENDBRANCH   1   7
BRANCH   4  21
ATOM     21  C   UNL     1      51.173   8.395  11.891  0.00  0.00    +0.000 C 
BRANCH  21  22
ATOM     22  N   UNL     1      51.552   8.089  10.536  0.00  0.00    +0.000 N 
ATOM     23  C   UNL     1      52.642   8.667   9.939  0.00  0.00    +0.000 C 
ATOM     24  O   UNL     1      53.367   9.462  10.529  0.00  0.00    +0.000 OA
ATOM     25  H   UNL     1      50.846   7.654   9.949  0.00  0.00    +0.000 HD
BRANCH  23  26
ATOM     26  C   UNL     1      52.933   8.228   8.569  0.00  0.00    +0.000 A 
ATOM     27  C   UNL     1      52.866   9.133   7.520  0.00  0.00    +0.000 A 
ATOM     28  S   UNL     1      53.286   8.459   6.009  0.00  0.00    +0.000 S 
ATOM     29  C   UNL     1      53.523   6.922   6.699  0.00  0.00    +0.000 A 
ATOM     30  N   UNL     1      53.877   5.855   5.933  0.00  0.00    +0.000 NA
ATOM     31  C   UNL     1      54.004   4.748   6.582  0.00  0.00    +0.000 A 
ATOM     32  N   UNL     1      53.812   4.605   7.937  0.00  0.00    +0.000 N 
ATOM     33  C   UNL     1      53.481   5.661   8.750  0.00  0.00    +0.000 A 
ATOM     34  O   UNL     1      53.368   5.515   9.966  0.00  0.00    +0.000 OA
ATOM     35  C   UNL     1      53.311   6.927   8.066  0.00  0.00    +0.000 A 
ATOM     36  H   UNL     1      53.943   3.714   8.384  0.00  0.00    +0.000 HD
ENDBRANCH  23  26
ENDBRANCH  21  22
ENDBRANCH   4  21
TORSDOF 9
ENDMDL
MODEL 9
REMARK VINA RESULT:    -6.728      3.168      8.161
REMARK INTER + INTRA:         -11.182
REMARK INTER:                 -10.137
REMARK INTRA:                  -1.045
REMARK UNBOUND:                -1.111
REMARK  Name = 
REMARK  9 active torsions:
REMARK  status: ('A' for Active; 'I' for Inactive)
REMARK    1  A    between atoms: N_1  and  C_2
REMARK    2  A    between atoms: C_2  and  C_3
REMARK    3  A    between atoms: C_3  and  N_4
REMARK    4  A    between atoms: C_3  and  C_26
REMARK    5  A    between atoms: N_4  and  C_5
REMARK    6  A    between atoms: C_5  and  C_6
REMARK    7  A    between atoms: C_9  and  C_10
REMARK    8  A    between atoms: C_10  and  N_11
REMARK    9  A    between atoms: C_12  and  C_14
REMARK                            x       y       z     vdW  Elec       q    Type
REMARK                         _______ _______ _______ _____ _____    ______ ____
ROOT
ATOM      1  C   UNL     1      49.381   7.164  16.052  0.00  0.00    +0.000 A 
ATOM      2  C   UNL     1      49.879   8.320  15.454  0.00  0.00    +0.000 A 
ATOM      3  C   UNL     1      49.523   8.609  14.139  0.00  0.00    +0.000 A 
ATOM      4  C   UNL     1      48.700   7.727  13.437  0.00  0.00    +0.000 A 
ATOM      5  C   UNL     1      48.256   6.594  14.112  0.00  0.00    +0.000 A 
ATOM      6  N   UNL     1      48.570   6.296  15.396  0.00  0.00    +0.000 NA
ENDROOT
BRANCH   1   7
ATOM      7  C   UNL     1      49.710   6.863  17.503  0.00  0.00    +0.000 C 
BRANCH   7   8
ATOM      8  N   UNL     1      50.665   5.761  17.633  0.00  0.00    +0.000 NA
ATOM      9  H   UNL     1      51.209   5.743  16.764  0.00  0.00    +0.000 HD
BRANCH   8  10
ATOM     10  C   UNL     1      50.000   4.440  17.764  0.00  0.00    +0.000 C 
BRANCH  10  11
ATOM     11  C   UNL     1      51.043   3.317  17.806  0.00  0.00    +0.000 A 
ATOM     12  C   UNL     1      52.360   3.572  18.193  0.00  0.00    +0.000 A 
ATOM     13  C   UNL     1      53.291   2.538  18.190  0.00  0.00    +0.000 A 
ATOM     14  C   UNL     1      52.895   1.275  17.777  0.00  0.00    +0.000 A 
ATOM     15  C   UNL     1      51.578   1.101  17.387  0.00  0.00    +0.000 A 
ATOM     16  N   UNL     1      50.646   2.083  17.394  0.00  0.00    +0.000 NA
ENDBRANCH  10  11
BRANCH  10  17
ATOM     17  C   UNL     1      49.004   4.349  18.969  0.00  0.00    +0.000 C 
BRANCH  17  18
ATOM     18  N   UNL     1      48.348   3.047  19.167  0.00  0.00    +0.000 NA
ATOM     19  H   UNL     1      48.684   2.376  18.482  0.00  0.00    +0.000 HD
ATOM     20  H   UNL     1      47.342   3.159  19.042  0.00  0.00    +0.000 HD
ENDBRANCH  17  18
ENDBRANCH  10  17
ENDBRANCH   8  10
ENDBRANCH   7   8
ENDBRANCH   1   7
BRANCH   4  21
ATOM     21  C   UNL     1      48.257   8.013  12.032  0.00  0.00    +0.000 C 
BRANCH  21  22
ATOM     22  N   UNL     1      47.536   6.893  11.484  0.00  0.00    +0.000 N 
ATOM     23  C   UNL     1      46.169   6.893  11.376  0.00  0.00    +0.000 C 
ATOM     24  O   UNL     1      45.484   7.851  11.721  0.00  0.00    +0.000 OA
ATOM     25  H   UNL     1      48.030   6.008  11.438  0.00  0.00    +0.000 HD
BRANCH  23  26
ATOM     26  C   UNL     1      45.574   5.701  10.760  0.00  0.00    +0.000 A 
ATOM     27  C   UNL     1      45.730   5.470   9.401  0.00  0.00    +0.000 A 
ATOM     28  S   UNL     1      45.017   4.012   8.870  0.00  0.00    +0.000 S 
ATOM     29  C   UNL     1      44.433   3.666  10.431  0.00  0.00    +0.000 A 
ATOM     30  N   UNL     1      43.697   2.549  10.673  0.00  0.00    +0.000 NA
ATOM     31  C   UNL     1      43.303   2.420  11.894  0.00  0.00    +0.000 A 
ATOM     32  N   UNL     1      43.581   3.310  12.907  0.00  0.00    +0.000 N 
ATOM     33  C   UNL     1      44.344   4.435  12.711  0.00  0.00    +0.000 A 
ATOM     34  O   UNL     1      44.621   5.184  13.645  0.00  0.00    +0.000 OA
ATOM     35  C   UNL     1      44.799   4.633  11.350  0.00  0.00    +0.000 A 
ATOM     36  H   UNL     1      43.257   3.141  13.844  0.00  0.00    +0.000 HD
ENDBRANCH  23  26
ENDBRANCH  21  22
ENDBRANCH   4  21
TORSDOF 9
ENDMDL
