MODEL 1
REMARK VINA RESULT:    -7.770      0.000      0.000
REMARK INTER + INTRA:          -9.867
REMARK INTER:                  -9.587
REMARK INTRA:                  -0.279
REMARK UNBOUND:                -0.279
REMARK  Name = 
REMARK  5 active torsions:
REMARK  status: ('A' for Active; 'I' for Inactive)
REMARK    1  A    between atoms: N_1  and  C_2
REMARK    2  A    between atoms: C_2  and  C_3
REMARK    3  A    between atoms: N_7  and  C_8
REMARK    4  A    between atoms: C_8  and  C_9
REMARK    5  A    between atoms: C_14  and  O_15
REMARK                            x       y       z     vdW  Elec       q    Type
REMARK                         _______ _______ _______ _____ _____    ______ ____
ROOT
ATOM      1  C   UNL     1      46.445   2.150   7.667  0.00  0.00    +0.000 A 
ATOM      2  C   UNL     1      45.651   1.769   8.747  0.00  0.00    +0.000 A 
ATOM      3  C   UNL     1      44.914   2.726   9.439  0.00  0.00    +0.000 A 
ATOM      4  C   UNL     1      44.962   4.052   9.033  0.00  0.00    +0.000 A 
ATOM      5  N   UNL     1      44.359   5.089   9.686  0.00  0.00    +0.000 N 
ATOM      6  N   UNL     1      45.706   4.434   7.976  0.00  0.00    +0.000 NA
ATOM      7  C   UNL     1      46.434   3.493   7.329  0.00  0.00    +0.000 A 
ATOM      8  H   UNL     1      44.317   5.878   9.050  0.00  0.00    +0.000 HD
ENDROOT
BRANCH   1   9
ATOM      9  C   UNL     1      47.279   1.152   6.922  0.00  0.00    +0.000 C 
BRANCH   9  10
ATOM     10  N   UNL     1      48.353   1.806   6.186  0.00  0.00    +0.000 NA
ATOM     11  H   UNL     1      49.151   1.943   6.804  0.00  0.00    +0.000 HD
ATOM     12  H   UNL     1      48.045   2.735   5.903  0.00  0.00    +0.000 HD
ENDBRANCH   9  10
ENDBRANCH   1   9
BRANCH   5  13
ATOM     13  C   UNL     1      43.382   4.981  10.741  0.00  0.00    +0.000 C 
BRANCH  13  14
ATOM     14  C   UNL     1      43.855   5.663  12.041  0.00  0.00    +0.000 C 
ATOM     15  C   UNL     1      44.904   6.764  11.819  0.00  0.00    +0.000 C 
ATOM     16  C   UNL     1      46.347   6.262  11.805  0.00  0.00    +0.000 C 
ATOM     17  O   UNL     1      46.632   5.434  12.926  0.00  0.00    +0.000 OA
ATOM     18  C   UNL     1      45.793   4.283  12.976  0.00  0.00    +0.000 C 
ATOM     19  C   UNL     1      44.324   4.693  13.142  0.00  0.00    +0.000 C 
BRANCH  19  20
ATOM     20  O   UNL     1      43.467   3.559  13.241  0.00  0.00    +0.000 OA
ATOM     21  H   UNL     1      43.795   2.893  12.609  0.00  0.00    +0.000 HD
ENDBRANCH  19  20
ENDBRANCH  13  14
ENDBRANCH   5  13
TORSDOF 5
ENDMDL
MODEL 2
REMARK VINA RESULT:    -6.909      1.755      2.294
REMARK INTER + INTRA:          -8.804
REMARK INTER:                  -8.914
REMARK INTRA:                   0.109
REMARK UNBOUND:                -0.279
REMARK  Name = 
REMARK  5 active torsions:
REMARK  status: ('A' for Active; 'I' for Inactive)
REMARK    1  A    between atoms: N_1  and  C_2
REMARK    2  A    between atoms: C_2  and  C_3
REMARK    3  A    between atoms: N_7  and  C_8
REMARK    4  A    between atoms: C_8  and  C_9
REMARK    5  A    between atoms: C_14  and  O_15
REMARK                            x       y       z     vdW  Elec       q    Type
REMARK                         _______ _______ _______ _____ _____    ______ ____
ROOT
ATOM      1  C   UNL     1      46.688   2.544   6.675  0.00  0.00    +0.000 A 
ATOM      2  C   UNL     1      46.020   3.673   7.145  0.00  0.00    +0.000 A 
ATOM      3  C   UNL     1      45.294   3.608   8.332  0.00  0.00    +0.000 A 
ATOM      4  C   UNL     1      45.259   2.420   9.047  0.00  0.00    +0.000 A 
ATOM      5  N   UNL     1      44.510   2.209  10.170  0.00  0.00    +0.000 N 
ATOM      6  N   UNL     1      45.918   1.325   8.619  0.00  0.00    +0.000 NA
ATOM      7  C   UNL     1      46.599   1.400   7.452  0.00  0.00    +0.000 A 
ATOM      8  H   UNL     1      44.868   1.384  10.636  0.00  0.00    +0.000 HD
ENDROOT
BRANCH   1   9
ATOM      9  C   UNL     1      47.449   2.568   5.384  0.00  0.00    +0.000 C 
BRANCH   9  10
ATOM     10  N   UNL     1      48.620   1.705   5.446  0.00  0.00    +0.000 NA
ATOM     11  H   UNL     1      48.388   0.791   5.060  0.00  0.00    +0.000 HD
ATOM     12  H   UNL     1      48.870   1.551   6.422  0.00  0.00    +0.000 HD
ENDBRANCH   9  10
ENDBRANCH   1   9
BRANCH   5  13
ATOM     13  C   UNL     1      43.832   3.219  10.946  0.00  0.00    +0.000 C 
BRANCH  13  14
ATOM     14  C   UNL     1      44.674   4.503  11.089  0.00  0.00    +0.000 C 
ATOM     15  C   UNL     1      45.821   4.384  12.105  0.00  0.00    +0.000 C 
ATOM     16  C   UNL     1      45.429   4.731  13.539  0.00  0.00    +0.000 C 
ATOM     17  O   UNL     1      44.741   5.975  13.615  0.00  0.00    +0.000 OA
ATOM     18  C   UNL     1      43.542   5.976  12.845  0.00  0.00    +0.000 C 
ATOM     19  C   UNL     1      43.856   5.781  11.355  0.00  0.00    +0.000 C 
BRANCH  19  20
ATOM     20  O   UNL     1      42.678   5.825  10.557  0.00  0.00    +0.000 OA
ATOM     21  H   UNL     1      42.953   6.043   9.647  0.00  0.00    +0.000 HD
ENDBRANCH  19  20
ENDBRANCH  13  14
ENDBRANCH   5  13
TORSDOF 5
ENDMDL
MODEL 3
REMARK VINA RESULT:    -6.161      4.383      6.014
REMARK INTER + INTRA:          -7.881
REMARK INTER:                  -7.445
REMARK INTRA:                  -0.436
REMARK UNBOUND:                -0.279
REMARK  Name = 
REMARK  5 active torsions:
REMARK  status: ('A' for Active; 'I' for Inactive)
REMARK    1  A    between atoms: N_1  and  C_2
REMARK    2  A    between atoms: C_2  and  C_3
REMARK    3  A    between atoms: N_7  and  C_8
REMARK    4  A    between atoms: C_8  and  C_9
REMARK    5  A    between atoms: C_14  and  O_15
REMARK                            x       y       z     vdW  Elec       q    Type
REMARK                         _______ _______ _______ _____ _____    ______ ____
ROOT
ATOM      1  C   UNL     1      45.269   4.753  11.219  0.00  0.00    +0.000 A 
ATOM      2  C   UNL     1      45.943   5.719  11.965  0.00  0.00    +0.000 A 
ATOM      3  C   UNL     1      46.503   5.382  13.195  0.00  0.00    +0.000 A 
ATOM      4  C   UNL     1      46.401   4.078  13.657  0.00  0.00    +0.000 A 
ATOM      5  N   UNL     1      46.827   3.651  14.883  0.00  0.00    +0.000 N 
ATOM      6  N   UNL     1      45.774   3.126  12.938  0.00  0.00    +0.000 NA
ATOM      7  C   UNL     1      45.216   3.478  11.756  0.00  0.00    +0.000 A 
ATOM      8  H   UNL     1      46.888   2.640  14.860  0.00  0.00    +0.000 HD
ENDROOT
BRANCH   1   9
ATOM      9  C   UNL     1      44.624   5.090   9.909  0.00  0.00    +0.000 C 
BRANCH   9  10
ATOM     10  N   UNL     1      45.603   5.117   8.830  0.00  0.00    +0.000 NA
ATOM     11  H   UNL     1      46.541   5.128   9.225  0.00  0.00    +0.000 HD
ATOM     12  H   UNL     1      45.499   5.988   8.309  0.00  0.00    +0.000 HD
ENDBRANCH   9  10
ENDBRANCH   1   9
BRANCH   5  13
ATOM     13  C   UNL     1      47.663   4.387  15.801  0.00  0.00    +0.000 C 
BRANCH  13  14
ATOM     14  C   UNL     1      47.850   3.643  17.138  0.00  0.00    +0.000 C 
ATOM     15  C   UNL     1      47.860   4.566  18.367  0.00  0.00    +0.000 C 
ATOM     16  C   UNL     1      49.237   5.123  18.724  0.00  0.00    +0.000 C 
ATOM     17  O   UNL     1      50.224   4.100  18.784  0.00  0.00    +0.000 OA
ATOM     18  C   UNL     1      50.363   3.410  17.545  0.00  0.00    +0.000 C 
ATOM     19  C   UNL     1      49.059   2.689  17.178  0.00  0.00    +0.000 C 
BRANCH  19  20
ATOM     20  O   UNL     1      49.186   1.952  15.966  0.00  0.00    +0.000 OA
ATOM     21  H   UNL     1      49.533   1.071  16.197  0.00  0.00    +0.000 HD
ENDBRANCH  19  20
ENDBRANCH  13  14
ENDBRANCH   5  13
TORSDOF 5
ENDMDL
MODEL 4
REMARK VINA RESULT:    -6.082      4.576      7.150
REMARK INTER + INTRA:          -7.783
REMARK INTER:                  -7.545
REMARK INTRA:                  -0.239
REMARK UNBOUND:                -0.279
REMARK  Name = 
REMARK  5 active torsions:
REMARK  status: ('A' for Active; 'I' for Inactive)
REMARK    1  A    between atoms: N_1  and  C_2
REMARK    2  A    between atoms: C_2  and  C_3
REMARK    3  A    between atoms: N_7  and  C_8
REMARK    4  A    between atoms: C_8  and  C_9
REMARK    5  A    between atoms: C_14  and  O_15
REMARK                            x       y       z     vdW  Elec       q    Type
REMARK                         _______ _______ _______ _____ _____    ______ ____
ROOT
ATOM      1  C   UNL     1      48.625   3.870  17.398  0.00  0.00    +0.000 A 
ATOM      2  C   UNL     1      47.883   4.980  16.999  0.00  0.00    +0.000 A 
ATOM      3  C   UNL     1      47.167   4.945  15.805  0.00  0.00    +0.000 A 
ATOM      4  C   UNL     1      47.183   3.794  15.032  0.00  0.00    +0.000 A 
ATOM      5  N   UNL     1      46.597   3.672  13.803  0.00  0.00    +0.000 N 
ATOM      6  N   UNL     1      47.875   2.702  15.414  0.00  0.00    +0.000 NA
ATOM      7  C   UNL     1      48.584   2.762  16.566  0.00  0.00    +0.000 A 
ATOM      8  H   UNL     1      46.518   2.685  13.590  0.00  0.00    +0.000 HD
ENDROOT
BRANCH   1   9
ATOM      9  C   UNL     1      49.436   3.885  18.657  0.00  0.00    +0.000 C 
BRANCH   9  10
ATOM     10  N   UNL     1      48.614   3.569  19.818  0.00  0.00    +0.000 NA
ATOM     11  H   UNL     1      49.011   4.014  20.644  0.00  0.00    +0.000 HD
ATOM     12  H   UNL     1      48.648   2.564  19.987  0.00  0.00    +0.000 HD
ENDBRANCH   9  10
ENDBRANCH   1   9
BRANCH   5  13
ATOM     13  C   UNL     1      45.669   4.600  13.204  0.00  0.00    +0.000 C 
BRANCH  13  14
ATOM     14  C   UNL     1      44.491   3.880  12.517  0.00  0.00    +0.000 C 
ATOM     15  C   UNL     1      44.855   3.240  11.168  0.00  0.00    +0.000 C 
ATOM     16  C   UNL     1      44.709   4.176   9.970  0.00  0.00    +0.000 C 
ATOM     17  O   UNL     1      43.444   4.828   9.957  0.00  0.00    +0.000 OA
ATOM     18  C   UNL     1      43.231   5.615  11.126  0.00  0.00    +0.000 C 
ATOM     19  C   UNL     1      43.212   4.728  12.378  0.00  0.00    +0.000 C 
BRANCH  19  20
ATOM     20  O   UNL     1      42.954   5.484  13.557  0.00  0.00    +0.000 OA
ATOM     21  H   UNL     1      42.810   4.848  14.282  0.00  0.00    +0.000 HD
ENDBRANCH  19  20
ENDBRANCH  13  14
ENDBRANCH   5  13
TORSDOF 5
ENDMDL
MODEL 5
REMARK VINA RESULT:    -6.055      2.834      5.933
REMARK INTER + INTRA:          -7.750
REMARK INTER:                  -7.628
REMARK INTRA:                  -0.123
REMARK UNBOUND:                -0.279
REMARK  Name = 
REMARK  5 active torsions:
REMARK  status: ('A' for Active; 'I' for Inactive)
REMARK    1  A    between atoms: N_1  and  C_2
REMARK    2  A    between atoms: C_2  and  C_3
REMARK    3  A    between atoms: N_7  and  C_8
REMARK    4  A    between atoms: C_8  and  C_9
REMARK    5  A    between atoms: C_14  and  O_15
REMARK                            x       y       z     vdW  Elec       q    Type
REMARK                         _______ _______ _______ _____ _____    ______ ____
ROOT
ATOM      1  C   UNL     1      44.790   6.250  11.699  0.00  0.00    +0.000 A 
ATOM      2  C   UNL     1      45.820   6.023  10.789  0.00  0.00    +0.000 A 
ATOM      3  C   UNL     1      45.609   5.191   9.692  0.00  0.00    +0.000 A 
ATOM      4  C   UNL     1      44.364   4.608   9.507  0.00  0.00    +0.000 A 
ATOM      5  N   UNL     1      44.065   3.706   8.525  0.00  0.00    +0.000 N 
ATOM      6  N   UNL     1      43.349   4.835  10.364  0.00  0.00    +0.000 NA
ATOM      7  C   UNL     1      43.580   5.629  11.436  0.00  0.00    +0.000 A 
ATOM      8  H   UNL     1      43.056   3.655   8.443  0.00  0.00    +0.000 HD
ENDROOT
BRANCH   1   9
ATOM      9  C   UNL     1      44.993   7.111  12.909  0.00  0.00    +0.000 C 
BRANCH   9  10
ATOM     10  N   UNL     1      46.391   7.128  13.316  0.00  0.00    +0.000 NA
ATOM     11  H   UNL     1      46.969   7.414  12.529  0.00  0.00    +0.000 HD
ATOM     12  H   UNL     1      46.679   6.180  13.557  0.00  0.00    +0.000 HD
ENDBRANCH   9  10
ENDBRANCH   1   9
BRANCH   5  13
ATOM     13  C   UNL     1      44.884   3.386   7.381  0.00  0.00    +0.000 C 
BRANCH  13  14
ATOM     14  C   UNL     1      46.333   3.044   7.783  0.00  0.00    +0.000 C 
ATOM     15  C   UNL     1      47.390   3.548   6.787  0.00  0.00    +0.000 C 
ATOM     16  C   UNL     1      47.696   2.573   5.651  0.00  0.00    +0.000 C 
ATOM     17  O   UNL     1      47.962   1.261   6.135  0.00  0.00    +0.000 OA
ATOM     18  C   UNL     1      46.862   0.720   6.860  0.00  0.00    +0.000 C 
ATOM     19  C   UNL     1      46.575   1.558   8.113  0.00  0.00    +0.000 C 
BRANCH  19  20
ATOM     20  O   UNL     1      45.508   1.012   8.881  0.00  0.00    +0.000 OA
ATOM     21  H   UNL     1      45.760   1.086   9.820  0.00  0.00    +0.000 HD
ENDBRANCH  19  20
ENDBRANCH  13  14
ENDBRANCH   5  13
TORSDOF 5
ENDMDL
MODEL 6
REMARK VINA RESULT:    -5.885      4.747      7.307
REMARK INTER + INTRA:          -7.540
REMARK INTER:                  -7.109
REMARK INTRA:                  -0.431
REMARK UNBOUND:                -0.279
REMARK  Name = 
REMARK  5 active torsions:
REMARK  status: ('A' for Active; 'I' for Inactive)
REMARK    1  A    between atoms: N_1  and  C_2
REMARK    2  A    between atoms: C_2  and  C_3
REMARK    3  A    between atoms: N_7  and  C_8
REMARK    4  A    between atoms: C_8  and  C_9
REMARK    5  A    between atoms: C_14  and  O_15
REMARK                            x       y       z     vdW  Elec       q    Type
REMARK                         _______ _______ _______ _____ _____    ______ ____
ROOT
ATOM      1  C   UNL     1      48.545   3.638  17.800  0.00  0.00    +0.000 A 
ATOM      2  C   UNL     1      47.815   4.794  17.530  0.00  0.00    +0.000 A 
ATOM      3  C   UNL     1      47.189   4.947  16.295  0.00  0.00    +0.000 A 
ATOM      4  C   UNL     1      47.282   3.935  15.351  0.00  0.00    +0.000 A 
ATOM      5  N   UNL     1      46.790   4.009  14.079  0.00  0.00    +0.000 N 
ATOM      6  N   UNL     1      47.964   2.800  15.605  0.00  0.00    +0.000 NA
ATOM      7  C   UNL     1      48.585   2.679  16.802  0.00  0.00    +0.000 A 
ATOM      8  H   UNL     1      46.745   3.069  13.704  0.00  0.00    +0.000 HD
ENDROOT
BRANCH   1   9
ATOM      9  C   UNL     1      49.261   3.455  19.104  0.00  0.00    +0.000 C 
BRANCH   9  10
ATOM     10  N   UNL     1      48.338   3.528  20.228  0.00  0.00    +0.000 NA
ATOM     11  H   UNL     1      48.745   4.102  20.964  0.00  0.00    +0.000 HD
ATOM     12  H   UNL     1      48.219   2.595  20.623  0.00  0.00    +0.000 HD
ENDBRANCH   9  10
ENDBRANCH   1   9
BRANCH   5  13
ATOM     13  C   UNL     1      45.892   5.016  13.568  0.00  0.00    +0.000 C 
BRANCH  13  14
ATOM     14  C   UNL     1      45.622   4.841  12.059  0.00  0.00    +0.000 C 
ATOM     15  C   UNL     1      45.105   6.113  11.368  0.00  0.00    +0.000 C 
ATOM     16  C   UNL     1      43.586   6.275  11.408  0.00  0.00    +0.000 C 
ATOM     17  O   UNL     1      42.915   5.094  10.984  0.00  0.00    +0.000 OA
ATOM     18  C   UNL     1      43.233   3.969  11.799  0.00  0.00    +0.000 C 
ATOM     19  C   UNL     1      44.728   3.638  11.702  0.00  0.00    +0.000 C 
BRANCH  19  20
ATOM     20  O   UNL     1      45.065   2.488  12.472  0.00  0.00    +0.000 OA
ATOM     21  H   UNL     1      44.754   2.647  13.382  0.00  0.00    +0.000 HD
ENDBRANCH  19  20
ENDBRANCH  13  14
ENDBRANCH   5  13
TORSDOF 5
ENDMDL
MODEL 7
REMARK VINA RESULT:    -5.785      4.843      7.554
REMARK INTER + INTRA:          -7.416
REMARK INTER:                  -6.942
REMARK INTRA:                  -0.474
REMARK UNBOUND:                -0.279
REMARK  Name = 
REMARK  5 active torsions:
REMARK  status: ('A' for Active; 'I' for Inactive)
REMARK    1  A    between atoms: N_1  and  C_2
REMARK    2  A    between atoms: C_2  and  C_3
REMARK    3  A    between atoms: N_7  and  C_8
REMARK    4  A    between atoms: C_8  and  C_9
REMARK    5  A    between atoms: C_14  and  O_15
REMARK                            x       y       z     vdW  Elec       q    Type
REMARK                         _______ _______ _______ _____ _____    ______ ____
ROOT
ATOM      1  C   UNL     1      48.761   4.634  17.952  0.00  0.00    +0.000 A 
ATOM      2  C   UNL     1      47.682   3.838  17.571  0.00  0.00    +0.000 A 
ATOM      3  C   UNL     1      47.081   4.032  16.330  0.00  0.00    +0.000 A 
ATOM      4  C   UNL     1      47.576   5.005  15.475  0.00  0.00    +0.000 A 
ATOM      5  N   UNL     1      47.015   5.348  14.277  0.00  0.00    +0.000 N 
ATOM      6  N   UNL     1      48.634   5.767  15.817  0.00  0.00    +0.000 NA
ATOM      7  C   UNL     1      49.191   5.580  17.037  0.00  0.00    +0.000 A 
ATOM      8  H   UNL     1      47.704   5.867  13.745  0.00  0.00    +0.000 HD
ENDROOT
BRANCH   1   9
ATOM      9  C   UNL     1      49.410   4.477  19.294  0.00  0.00    +0.000 C 
BRANCH   9  10
ATOM     10  N   UNL     1      48.587   3.673  20.188  0.00  0.00    +0.000 NA
ATOM     11  H   UNL     1      49.184   3.203  20.866  0.00  0.00    +0.000 HD
ATOM     12  H   UNL     1      48.130   2.939  19.649  0.00  0.00    +0.000 HD
ENDBRANCH   9  10
ENDBRANCH   1   9
BRANCH   5  13
ATOM     13  C   UNL     1      45.984   4.620  13.577  0.00  0.00    +0.000 C 
BRANCH  13  14
ATOM     14  C   UNL     1      44.964   5.562  12.906  0.00  0.00    +0.000 C 
ATOM     15  C   UNL     1      43.521   5.033  12.929  0.00  0.00    +0.000 C 
ATOM     16  C   UNL     1      43.161   4.139  11.744  0.00  0.00    +0.000 C 
ATOM     17  O   UNL     1      43.520   4.734  10.502  0.00  0.00    +0.000 OA
ATOM     18  C   UNL     1      44.917   4.997  10.413  0.00  0.00    +0.000 C 
ATOM     19  C   UNL     1      45.345   6.012  11.482  0.00  0.00    +0.000 C 
BRANCH  19  20
ATOM     20  O   UNL     1      46.730   6.329  11.386  0.00  0.00    +0.000 OA
ATOM     21  H   UNL     1      47.103   6.270  12.285  0.00  0.00    +0.000 HD
ENDBRANCH  19  20
ENDBRANCH  13  14
ENDBRANCH   5  13
TORSDOF 5
ENDMDL
MODEL 8
REMARK VINA RESULT:    -5.743      3.759      6.449
REMARK INTER + INTRA:          -7.365
REMARK INTER:                  -7.292
REMARK INTRA:                  -0.073
REMARK UNBOUND:                -0.279
REMARK  Name = 
REMARK  5 active torsions:
REMARK  status: ('A' for Active; 'I' for Inactive)
REMARK    1  A    between atoms: N_1  and  C_2
REMARK    2  A    between atoms: C_2  and  C_3
REMARK    3  A    between atoms: N_7  and  C_8
REMARK    4  A    between atoms: C_8  and  C_9
REMARK    5  A    between atoms: C_14  and  O_15
REMARK                            x       y       z     vdW  Elec       q    Type
REMARK                         _______ _______ _______ _____ _____    ______ ____
ROOT
ATOM      1  C   UNL     1      48.203   5.393  15.880  0.00  0.00    +0.000 A 
ATOM      2  C   UNL     1      48.222   6.328  14.847  0.00  0.00    +0.000 A 
ATOM      3  C   UNL     1      47.381   6.168  13.748  0.00  0.00    +0.000 A 
ATOM      4  C   UNL     1      46.514   5.086  13.704  0.00  0.00    +0.000 A 
ATOM      5  N   UNL     1      45.711   4.775  12.643  0.00  0.00    +0.000 N 
ATOM      6  N   UNL     1      46.465   4.185  14.705  0.00  0.00    +0.000 NA
ATOM      7  C   UNL     1      47.306   4.344  15.754  0.00  0.00    +0.000 A 
ATOM      8  H   UNL     1      45.001   4.127  12.966  0.00  0.00    +0.000 HD
ENDROOT
BRANCH   1   9
ATOM      9  C   UNL     1      49.119   5.514  17.059  0.00  0.00    +0.000 C 
BRANCH   9  10
ATOM     10  N   UNL     1      50.510   5.617  16.638  0.00  0.00    +0.000 NA
ATOM     11  H   UNL     1      51.080   4.982  17.194  0.00  0.00    +0.000 HD
ATOM     12  H   UNL     1      50.850   6.558  16.838  0.00  0.00    +0.000 HD
ENDBRANCH   9  10
ENDBRANCH   1   9
BRANCH   5  13
ATOM     13  C   UNL     1      45.431   5.619  11.507  0.00  0.00    +0.000 C 
BRANCH  13  14
ATOM     14  C   UNL     1      44.187   5.149  10.727  0.00  0.00    +0.000 C 
ATOM     15  C   UNL     1      43.191   4.340  11.575  0.00  0.00    +0.000 C 
ATOM     16  C   UNL     1      43.475   2.840  11.615  0.00  0.00    +0.000 C 
ATOM     17  O   UNL     1      43.668   2.301  10.312  0.00  0.00    +0.000 OA
ATOM     18  C   UNL     1      44.762   2.912   9.632  0.00  0.00    +0.000 C 
ATOM     19  C   UNL     1      44.494   4.407   9.412  0.00  0.00    +0.000 C 
BRANCH  19  20
ATOM     20  O   UNL     1      45.552   5.033   8.693  0.00  0.00    +0.000 OA
ATOM     21  H   UNL     1      46.147   4.327   8.380  0.00  0.00    +0.000 HD
ENDBRANCH  19  20
ENDBRANCH  13  14
ENDBRANCH   5  13
TORSDOF 5
ENDMDL
MODEL 9
REMARK VINA RESULT:    -5.674      3.605      5.712
REMARK INTER + INTRA:          -7.280
REMARK INTER:                  -6.911
REMARK INTRA:                  -0.369
REMARK UNBOUND:                -0.279
REMARK  Name = 
REMARK  5 active torsions:
REMARK  status: ('A' for Active; 'I' for Inactive)
REMARK    1  A    between atoms: N_1  and  C_2
REMARK    2  A    between atoms: C_2  and  C_3
REMARK    3  A    between atoms: N_7  and  C_8
REMARK    4  A    between atoms: C_8  and  C_9
REMARK    5  A    between atoms: C_14  and  O_15
REMARK                            x       y       z     vdW  Elec       q    Type
REMARK                         _______ _______ _______ _____ _____    ______ ____
ROOT
ATOM      1  C   UNL     1      47.857   9.047  11.922  0.00  0.00    +0.000 A 
ATOM      2  C   UNL     1      48.320   7.737  12.032  0.00  0.00    +0.000 A 
ATOM      3  C   UNL     1      47.460   6.729  12.460  0.00  0.00    +0.000 A 
ATOM      4  C   UNL     1      46.140   7.037  12.755  0.00  0.00    +0.000 A 
ATOM      5  N   UNL     1      45.231   6.156  13.269  0.00  0.00    +0.000 N 
ATOM      6  N   UNL     1      45.668   8.294  12.632  0.00  0.00    +0.000 NA
ATOM      7  C   UNL     1      46.525   9.265  12.236  0.00  0.00    +0.000 A 
ATOM      8  H   UNL     1      44.305   6.544  13.132  0.00  0.00    +0.000 HD
ENDROOT
BRANCH   1   9
ATOM      9  C   UNL     1      48.763  10.162  11.498  0.00  0.00    +0.000 C 
BRANCH   9  10
ATOM     10  N   UNL     1      50.130   9.691  11.316  0.00  0.00    +0.000 NA
ATOM     11  H   UNL     1      50.439   9.213  12.160  0.00  0.00    +0.000 HD
ATOM     12  H   UNL     1      50.746  10.495  11.198  0.00  0.00    +0.000 HD
ENDBRANCH   9  10
ENDBRANCH   1   9
BRANCH   5  13
ATOM     13  C   UNL     1      45.388   4.725  13.366  0.00  0.00    +0.000 C 
BRANCH  13  14
ATOM     14  C   UNL     1      44.337   3.968  12.528  0.00  0.00    +0.000 C 
ATOM     15  C   UNL     1      44.857   3.491  11.162  0.00  0.00    +0.000 C 
ATOM     16  C   UNL     1      44.706   4.517  10.040  0.00  0.00    +0.000 C 
ATOM     17  O   UNL     1      43.389   5.052   9.983  0.00  0.00    +0.000 OA
ATOM     18  C   UNL     1      43.018   5.704  11.194  0.00  0.00    +0.000 C 
ATOM     19  C   UNL     1      42.996   4.707  12.361  0.00  0.00    +0.000 C 
BRANCH  19  20
ATOM     20  O   UNL     1      42.582   5.324  13.576  0.00  0.00    +0.000 OA
ATOM     21  H   UNL     1      42.374   6.255  13.372  0.00  0.00    +0.000 HD
ENDBRANCH  19  20
ENDBRANCH  13  14
ENDBRANCH   5  13
TORSDOF 5
ENDMDL
