MODEL 1
REMARK VINA RESULT:    -9.090      0.000      0.000
REMARK INTER + INTRA:         -11.950
REMARK INTER:                 -11.216
REMARK INTRA:                  -0.735
REMARK UNBOUND:                -0.735
REMARK  Name = 
REMARK  4 active torsions:
REMARK  status: ('A' for Active; 'I' for Inactive)
REMARK    1  A    between atoms: C_2  and  C_4
REMARK    2  A    between atoms: N_8  and  C_9
REMARK    3  A    between atoms: C_9  and  C_10
REMARK    4  A    between atoms: C_14  and  C_15
REMARK                            x       y       z     vdW  Elec       q    Type
REMARK                         _______ _______ _______ _____ _____    ______ ____
ROOT
ATOM      1  C   UNL     1      46.389   2.295   7.725  0.00  0.00    +0.000 A 
ATOM      2  C   UNL     1      45.600   1.787   8.751  0.00  0.00    +0.000 A 
ATOM      3  C   UNL     1      44.727   2.643   9.424  0.00  0.00    +0.000 A 
ATOM      4  C   UNL     1      44.675   3.990   9.081  0.00  0.00    +0.000 A 
ATOM      5  N   UNL     1      43.771   4.876   9.624  0.00  0.00    +0.000 N 
ATOM      6  N   UNL     1      45.450   4.495   8.102  0.00  0.00    +0.000 NA
ATOM      7  C   UNL     1      46.292   3.649   7.449  0.00  0.00    +0.000 A 
ATOM      8  H   UNL     1      43.998   5.808   9.283  0.00  0.00    +0.000 HD
ENDROOT
BRANCH   1  10
ATOM      9  N   UNL     1      48.451   2.067   6.462  0.00  0.00    +0.000 N 
ATOM     10  C   UNL     1      47.320   1.461   6.937  0.00  0.00    +0.000 C 
ATOM     11  O   UNL     1      47.108   0.273   6.745  0.00  0.00    +0.000 OA
ATOM     12  H   UNL     1      49.127   1.463   6.012  0.00  0.00    +0.000 HD
ATOM     13  H   UNL     1      48.784   2.954   6.811  0.00  0.00    +0.000 HD
ENDBRANCH   1  10
BRANCH   5  14
ATOM     14  C   UNL     1      43.390   4.826  11.023  0.00  0.00    +0.000 C 
BRANCH  14  15
ATOM     15  C   UNL     1      44.553   5.245  11.896  0.00  0.00    +0.000 A 
ATOM     16  C   UNL     1      44.962   4.479  12.992  0.00  0.00    +0.000 A 
ATOM     17  C   UNL     1      46.059   4.893  13.721  0.00  0.00    +0.000 A 
ATOM     18  N   UNL     1      46.777   5.999  13.437  0.00  0.00    +0.000 NA
ATOM     19  C   UNL     1      46.397   6.749  12.365  0.00  0.00    +0.000 A 
ATOM     20  C   UNL     1      45.303   6.383  11.574  0.00  0.00    +0.000 A 
BRANCH  19  21
ATOM     21  C   UNL     1      47.182   7.982  12.111  0.00  0.00    +0.000 A 
ATOM     22  C   UNL     1      48.546   7.941  11.807  0.00  0.00    +0.000 A 
ATOM     23  C   UNL     1      49.254   9.129  11.643  0.00  0.00    +0.000 A 
ATOM     24  C   UNL     1      48.587  10.338  11.775  0.00  0.00    +0.000 A 
ATOM     25  C   UNL     1      47.233  10.307  12.057  0.00  0.00    +0.000 A 
ATOM     26  N   UNL     1      46.521   9.170  12.225  0.00  0.00    +0.000 NA
ENDBRANCH  19  21
ENDBRANCH  14  15
ENDBRANCH   5  14
TORSDOF 4
ENDMDL
MODEL 2
REMARK VINA RESULT:    -9.073      2.004      4.016
REMARK INTER + INTRA:         -11.929
REMARK INTER:                 -11.270
REMARK INTRA:                  -0.659
REMARK UNBOUND:                -0.735
REMARK  Name = 
REMARK  4 active torsions:
REMARK  status: ('A' for Active; 'I' for Inactive)
REMARK    1  A    between atoms: C_2  and  C_4
REMARK    2  A    between atoms: N_8  and  C_9
REMARK    3  A    between atoms: C_9  and  C_10
REMARK    4  A    between atoms: C_14  and  C_15
REMARK                            x       y       z     vdW  Elec       q    Type
REMARK                         _______ _______ _______ _____ _____    ______ ____
ROOT
ATOM      1  C   UNL     1      46.508   2.468   7.656  0.00  0.00    +0.000 A 
ATOM      2  C   UNL     1      45.809   1.929   8.730  0.00  0.00    +0.000 A 
ATOM      3  C   UNL     1      45.076   2.780   9.559  0.00  0.00    +0.000 A 
ATOM      4  C   UNL     1      45.072   4.149   9.317  0.00  0.00    +0.000 A 
ATOM      5  N   UNL     1      44.295   5.041  10.023  0.00  0.00    +0.000 N 
ATOM      6  N   UNL     1      45.762   4.682   8.291  0.00  0.00    +0.000 NA
ATOM      7  C   UNL     1      46.468   3.842   7.487  0.00  0.00    +0.000 A 
ATOM      8  H   UNL     1      44.542   5.982   9.722  0.00  0.00    +0.000 HD
ENDROOT
BRANCH   1  10
ATOM      9  N   UNL     1      48.268   2.277   5.993  0.00  0.00    +0.000 N 
ATOM     10  C   UNL     1      47.288   1.645   6.708  0.00  0.00    +0.000 C 
ATOM     11  O   UNL     1      47.090   0.445   6.591  0.00  0.00    +0.000 OA
ATOM     12  H   UNL     1      48.859   1.685   5.423  0.00  0.00    +0.000 HD
ATOM     13  H   UNL     1      48.628   3.187   6.243  0.00  0.00    +0.000 HD
ENDBRANCH   1  10
BRANCH   5  14
ATOM     14  C   UNL     1      44.073   4.907  11.450  0.00  0.00    +0.000 C 
BRANCH  14  15
ATOM     15  C   UNL     1      45.326   5.282  12.211  0.00  0.00    +0.000 A 
ATOM     16  C   UNL     1      46.130   6.356  11.819  0.00  0.00    +0.000 A 
ATOM     17  C   UNL     1      47.235   6.674  12.582  0.00  0.00    +0.000 A 
ATOM     18  N   UNL     1      47.590   6.012  13.704  0.00  0.00    +0.000 NA
ATOM     19  C   UNL     1      46.809   4.972  14.105  0.00  0.00    +0.000 A 
ATOM     20  C   UNL     1      45.668   4.601  13.386  0.00  0.00    +0.000 A 
BRANCH  19  21
ATOM     21  C   UNL     1      47.256   4.240  15.316  0.00  0.00    +0.000 A 
ATOM     22  C   UNL     1      47.134   4.786  16.597  0.00  0.00    +0.000 A 
ATOM     23  C   UNL     1      47.629   4.088  17.696  0.00  0.00    +0.000 A 
ATOM     24  C   UNL     1      48.229   2.853  17.500  0.00  0.00    +0.000 A 
ATOM     25  C   UNL     1      48.300   2.363  16.208  0.00  0.00    +0.000 A 
ATOM     26  N   UNL     1      47.831   3.018  15.123  0.00  0.00    +0.000 NA
ENDBRANCH  19  21
ENDBRANCH  14  15
ENDBRANCH   5  14
TORSDOF 4
ENDMDL
MODEL 3
REMARK VINA RESULT:    -7.884      2.930      6.783
REMARK INTER + INTRA:         -10.462
REMARK INTER:                  -9.621
REMARK INTRA:                  -0.841
REMARK UNBOUND:                -0.735
REMARK  Name = 
REMARK  4 active torsions:
REMARK  status: ('A' for Active; 'I' for Inactive)
REMARK    1  A    between atoms: C_2  and  C_4
REMARK    2  A    between atoms: N_8  and  C_9
REMARK    3  A    between atoms: C_9  and  C_10
REMARK    4  A    between atoms: C_14  and  C_15
REMARK                            x       y       z     vdW  Elec       q    Type
REMARK                         _______ _______ _______ _____ _____    ______ ____
ROOT
ATOM      1  C   UNL     1      48.572   7.300  12.864  0.00  0.00    +0.000 A 
ATOM      2  C   UNL     1      47.880   7.737  11.741  0.00  0.00    +0.000 A 
ATOM      3  C   UNL     1      46.507   7.503  11.656  0.00  0.00    +0.000 A 
ATOM      4  C   UNL     1      45.855   6.818  12.676  0.00  0.00    +0.000 A 
ATOM      5  N   UNL     1      44.491   6.636  12.717  0.00  0.00    +0.000 N 
ATOM      6  N   UNL     1      46.522   6.373  13.759  0.00  0.00    +0.000 NA
ATOM      7  C   UNL     1      47.859   6.613  13.833  0.00  0.00    +0.000 A 
ATOM      8  H   UNL     1      44.276   6.029  13.506  0.00  0.00    +0.000 HD
ENDROOT
BRANCH   1  10
ATOM      9  N   UNL     1      50.804   7.545  11.937  0.00  0.00    +0.000 N 
ATOM     10  C   UNL     1      50.020   7.527  13.057  0.00  0.00    +0.000 C 
ATOM     11  O   UNL     1      50.493   7.726  14.167  0.00  0.00    +0.000 OA
ATOM     12  H   UNL     1      51.774   7.801  12.072  0.00  0.00    +0.000 HD
ATOM     13  H   UNL     1      50.425   7.644  11.006  0.00  0.00    +0.000 HD
ENDBRANCH   1  10
BRANCH   5  14
ATOM     14  C   UNL     1      43.714   6.364  11.522  0.00  0.00    +0.000 C 
BRANCH  14  15
ATOM     15  C   UNL     1      43.853   4.910  11.130  0.00  0.00    +0.000 A 
ATOM     16  C   UNL     1      43.148   3.900  11.792  0.00  0.00    +0.000 A 
ATOM     17  C   UNL     1      43.284   2.597  11.355  0.00  0.00    +0.000 A 
ATOM     18  N   UNL     1      44.056   2.230  10.311  0.00  0.00    +0.000 NA
ATOM     19  C   UNL     1      44.739   3.205   9.649  0.00  0.00    +0.000 A 
ATOM     20  C   UNL     1      44.640   4.548  10.029  0.00  0.00    +0.000 A 
BRANCH  19  21
ATOM     21  C   UNL     1      45.613   2.758   8.536  0.00  0.00    +0.000 A 
ATOM     22  C   UNL     1      45.995   3.620   7.504  0.00  0.00    +0.000 A 
ATOM     23  C   UNL     1      46.762   3.136   6.447  0.00  0.00    +0.000 A 
ATOM     24  C   UNL     1      47.143   1.803   6.443  0.00  0.00    +0.000 A 
ATOM     25  C   UNL     1      46.747   1.009   7.505  0.00  0.00    +0.000 A 
ATOM     26  N   UNL     1      46.001   1.451   8.542  0.00  0.00    +0.000 NA
ENDBRANCH  19  21
ENDBRANCH  14  15
ENDBRANCH   5  14
TORSDOF 4
ENDMDL
MODEL 4
REMARK VINA RESULT:    -7.672      3.273      7.259
REMARK INTER + INTRA:         -10.201
REMARK INTER:                  -9.712
REMARK INTRA:                  -0.489
REMARK UNBOUND:                -0.735
REMARK  Name = 
REMARK  4 active torsions:
REMARK  status: ('A' for Active; 'I' for Inactive)
REMARK    1  A    between atoms: C_2  and  C_4
REMARK    2  A    between atoms: N_8  and  C_9
REMARK    3  A    between atoms: C_9  and  C_10
REMARK    4  A    between atoms: C_14  and  C_15
REMARK                            x       y       z     vdW  Elec       q    Type
REMARK                         _______ _______ _______ _____ _____    ______ ____
ROOT
ATOM      1  C   UNL     1      47.977   5.333  15.515  0.00  0.00    +0.000 A 
ATOM      2  C   UNL     1      46.950   4.550  15.001  0.00  0.00    +0.000 A 
ATOM      3  C   UNL     1      46.282   4.975  13.851  0.00  0.00    +0.000 A 
ATOM      4  C   UNL     1      46.633   6.180  13.251  0.00  0.00    +0.000 A 
ATOM      5  N   UNL     1      46.095   6.619  12.061  0.00  0.00    +0.000 N 
ATOM      6  N   UNL     1      47.613   6.954  13.753  0.00  0.00    +0.000 NA
ATOM      7  C   UNL     1      48.260   6.527  14.871  0.00  0.00    +0.000 A 
ATOM      8  H   UNL     1      46.441   7.561  11.886  0.00  0.00    +0.000 HD
ENDROOT
BRANCH   1  10
ATOM      9  N   UNL     1      48.058   4.604  17.830  0.00  0.00    +0.000 N 
ATOM     10  C   UNL     1      48.760   4.952  16.709  0.00  0.00    +0.000 C 
ATOM     11  O   UNL     1      49.981   4.916  16.687  0.00  0.00    +0.000 OA
ATOM     12  H   UNL     1      48.602   4.249  18.607  0.00  0.00    +0.000 HD
ATOM     13  H   UNL     1      47.075   4.374  17.811  0.00  0.00    +0.000 HD
ENDBRANCH   1  10
BRANCH   5  14
ATOM     14  C   UNL     1      44.697   6.423  11.729  0.00  0.00    +0.000 C 
BRANCH  14  15
ATOM     15  C   UNL     1      44.481   5.029  11.181  0.00  0.00    +0.000 A 
ATOM     16  C   UNL     1      43.509   4.174  11.710  0.00  0.00    +0.000 A 
ATOM     17  C   UNL     1      43.332   2.932  11.135  0.00  0.00    +0.000 A 
ATOM     18  N   UNL     1      44.038   2.486  10.075  0.00  0.00    +0.000 NA
ATOM     19  C   UNL     1      44.979   3.313   9.541  0.00  0.00    +0.000 A 
ATOM     20  C   UNL     1      45.205   4.590  10.066  0.00  0.00    +0.000 A 
BRANCH  19  21
ATOM     21  C   UNL     1      45.767   2.770   8.407  0.00  0.00    +0.000 A 
ATOM     22  C   UNL     1      46.054   3.536   7.272  0.00  0.00    +0.000 A 
ATOM     23  C   UNL     1      46.740   2.961   6.206  0.00  0.00    +0.000 A 
ATOM     24  C   UNL     1      47.137   1.635   6.292  0.00  0.00    +0.000 A 
ATOM     25  C   UNL     1      46.837   0.940   7.451  0.00  0.00    +0.000 A 
ATOM     26  N   UNL     1      46.171   1.471   8.500  0.00  0.00    +0.000 NA
ENDBRANCH  19  21
ENDBRANCH  14  15
ENDBRANCH   5  14
TORSDOF 4
ENDMDL
MODEL 5
REMARK VINA RESULT:    -7.144      3.942      7.910
REMARK INTER + INTRA:          -9.549
REMARK INTER:                  -9.099
REMARK INTRA:                  -0.450
REMARK UNBOUND:                -0.735
REMARK  Name = 
REMARK  4 active torsions:
REMARK  status: ('A' for Active; 'I' for Inactive)
REMARK    1  A    between atoms: C_2  and  C_4
REMARK    2  A    between atoms: N_8  and  C_9
REMARK    3  A    between atoms: C_9  and  C_10
REMARK    4  A    between atoms: C_14  and  C_15
REMARK                            x       y       z     vdW  Elec       q    Type
REMARK                         _______ _______ _______ _____ _____    ______ ____
ROOT
ATOM      1  C   UNL     1      49.253   4.282  17.281  0.00  0.00    +0.000 A 
ATOM      2  C   UNL     1      49.010   5.465  16.592  0.00  0.00    +0.000 A 
ATOM      3  C   UNL     1      47.935   5.525  15.705  0.00  0.00    +0.000 A 
ATOM      4  C   UNL     1      47.139   4.402  15.502  0.00  0.00    +0.000 A 
ATOM      5  N   UNL     1      46.003   4.410  14.724  0.00  0.00    +0.000 N 
ATOM      6  N   UNL     1      47.379   3.247  16.150  0.00  0.00    +0.000 NA
ATOM      7  C   UNL     1      48.426   3.202  17.017  0.00  0.00    +0.000 A 
ATOM      8  H   UNL     1      45.657   3.454  14.660  0.00  0.00    +0.000 HD
ENDROOT
BRANCH   1  10
ATOM      9  N   UNL     1      50.046   4.367  19.575  0.00  0.00    +0.000 N 
ATOM     10  C   UNL     1      50.348   4.131  18.262  0.00  0.00    +0.000 C 
ATOM     11  O   UNL     1      51.467   3.776  17.921  0.00  0.00    +0.000 OA
ATOM     12  H   UNL     1      50.776   4.163  20.246  0.00  0.00    +0.000 HD
ATOM     13  H   UNL     1      49.098   4.404  19.921  0.00  0.00    +0.000 HD
ENDBRANCH   1  10
BRANCH   5  14
ATOM     14  C   UNL     1      45.922   5.160  13.485  0.00  0.00    +0.000 C 
BRANCH  14  15
ATOM     15  C   UNL     1      45.162   4.369  12.444  0.00  0.00    +0.000 A 
ATOM     16  C   UNL     1      43.849   3.939  12.662  0.00  0.00    +0.000 A 
ATOM     17  C   UNL     1      43.195   3.260  11.653  0.00  0.00    +0.000 A 
ATOM     18  N   UNL     1      43.743   2.988  10.451  0.00  0.00    +0.000 NA
ATOM     19  C   UNL     1      45.017   3.412  10.220  0.00  0.00    +0.000 A 
ATOM     20  C   UNL     1      45.736   4.116  11.192  0.00  0.00    +0.000 A 
BRANCH  19  21
ATOM     21  C   UNL     1      45.602   3.055   8.903  0.00  0.00    +0.000 A 
ATOM     22  C   UNL     1      45.929   1.737   8.573  0.00  0.00    +0.000 A 
ATOM     23  C   UNL     1      46.538   1.461   7.351  0.00  0.00    +0.000 A 
ATOM     24  C   UNL     1      46.801   2.504   6.475  0.00  0.00    +0.000 A 
ATOM     25  C   UNL     1      46.435   3.783   6.857  0.00  0.00    +0.000 A 
ATOM     26  N   UNL     1      45.846   4.080   8.037  0.00  0.00    +0.000 NA
ENDBRANCH  19  21
ENDBRANCH  14  15
ENDBRANCH   5  14
TORSDOF 4
ENDMDL
MODEL 6
REMARK VINA RESULT:    -6.513      2.916      6.862
REMARK INTER + INTRA:          -8.771
REMARK INTER:                  -7.998
REMARK INTRA:                  -0.773
REMARK UNBOUND:                -0.735
REMARK  Name = 
REMARK  4 active torsions:
REMARK  status: ('A' for Active; 'I' for Inactive)
REMARK    1  A    between atoms: C_2  and  C_4
REMARK    2  A    between atoms: N_8  and  C_9
REMARK    3  A    between atoms: C_9  and  C_10
REMARK    4  A    between atoms: C_14  and  C_15
REMARK                            x       y       z     vdW  Elec       q    Type
REMARK                         _______ _______ _______ _____ _____    ______ ____
ROOT
ATOM      1  C   UNL     1      50.341   8.268  12.522  0.00  0.00    +0.000 A 
ATOM      2  C   UNL     1      49.445   8.789  11.595  0.00  0.00    +0.000 A 
ATOM      3  C   UNL     1      48.077   8.732  11.867  0.00  0.00    +0.000 A 
ATOM      4  C   UNL     1      47.627   8.136  13.040  0.00  0.00    +0.000 A 
ATOM      5  N   UNL     1      46.306   8.130  13.428  0.00  0.00    +0.000 N 
ATOM      6  N   UNL     1      48.486   7.611  13.934  0.00  0.00    +0.000 NA
ATOM      7  C   UNL     1      49.817   7.678  13.661  0.00  0.00    +0.000 A 
ATOM      8  H   UNL     1      46.225   7.556  14.265  0.00  0.00    +0.000 HD
ENDROOT
BRANCH   1  10
ATOM      9  N   UNL     1      52.581   8.136  13.452  0.00  0.00    +0.000 N 
ATOM     10  C   UNL     1      51.806   8.309  12.337  0.00  0.00    +0.000 C 
ATOM     11  O   UNL     1      52.307   8.456  11.232  0.00  0.00    +0.000 OA
ATOM     12  H   UNL     1      53.579   8.065  13.297  0.00  0.00    +0.000 HD
ATOM     13  H   UNL     1      52.219   7.760  14.316  0.00  0.00    +0.000 HD
ENDBRANCH   1  10
BRANCH   5  14
ATOM     14  C   UNL     1      45.224   7.959  12.477  0.00  0.00    +0.000 C 
BRANCH  14  15
ATOM     15  C   UNL     1      44.980   6.487  12.223  0.00  0.00    +0.000 A 
ATOM     16  C   UNL     1      44.355   5.672  13.172  0.00  0.00    +0.000 A 
ATOM     17  C   UNL     1      44.121   4.348  12.861  0.00  0.00    +0.000 A 
ATOM     18  N   UNL     1      44.453   3.782  11.681  0.00  0.00    +0.000 NA
ATOM     19  C   UNL     1      45.052   4.567  10.743  0.00  0.00    +0.000 A 
ATOM     20  C   UNL     1      45.309   5.921  10.986  0.00  0.00    +0.000 A 
BRANCH  19  21
ATOM     21  C   UNL     1      45.444   3.900   9.477  0.00  0.00    +0.000 A 
ATOM     22  C   UNL     1      45.334   2.516   9.306  0.00  0.00    +0.000 A 
ATOM     23  C   UNL     1      45.777   1.929   8.123  0.00  0.00    +0.000 A 
ATOM     24  C   UNL     1      46.313   2.732   7.128  0.00  0.00    +0.000 A 
ATOM     25  C   UNL     1      46.375   4.096   7.355  0.00  0.00    +0.000 A 
ATOM     26  N   UNL     1      45.955   4.694   8.493  0.00  0.00    +0.000 NA
ENDBRANCH  19  21
ENDBRANCH  14  15
ENDBRANCH   5  14
TORSDOF 4
ENDMDL
MODEL 7
REMARK VINA RESULT:    -6.353      4.017      6.369
REMARK INTER + INTRA:          -8.574
REMARK INTER:                  -7.933
REMARK INTRA:                  -0.641
REMARK UNBOUND:                -0.735
REMARK  Name = 
REMARK  4 active torsions:
REMARK  status: ('A' for Active; 'I' for Inactive)
REMARK    1  A    between atoms: C_2  and  C_4
REMARK    2  A    between atoms: N_8  and  C_9
REMARK    3  A    between atoms: C_9  and  C_10
REMARK    4  A    between atoms: C_14  and  C_15
REMARK                            x       y       z     vdW  Elec       q    Type
REMARK                         _______ _______ _______ _____ _____    ______ ____
ROOT
ATOM      1  C   UNL     1      44.637   5.338  11.345  0.00  0.00    +0.000 A 
ATOM      2  C   UNL     1      45.829   4.994  11.974  0.00  0.00    +0.000 A 
ATOM      3  C   UNL     1      46.502   5.958  12.725  0.00  0.00    +0.000 A 
ATOM      4  C   UNL     1      45.992   7.249  12.816  0.00  0.00    +0.000 A 
ATOM      5  N   UNL     1      46.540   8.226  13.617  0.00  0.00    +0.000 N 
ATOM      6  N   UNL     1      44.849   7.596  12.193  0.00  0.00    +0.000 NA
ATOM      7  C   UNL     1      44.198   6.646  11.469  0.00  0.00    +0.000 A 
ATOM      8  H   UNL     1      46.046   9.098  13.435  0.00  0.00    +0.000 HD
ENDROOT
BRANCH   1  10
ATOM      9  N   UNL     1      43.927   4.469   9.191  0.00  0.00    +0.000 N 
ATOM     10  C   UNL     1      43.838   4.380  10.553  0.00  0.00    +0.000 C 
ATOM     11  O   UNL     1      43.154   3.521  11.090  0.00  0.00    +0.000 OA
ATOM     12  H   UNL     1      43.456   3.745   8.663  0.00  0.00    +0.000 HD
ATOM     13  H   UNL     1      44.663   4.978   8.723  0.00  0.00    +0.000 HD
ENDBRANCH   1  10
BRANCH   5  14
ATOM     14  C   UNL     1      47.974   8.373  13.781  0.00  0.00    +0.000 C 
BRANCH  14  15
ATOM     15  C   UNL     1      48.388   7.931  15.167  0.00  0.00    +0.000 A 
ATOM     16  C   UNL     1      48.347   8.804  16.259  0.00  0.00    +0.000 A 
ATOM     17  C   UNL     1      48.696   8.325  17.507  0.00  0.00    +0.000 A 
ATOM     18  N   UNL     1      49.070   7.051  17.746  0.00  0.00    +0.000 NA
ATOM     19  C   UNL     1      49.103   6.187  16.694  0.00  0.00    +0.000 A 
ATOM     20  C   UNL     1      48.752   6.600  15.404  0.00  0.00    +0.000 A 
BRANCH  19  21
ATOM     21  C   UNL     1      49.564   4.807  16.987  0.00  0.00    +0.000 A 
ATOM     22  C   UNL     1      50.840   4.547  17.497  0.00  0.00    +0.000 A 
ATOM     23  C   UNL     1      51.249   3.230  17.693  0.00  0.00    +0.000 A 
ATOM     24  C   UNL     1      50.376   2.196  17.388  0.00  0.00    +0.000 A 
ATOM     25  C   UNL     1      49.121   2.526  16.905  0.00  0.00    +0.000 A 
ATOM     26  N   UNL     1      48.698   3.793  16.702  0.00  0.00    +0.000 NA
ENDBRANCH  19  21
ENDBRANCH  14  15
ENDBRANCH   5  14
TORSDOF 4
ENDMDL
MODEL 8
REMARK VINA RESULT:    -6.295      5.477      7.598
REMARK INTER + INTRA:          -8.501
REMARK INTER:                  -7.885
REMARK INTRA:                  -0.616
REMARK UNBOUND:                -0.735
REMARK  Name = 
REMARK  4 active torsions:
REMARK  status: ('A' for Active; 'I' for Inactive)
REMARK    1  A    between atoms: C_2  and  C_4
REMARK    2  A    between atoms: N_8  and  C_9
REMARK    3  A    between atoms: C_9  and  C_10
REMARK    4  A    between atoms: C_14  and  C_15
REMARK                            x       y       z     vdW  Elec       q    Type
REMARK                         _______ _______ _______ _____ _____    ______ ____
ROOT
ATOM      1  C   UNL     1      45.569   4.935  11.663  0.00  0.00    +0.000 A 
ATOM      2  C   UNL     1      46.157   5.867  12.511  0.00  0.00    +0.000 A 
ATOM      3  C   UNL     1      46.667   5.441  13.738  0.00  0.00    +0.000 A 
ATOM      4  C   UNL     1      46.560   4.104  14.108  0.00  0.00    +0.000 A 
ATOM      5  N   UNL     1      47.126   3.586  15.251  0.00  0.00    +0.000 N 
ATOM      6  N   UNL     1      45.973   3.199  13.301  0.00  0.00    +0.000 NA
ATOM      7  C   UNL     1      45.486   3.625  12.105  0.00  0.00    +0.000 A 
ATOM      8  H   UNL     1      46.826   2.617  15.341  0.00  0.00    +0.000 HD
ENDROOT
BRANCH   1  10
ATOM      9  N   UNL     1      43.676   5.471  10.239  0.00  0.00    +0.000 N 
ATOM     10  C   UNL     1      45.028   5.285  10.333  0.00  0.00    +0.000 C 
ATOM     11  O   UNL     1      45.759   5.437   9.366  0.00  0.00    +0.000 OA
ATOM     12  H   UNL     1      43.331   5.807   9.348  0.00  0.00    +0.000 HD
ATOM     13  H   UNL     1      43.084   5.609  11.045  0.00  0.00    +0.000 HD
ENDBRANCH   1  10
BRANCH   5  14
ATOM     14  C   UNL     1      47.151   4.324  16.500  0.00  0.00    +0.000 C 
BRANCH  14  15
ATOM     15  C   UNL     1      48.577   4.655  16.882  0.00  0.00    +0.000 A 
ATOM     16  C   UNL     1      49.011   5.976  17.029  0.00  0.00    +0.000 A 
ATOM     17  C   UNL     1      50.313   6.209  17.424  0.00  0.00    +0.000 A 
ATOM     18  N   UNL     1      51.205   5.232  17.689  0.00  0.00    +0.000 NA
ATOM     19  C   UNL     1      50.793   3.940  17.562  0.00  0.00    +0.000 A 
ATOM     20  C   UNL     1      49.485   3.630  17.177  0.00  0.00    +0.000 A 
BRANCH  19  21
ATOM     21  C   UNL     1      51.814   2.894  17.817  0.00  0.00    +0.000 A 
ATOM     22  C   UNL     1      53.045   3.191  18.411  0.00  0.00    +0.000 A 
ATOM     23  C   UNL     1      53.996   2.186  18.569  0.00  0.00    +0.000 A 
ATOM     24  C   UNL     1      53.701   0.901  18.141  0.00  0.00    +0.000 A 
ATOM     25  C   UNL     1      52.457   0.672  17.578  0.00  0.00    +0.000 A 
ATOM     26  N   UNL     1      51.516   1.627  17.410  0.00  0.00    +0.000 NA
ENDBRANCH  19  21
ENDBRANCH  14  15
ENDBRANCH   5  14
TORSDOF 4
ENDMDL
MODEL 9
REMARK VINA RESULT:    -6.264      4.643      8.137
REMARK INTER + INTRA:          -8.463
REMARK INTER:                  -7.997
REMARK INTRA:                  -0.467
REMARK UNBOUND:                -0.735
REMARK  Name = 
REMARK  4 active torsions:
REMARK  status: ('A' for Active; 'I' for Inactive)
REMARK    1  A    between atoms: C_2  and  C_4
REMARK    2  A    between atoms: N_8  and  C_9
REMARK    3  A    between atoms: C_9  and  C_10
REMARK    4  A    between atoms: C_14  and  C_15
REMARK                            x       y       z     vdW  Elec       q    Type
REMARK                         _______ _______ _______ _____ _____    ______ ____
ROOT
ATOM      1  C   UNL     1      50.549   4.864  17.637  0.00  0.00    +0.000 A 
ATOM      2  C   UNL     1      50.777   6.121  17.087  0.00  0.00    +0.000 A 
ATOM      3  C   UNL     1      49.855   6.642  16.178  0.00  0.00    +0.000 A 
ATOM      4  C   UNL     1      48.739   5.895  15.817  0.00  0.00    +0.000 A 
ATOM      5  N   UNL     1      47.733   6.377  15.009  0.00  0.00    +0.000 N 
ATOM      6  N   UNL     1      48.520   4.669  16.330  0.00  0.00    +0.000 NA
ATOM      7  C   UNL     1      49.422   4.174  17.219  0.00  0.00    +0.000 A 
ATOM      8  H   UNL     1      47.086   5.614  14.820  0.00  0.00    +0.000 HD
ENDROOT
BRANCH   1  10
ATOM      9  N   UNL     1      51.658   2.894  18.524  0.00  0.00    +0.000 N 
ATOM     10  C   UNL     1      51.451   4.243  18.628  0.00  0.00    +0.000 C 
ATOM     11  O   UNL     1      52.018   4.908  19.482  0.00  0.00    +0.000 OA
ATOM     12  H   UNL     1      52.354   2.498  19.143  0.00  0.00    +0.000 HD
ATOM     13  H   UNL     1      51.423   2.367  17.696  0.00  0.00    +0.000 HD
ENDBRANCH   1  10
BRANCH   5  14
ATOM     14  C   UNL     1      48.005   7.230  13.867  0.00  0.00    +0.000 C 
BRANCH  14  15
ATOM     15  C   UNL     1      46.838   7.202  12.905  0.00  0.00    +0.000 A 
ATOM     16  C   UNL     1      45.964   8.286  12.779  0.00  0.00    +0.000 A 
ATOM     17  C   UNL     1      44.945   8.215  11.850  0.00  0.00    +0.000 A 
ATOM     18  N   UNL     1      44.739   7.156  11.038  0.00  0.00    +0.000 NA
ATOM     19  C   UNL     1      45.591   6.098  11.142  0.00  0.00    +0.000 A 
ATOM     20  C   UNL     1      46.652   6.106  12.053  0.00  0.00    +0.000 A 
BRANCH  19  21
ATOM     21  C   UNL     1      45.306   4.934  10.266  0.00  0.00    +0.000 A 
ATOM     22  C   UNL     1      44.697   3.774  10.753  0.00  0.00    +0.000 A 
ATOM     23  C   UNL     1      44.511   2.684   9.906  0.00  0.00    +0.000 A 
ATOM     24  C   UNL     1      44.926   2.772   8.586  0.00  0.00    +0.000 A 
ATOM     25  C   UNL     1      45.505   3.957   8.165  0.00  0.00    +0.000 A 
ATOM     26  N   UNL     1      45.700   5.030   8.964  0.00  0.00    +0.000 NA
ENDBRANCH  19  21
ENDBRANCH  14  15
ENDBRANCH   5  14
TORSDOF 4
ENDMDL
