MODEL 1
REMARK VINA RESULT:    -7.237      0.000      0.000
REMARK INTER + INTRA:         -10.447
REMARK INTER:                  -9.987
REMARK INTRA:                  -0.459
REMARK UNBOUND:                -0.459
REMARK  Name = 
REMARK  7 active torsions:
REMARK  status: ('A' for Active; 'I' for Inactive)
REMARK    1  A    between atoms: N_1  and  C_2
REMARK    2  A    between atoms: C_2  and  C_3
REMARK    3  A    between atoms: C_3  and  C_4
REMARK    4  A    between atoms: C_8  and  O_9
REMARK    5  A    between atoms: O_9  and  C_10
REMARK    6  A    between atoms: C_10  and  C_11
REMARK    7  A    between atoms: C_11  and  C_12
REMARK                            x       y       z     vdW  Elec       q    Type
REMARK                         _______ _______ _______ _____ _____    ______ ____
ROOT
ATOM      1  C   UNL     1      45.448   4.934  12.783  0.00  0.00    +0.000 A 
ATOM      2  C   UNL     1      44.411   5.847  13.012  0.00  0.00    +0.000 A 
ATOM      3  C   UNL     1      43.156   5.650  12.435  0.00  0.00    +0.000 A 
ATOM      4  C   UNL     1      42.933   4.556  11.598  0.00  0.00    +0.000 A 
ATOM      5  C   UNL     1      43.972   3.669  11.319  0.00  0.00    +0.000 A 
ATOM      6  C   UNL     1      45.212   3.838  11.940  0.00  0.00    +0.000 A 
ENDROOT
BRANCH   1   7
ATOM      7  C   UNL     1      46.806   5.154  13.408  0.00  0.00    +0.000 C 
BRANCH   7   8
ATOM      8  C   UNL     1      46.930   4.468  14.774  0.00  0.00    +0.000 C 
BRANCH   8   9
ATOM      9  N   UNL     1      47.568   3.158  14.650  0.00  0.00    +0.000 NA
ATOM     10  H   UNL     1      47.356   2.600  15.477  0.00  0.00    +0.000 HD
ATOM     11  H   UNL     1      48.582   3.269  14.635  0.00  0.00    +0.000 HD
ENDBRANCH   8   9
ENDBRANCH   7   8
ENDBRANCH   1   7
BRANCH   5  12
ATOM     12  O   UNL     1      43.877   2.608  10.457  0.00  0.00    +0.000 OA
BRANCH  12  13
ATOM     13  C   UNL     1      44.444   2.833   9.159  0.00  0.00    +0.000 C 
BRANCH  13  14
ATOM     14  C   UNL     1      45.424   1.701   8.851  0.00  0.00    +0.000 C 
BRANCH  14  15
ATOM     15  C   UNL     1      46.289   2.021   7.664  0.00  0.00    +0.000 A 
ATOM     16  C   UNL     1      46.022   3.113   6.835  0.00  0.00    +0.000 A 
ATOM     17  C   UNL     1      46.832   3.354   5.730  0.00  0.00    +0.000 A 
ATOM     18  C   UNL     1      47.884   2.487   5.484  0.00  0.00    +0.000 A 
ATOM     19  N   UNL     1      48.168   1.420   6.256  0.00  0.00    +0.000 NA
ATOM     20  C   UNL     1      47.370   1.211   7.328  0.00  0.00    +0.000 A 
ENDBRANCH  14  15
ENDBRANCH  13  14
ENDBRANCH  12  13
ENDBRANCH   5  12
TORSDOF 7
ENDMDL
MODEL 2
REMARK VINA RESULT:    -7.170      1.229      6.177
REMARK INTER + INTRA:         -10.354
REMARK INTER:                  -9.591
REMARK INTRA:                  -0.763
REMARK UNBOUND:                -0.459
REMARK  Name = 
REMARK  7 active torsions:
REMARK  status: ('A' for Active; 'I' for Inactive)
REMARK    1  A    between atoms: N_1  and  C_2
REMARK    2  A    between atoms: C_2  and  C_3
REMARK    3  A    between atoms: C_3  and  C_4
REMARK    4  A    between atoms: C_8  and  O_9
REMARK    5  A    between atoms: O_9  and  C_10
REMARK    6  A    between atoms: C_10  and  C_11
REMARK    7  A    between atoms: C_11  and  C_12
REMARK                            x       y       z     vdW  Elec       q    Type
REMARK                         _______ _______ _______ _____ _____    ______ ____
ROOT
ATOM      1  C   UNL     1      46.120   2.420   8.055  0.00  0.00    +0.000 A 
ATOM      2  C   UNL     1      46.325   3.762   7.707  0.00  0.00    +0.000 A 
ATOM      3  C   UNL     1      45.675   4.779   8.405  0.00  0.00    +0.000 A 
ATOM      4  C   UNL     1      44.790   4.467   9.438  0.00  0.00    +0.000 A 
ATOM      5  C   UNL     1      44.536   3.134   9.759  0.00  0.00    +0.000 A 
ATOM      6  C   UNL     1      45.229   2.118   9.095  0.00  0.00    +0.000 A 
ENDROOT
BRANCH   1   7
ATOM      7  C   UNL     1      46.825   1.322   7.294  0.00  0.00    +0.000 C 
BRANCH   7   8
ATOM      8  C   UNL     1      48.229   1.742   6.842  0.00  0.00    +0.000 C 
BRANCH   8   9
ATOM      9  N   UNL     1      48.311   1.826   5.385  0.00  0.00    +0.000 NA
ATOM     10  H   UNL     1      47.628   1.192   4.972  0.00  0.00    +0.000 HD
ATOM     11  H   UNL     1      49.226   1.500   5.073  0.00  0.00    +0.000 HD
ENDBRANCH   8   9
ENDBRANCH   7   8
ENDBRANCH   1   7
BRANCH   5  12
ATOM     12  O   UNL     1      43.634   2.720  10.704  0.00  0.00    +0.000 OA
BRANCH  12  13
ATOM     13  C   UNL     1      43.121   3.763  11.544  0.00  0.00    +0.000 C 
BRANCH  13  14
ATOM     14  C   UNL     1      43.763   3.637  12.925  0.00  0.00    +0.000 C 
BRANCH  14  15
ATOM     15  C   UNL     1      44.955   4.543  13.069  0.00  0.00    +0.000 A 
ATOM     16  C   UNL     1      44.859   5.920  12.861  0.00  0.00    +0.000 A 
ATOM     17  C   UNL     1      45.995   6.715  12.976  0.00  0.00    +0.000 A 
ATOM     18  C   UNL     1      47.197   6.104  13.291  0.00  0.00    +0.000 A 
ATOM     19  N   UNL     1      47.330   4.778  13.493  0.00  0.00    +0.000 NA
ATOM     20  C   UNL     1      46.210   4.027  13.381  0.00  0.00    +0.000 A 
ENDBRANCH  14  15
ENDBRANCH  13  14
ENDBRANCH  12  13
ENDBRANCH   5  12
TORSDOF 7
ENDMDL
MODEL 3
REMARK VINA RESULT:    -6.973      1.468      6.529
REMARK INTER + INTRA:         -10.082
REMARK INTER:                  -9.393
REMARK INTRA:                  -0.689
REMARK UNBOUND:                -0.459
REMARK  Name = 
REMARK  7 active torsions:
REMARK  status: ('A' for Active; 'I' for Inactive)
REMARK    1  A    between atoms: N_1  and  C_2
REMARK    2  A    between atoms: C_2  and  C_3
REMARK    3  A    between atoms: C_3  and  C_4
REMARK    4  A    between atoms: C_8  and  O_9
REMARK    5  A    between atoms: O_9  and  C_10
REMARK    6  A    between atoms: C_10  and  C_11
REMARK    7  A    between atoms: C_11  and  C_12
REMARK                            x       y       z     vdW  Elec       q    Type
REMARK                         _______ _______ _______ _____ _____    ______ ____
ROOT
ATOM      1  C   UNL     1      46.037   3.278   7.838  0.00  0.00    +0.000 A 
ATOM      2  C   UNL     1      45.899   1.928   8.187  0.00  0.00    +0.000 A 
ATOM      3  C   UNL     1      44.978   1.542   9.161  0.00  0.00    +0.000 A 
ATOM      4  C   UNL     1      44.208   2.501   9.820  0.00  0.00    +0.000 A 
ATOM      5  C   UNL     1      44.374   3.853   9.520  0.00  0.00    +0.000 A 
ATOM      6  C   UNL     1      45.258   4.234   8.507  0.00  0.00    +0.000 A 
ENDROOT
BRANCH   1   7
ATOM      7  C   UNL     1      47.037   3.692   6.785  0.00  0.00    +0.000 C 
BRANCH   7   8
ATOM      8  C   UNL     1      47.088   2.700   5.617  0.00  0.00    +0.000 C 
BRANCH   8   9
ATOM      9  N   UNL     1      48.397   2.054   5.529  0.00  0.00    +0.000 NA
ATOM     10  H   UNL     1      48.290   1.131   5.110  0.00  0.00    +0.000 HD
ATOM     11  H   UNL     1      48.767   1.899   6.467  0.00  0.00    +0.000 HD
ENDBRANCH   8   9
ENDBRANCH   7   8
ENDBRANCH   1   7
BRANCH   5  12
ATOM     12  O   UNL     1      43.722   4.876  10.157  0.00  0.00    +0.000 OA
BRANCH  12  13
ATOM     13  C   UNL     1      42.973   4.484  11.316  0.00  0.00    +0.000 C 
BRANCH  13  14
ATOM     14  C   UNL     1      43.161   5.545  12.400  0.00  0.00    +0.000 C 
BRANCH  14  15
ATOM     15  C   UNL     1      44.606   5.690  12.793  0.00  0.00    +0.000 A 
ATOM     16  C   UNL     1      45.348   4.607  13.269  0.00  0.00    +0.000 A 
ATOM     17  C   UNL     1      46.672   4.793  13.650  0.00  0.00    +0.000 A 
ATOM     18  C   UNL     1      47.214   6.064  13.547  0.00  0.00    +0.000 A 
ATOM     19  N   UNL     1      46.528   7.134  13.099  0.00  0.00    +0.000 NA
ATOM     20  C   UNL     1      45.243   6.925  12.730  0.00  0.00    +0.000 A 
ENDBRANCH  14  15
ENDBRANCH  13  14
ENDBRANCH  12  13
ENDBRANCH   5  12
TORSDOF 7
ENDMDL
MODEL 4
REMARK VINA RESULT:    -6.858      2.370      2.995
REMARK INTER + INTRA:          -9.923
REMARK INTER:                  -9.369
REMARK INTRA:                  -0.554
REMARK UNBOUND:                -0.459
REMARK  Name = 
REMARK  7 active torsions:
REMARK  status: ('A' for Active; 'I' for Inactive)
REMARK    1  A    between atoms: N_1  and  C_2
REMARK    2  A    between atoms: C_2  and  C_3
REMARK    3  A    between atoms: C_3  and  C_4
REMARK    4  A    between atoms: C_8  and  O_9
REMARK    5  A    between atoms: O_9  and  C_10
REMARK    6  A    between atoms: C_10  and  C_11
REMARK    7  A    between atoms: C_11  and  C_12
REMARK                            x       y       z     vdW  Elec       q    Type
REMARK                         _______ _______ _______ _____ _____    ______ ____
ROOT
ATOM      1  C   UNL     1      45.878   6.634  12.676  0.00  0.00    +0.000 A 
ATOM      2  C   UNL     1      46.563   5.753  13.523  0.00  0.00    +0.000 A 
ATOM      3  C   UNL     1      46.357   4.377  13.425  0.00  0.00    +0.000 A 
ATOM      4  C   UNL     1      45.443   3.868  12.502  0.00  0.00    +0.000 A 
ATOM      5  C   UNL     1      44.715   4.737  11.690  0.00  0.00    +0.000 A 
ATOM      6  C   UNL     1      44.961   6.111  11.752  0.00  0.00    +0.000 A 
ENDROOT
BRANCH   1   7
ATOM      7  C   UNL     1      46.102   8.124  12.789  0.00  0.00    +0.000 C 
BRANCH   7   8
ATOM      8  C   UNL     1      45.169   8.918  11.867  0.00  0.00    +0.000 C 
BRANCH   8   9
ATOM      9  N   UNL     1      44.504   9.999  12.594  0.00  0.00    +0.000 NA
ATOM     10  H   UNL     1      44.156  10.688  11.928  0.00  0.00    +0.000 HD
ATOM     11  H   UNL     1      45.182  10.487  13.179  0.00  0.00    +0.000 HD
ENDBRANCH   8   9
ENDBRANCH   7   8
ENDBRANCH   1   7
BRANCH   5  12
ATOM     12  O   UNL     1      43.746   4.345  10.805  0.00  0.00    +0.000 OA
BRANCH  12  13
ATOM     13  C   UNL     1      44.122   3.267   9.937  0.00  0.00    +0.000 C 
BRANCH  13  14
ATOM     14  C   UNL     1      44.634   3.854   8.622  0.00  0.00    +0.000 C 
BRANCH  14  15
ATOM     15  C   UNL     1      45.681   2.978   7.992  0.00  0.00    +0.000 A 
ATOM     16  C   UNL     1      46.470   3.426   6.930  0.00  0.00    +0.000 A 
ATOM     17  C   UNL     1      47.406   2.571   6.358  0.00  0.00    +0.000 A 
ATOM     18  C   UNL     1      47.520   1.287   6.864  0.00  0.00    +0.000 A 
ATOM     19  N   UNL     1      46.773   0.817   7.883  0.00  0.00    +0.000 NA
ATOM     20  C   UNL     1      45.874   1.670   8.426  0.00  0.00    +0.000 A 
ENDBRANCH  14  15
ENDBRANCH  13  14
ENDBRANCH  12  13
ENDBRANCH   5  12
TORSDOF 7
ENDMDL
MODEL 5
REMARK VINA RESULT:    -6.594      2.266      2.974
REMARK INTER + INTRA:          -9.559
REMARK INTER:                  -9.046
REMARK INTRA:                  -0.513
REMARK UNBOUND:                -0.459
REMARK  Name = 
REMARK  7 active torsions:
REMARK  status: ('A' for Active; 'I' for Inactive)
REMARK    1  A    between atoms: N_1  and  C_2
REMARK    2  A    between atoms: C_2  and  C_3
REMARK    3  A    between atoms: C_3  and  C_4
REMARK    4  A    between atoms: C_8  and  O_9
REMARK    5  A    between atoms: O_9  and  C_10
REMARK    6  A    between atoms: C_10  and  C_11
REMARK    7  A    between atoms: C_11  and  C_12
REMARK                            x       y       z     vdW  Elec       q    Type
REMARK                         _______ _______ _______ _____ _____    ______ ____
ROOT
ATOM      1  C   UNL     1      47.293   6.740  12.481  0.00  0.00    +0.000 A 
ATOM      2  C   UNL     1      47.464   5.896  13.586  0.00  0.00    +0.000 A 
ATOM      3  C   UNL     1      46.685   4.747  13.724  0.00  0.00    +0.000 A 
ATOM      4  C   UNL     1      45.706   4.446  12.777  0.00  0.00    +0.000 A 
ATOM      5  C   UNL     1      45.488   5.306  11.701  0.00  0.00    +0.000 A 
ATOM      6  C   UNL     1      46.305   6.427  11.535  0.00  0.00    +0.000 A 
ENDROOT
BRANCH   1   7
ATOM      7  C   UNL     1      48.137   7.985  12.338  0.00  0.00    +0.000 C 
BRANCH   7   8
ATOM      8  C   UNL     1      49.355   7.755  11.435  0.00  0.00    +0.000 C 
BRANCH   8   9
ATOM      9  N   UNL     1      50.548   7.454  12.225  0.00  0.00    +0.000 NA
ATOM     10  H   UNL     1      50.663   6.443  12.288  0.00  0.00    +0.000 HD
ATOM     11  H   UNL     1      50.419   7.785  13.181  0.00  0.00    +0.000 HD
ENDBRANCH   8   9
ENDBRANCH   7   8
ENDBRANCH   1   7
BRANCH   5  12
ATOM     12  O   UNL     1      44.508   5.139  10.758  0.00  0.00    +0.000 OA
BRANCH  12  13
ATOM     13  C   UNL     1      44.490   3.850  10.129  0.00  0.00    +0.000 C 
BRANCH  13  14
ATOM     14  C   UNL     1      44.668   4.040   8.623  0.00  0.00    +0.000 C 
BRANCH  14  15
ATOM     15  C   UNL     1      45.653   3.058   8.051  0.00  0.00    +0.000 A 
ATOM     16  C   UNL     1      46.510   3.404   7.004  0.00  0.00    +0.000 A 
ATOM     17  C   UNL     1      47.383   2.454   6.486  0.00  0.00    +0.000 A 
ATOM     18  C   UNL     1      47.368   1.180   7.029  0.00  0.00    +0.000 A 
ATOM     19  N   UNL     1      46.552   0.807   8.035  0.00  0.00    +0.000 NA
ATOM     20  C   UNL     1      45.716   1.751   8.525  0.00  0.00    +0.000 A 
ENDBRANCH  14  15
ENDBRANCH  13  14
ENDBRANCH  12  13
ENDBRANCH   5  12
TORSDOF 7
ENDMDL
MODEL 6
REMARK VINA RESULT:    -6.581      2.422      6.663
REMARK INTER + INTRA:          -9.542
REMARK INTER:                  -8.906
REMARK INTRA:                  -0.636
REMARK UNBOUND:                -0.459
REMARK  Name = 
REMARK  7 active torsions:
REMARK  status: ('A' for Active; 'I' for Inactive)
REMARK    1  A    between atoms: N_1  and  C_2
REMARK    2  A    between atoms: C_2  and  C_3
REMARK    3  A    between atoms: C_3  and  C_4
REMARK    4  A    between atoms: C_8  and  O_9
REMARK    5  A    between atoms: O_9  and  C_10
REMARK    6  A    between atoms: C_10  and  C_11
REMARK    7  A    between atoms: C_11  and  C_12
REMARK                            x       y       z     vdW  Elec       q    Type
REMARK                         _______ _______ _______ _____ _____    ______ ____
ROOT
ATOM      1  C   UNL     1      46.054   3.390   7.881  0.00  0.00    +0.000 A 
ATOM      2  C   UNL     1      45.710   2.063   8.171  0.00  0.00    +0.000 A 
ATOM      3  C   UNL     1      44.796   1.776   9.185  0.00  0.00    +0.000 A 
ATOM      4  C   UNL     1      44.240   2.809   9.941  0.00  0.00    +0.000 A 
ATOM      5  C   UNL     1      44.615   4.130   9.698  0.00  0.00    +0.000 A 
ATOM      6  C   UNL     1      45.489   4.419   8.647  0.00  0.00    +0.000 A 
ENDROOT
BRANCH   1   7
ATOM      7  C   UNL     1      47.047   3.694   6.784  0.00  0.00    +0.000 C 
BRANCH   7   8
ATOM      8  C   UNL     1      47.117   2.572   5.742  0.00  0.00    +0.000 C 
BRANCH   8   9
ATOM      9  N   UNL     1      48.432   1.931   5.744  0.00  0.00    +0.000 NA
ATOM     10  H   UNL     1      49.011   2.349   5.017  0.00  0.00    +0.000 HD
ATOM     11  H   UNL     1      48.334   0.946   5.499  0.00  0.00    +0.000 HD
ENDBRANCH   8   9
ENDBRANCH   7   8
ENDBRANCH   1   7
BRANCH   5  12
ATOM     12  O   UNL     1      44.184   5.207  10.428  0.00  0.00    +0.000 OA
BRANCH  12  13
ATOM     13  C   UNL     1      44.330   5.070  11.848  0.00  0.00    +0.000 C 
BRANCH  13  14
ATOM     14  C   UNL     1      45.813   5.189  12.199  0.00  0.00    +0.000 C 
BRANCH  14  15
ATOM     15  C   UNL     1      46.255   6.624  12.271  0.00  0.00    +0.000 A 
ATOM     16  C   UNL     1      47.543   7.015  11.898  0.00  0.00    +0.000 A 
ATOM     17  C   UNL     1      47.917   8.350  12.010  0.00  0.00    +0.000 A 
ATOM     18  C   UNL     1      46.990   9.255  12.500  0.00  0.00    +0.000 A 
ATOM     19  N   UNL     1      45.741   8.915  12.876  0.00  0.00    +0.000 NA
ATOM     20  C   UNL     1      45.399   7.611  12.752  0.00  0.00    +0.000 A 
ENDBRANCH  14  15
ENDBRANCH  13  14
ENDBRANCH  12  13
ENDBRANCH   5  12
TORSDOF 7
ENDMDL
MODEL 7
REMARK VINA RESULT:    -6.577      1.374      1.968
REMARK INTER + INTRA:          -9.536
REMARK INTER:                  -9.037
REMARK INTRA:                  -0.499
REMARK UNBOUND:                -0.459
REMARK  Name = 
REMARK  7 active torsions:
REMARK  status: ('A' for Active; 'I' for Inactive)
REMARK    1  A    between atoms: N_1  and  C_2
REMARK    2  A    between atoms: C_2  and  C_3
REMARK    3  A    between atoms: C_3  and  C_4
REMARK    4  A    between atoms: C_8  and  O_9
REMARK    5  A    between atoms: O_9  and  C_10
REMARK    6  A    between atoms: C_10  and  C_11
REMARK    7  A    between atoms: C_11  and  C_12
REMARK                            x       y       z     vdW  Elec       q    Type
REMARK                         _______ _______ _______ _____ _____    ______ ____
ROOT
ATOM      1  C   UNL     1      46.335   4.587  13.447  0.00  0.00    +0.000 A 
ATOM      2  C   UNL     1      46.694   5.931  13.281  0.00  0.00    +0.000 A 
ATOM      3  C   UNL     1      46.007   6.739  12.376  0.00  0.00    +0.000 A 
ATOM      4  C   UNL     1      44.974   6.206  11.604  0.00  0.00    +0.000 A 
ATOM      5  C   UNL     1      44.641   4.856  11.720  0.00  0.00    +0.000 A 
ATOM      6  C   UNL     1      45.295   4.062  12.666  0.00  0.00    +0.000 A 
ENDROOT
BRANCH   1   7
ATOM      7  C   UNL     1      47.084   3.715  14.427  0.00  0.00    +0.000 C 
BRANCH   7   8
ATOM      8  C   UNL     1      47.202   4.371  15.809  0.00  0.00    +0.000 C 
BRANCH   8   9
ATOM      9  N   UNL     1      46.737   3.469  16.862  0.00  0.00    +0.000 NA
ATOM     10  H   UNL     1      47.147   3.750  17.752  0.00  0.00    +0.000 HD
ATOM     11  H   UNL     1      47.075   2.524  16.679  0.00  0.00    +0.000 HD
ENDBRANCH   8   9
ENDBRANCH   7   8
ENDBRANCH   1   7
BRANCH   5  12
ATOM     12  O   UNL     1      43.695   4.220  10.960  0.00  0.00    +0.000 OA
BRANCH  12  13
ATOM     13  C   UNL     1      44.051   4.041   9.582  0.00  0.00    +0.000 C 
BRANCH  13  14
ATOM     14  C   UNL     1      44.620   2.633   9.404  0.00  0.00    +0.000 C 
BRANCH  14  15
ATOM     15  C   UNL     1      45.618   2.574   8.281  0.00  0.00    +0.000 A 
ATOM     16  C   UNL     1      46.416   1.448   8.067  0.00  0.00    +0.000 A 
ATOM     17  C   UNL     1      47.347   1.449   7.034  0.00  0.00    +0.000 A 
ATOM     18  C   UNL     1      47.456   2.584   6.248  0.00  0.00    +0.000 A 
ATOM     19  N   UNL     1      46.709   3.692   6.427  0.00  0.00    +0.000 NA
ATOM     20  C   UNL     1      45.806   3.663   7.435  0.00  0.00    +0.000 A 
ENDBRANCH  14  15
ENDBRANCH  13  14
ENDBRANCH  12  13
ENDBRANCH   5  12
TORSDOF 7
ENDMDL
MODEL 8
REMARK VINA RESULT:    -6.366      1.568      6.599
REMARK INTER + INTRA:          -9.245
REMARK INTER:                  -8.705
REMARK INTRA:                  -0.540
REMARK UNBOUND:                -0.459
REMARK  Name = 
REMARK  7 active torsions:
REMARK  status: ('A' for Active; 'I' for Inactive)
REMARK    1  A    between atoms: N_1  and  C_2
REMARK    2  A    between atoms: C_2  and  C_3
REMARK    3  A    between atoms: C_3  and  C_4
REMARK    4  A    between atoms: C_8  and  O_9
REMARK    5  A    between atoms: O_9  and  C_10
REMARK    6  A    between atoms: C_10  and  C_11
REMARK    7  A    between atoms: C_11  and  C_12
REMARK                            x       y       z     vdW  Elec       q    Type
REMARK                         _______ _______ _______ _____ _____    ______ ____
ROOT
ATOM      1  C   UNL     1      45.945   3.290   8.050  0.00  0.00    +0.000 A 
ATOM      2  C   UNL     1      45.276   2.127   8.454  0.00  0.00    +0.000 A 
ATOM      3  C   UNL     1      44.408   2.155   9.545  0.00  0.00    +0.000 A 
ATOM      4  C   UNL     1      44.223   3.336  10.265  0.00  0.00    +0.000 A 
ATOM      5  C   UNL     1      44.924   4.488   9.906  0.00  0.00    +0.000 A 
ATOM      6  C   UNL     1      45.751   4.472   8.780  0.00  0.00    +0.000 A 
ENDROOT
BRANCH   1   7
ATOM      7  C   UNL     1      46.886   3.254   6.869  0.00  0.00    +0.000 C 
BRANCH   7   8
ATOM      8  C   UNL     1      47.776   2.005   6.879  0.00  0.00    +0.000 C 
BRANCH   8   9
ATOM      9  N   UNL     1      48.495   1.860   5.613  0.00  0.00    +0.000 NA
ATOM     10  H   UNL     1      48.151   1.034   5.124  0.00  0.00    +0.000 HD
ATOM     11  H   UNL     1      49.484   1.690   5.798  0.00  0.00    +0.000 HD
ENDBRANCH   8   9
ENDBRANCH   7   8
ENDBRANCH   1   7
BRANCH   5  12
ATOM     12  O   UNL     1      44.868   5.675  10.588  0.00  0.00    +0.000 OA
BRANCH  12  13
ATOM     13  C   UNL     1      46.127   6.136  11.098  0.00  0.00    +0.000 C 
BRANCH  13  14
ATOM     14  C   UNL     1      45.943   6.534  12.562  0.00  0.00    +0.000 C 
BRANCH  14  15
ATOM     15  C   UNL     1      46.536   5.514  13.495  0.00  0.00    +0.000 A 
ATOM     16  C   UNL     1      47.222   5.889  14.652  0.00  0.00    +0.000 A 
ATOM     17  C   UNL     1      47.780   4.913  15.470  0.00  0.00    +0.000 A 
ATOM     18  C   UNL     1      47.640   3.586  15.100  0.00  0.00    +0.000 A 
ATOM     19  N   UNL     1      46.992   3.185  13.988  0.00  0.00    +0.000 NA
ATOM     20  C   UNL     1      46.452   4.154  13.212  0.00  0.00    +0.000 A 
ENDBRANCH  14  15
ENDBRANCH  13  14
ENDBRANCH  12  13
ENDBRANCH   5  12
TORSDOF 7
ENDMDL
MODEL 9
REMARK VINA RESULT:    -5.787      2.310      2.802
REMARK INTER + INTRA:          -8.446
REMARK INTER:                  -8.001
REMARK INTRA:                  -0.445
REMARK UNBOUND:                -0.459
REMARK  Name = 
REMARK  7 active torsions:
REMARK  status: ('A' for Active; 'I' for Inactive)
REMARK    1  A    between atoms: N_1  and  C_2
REMARK    2  A    between atoms: C_2  and  C_3
REMARK    3  A    between atoms: C_3  and  C_4
REMARK    4  A    between atoms: C_8  and  O_9
REMARK    5  A    between atoms: O_9  and  C_10
REMARK    6  A    between atoms: C_10  and  C_11
REMARK    7  A    between atoms: C_11  and  C_12
REMARK                            x       y       z     vdW  Elec       q    Type
REMARK                         _______ _______ _______ _____ _____    ______ ____
ROOT
ATOM      1  C   UNL     1      46.827   7.580  13.166  0.00  0.00    +0.000 A 
ATOM      2  C   UNL     1      46.074   8.674  12.717  0.00  0.00    +0.000 A 
ATOM      3  C   UNL     1      44.991   8.481  11.861  0.00  0.00    +0.000 A 
ATOM      4  C   UNL     1      44.666   7.198  11.418  0.00  0.00    +0.000 A 
ATOM      5  C   UNL     1      45.439   6.107  11.814  0.00  0.00    +0.000 A 
ATOM      6  C   UNL     1      46.491   6.295  12.715  0.00  0.00    +0.000 A 
ENDROOT
BRANCH   1   7
ATOM      7  C   UNL     1      48.001   7.795  14.092  0.00  0.00    +0.000 C 
BRANCH   7   8
ATOM      8  C   UNL     1      49.315   7.292  13.482  0.00  0.00    +0.000 C 
BRANCH   8   9
ATOM      9  N   UNL     1      50.303   7.005  14.522  0.00  0.00    +0.000 NA
ATOM     10  H   UNL     1      50.108   6.090  14.928  0.00  0.00    +0.000 HD
ATOM     11  H   UNL     1      50.208   7.679  15.281  0.00  0.00    +0.000 HD
ENDBRANCH   8   9
ENDBRANCH   7   8
ENDBRANCH   1   7
BRANCH   5  12
ATOM     12  O   UNL     1      45.249   4.821  11.382  0.00  0.00    +0.000 OA
BRANCH  12  13
ATOM     13  C   UNL     1      44.259   4.671  10.354  0.00  0.00    +0.000 C 
BRANCH  13  14
ATOM     14  C   UNL     1      44.225   3.207   9.919  0.00  0.00    +0.000 C 
BRANCH  14  15
ATOM     15  C   UNL     1      45.264   2.912   8.873  0.00  0.00    +0.000 A 
ATOM     16  C   UNL     1      45.763   3.911   8.033  0.00  0.00    +0.000 A 
ATOM     17  C   UNL     1      46.701   3.587   7.059  0.00  0.00    +0.000 A 
ATOM     18  C   UNL     1      47.109   2.267   6.951  0.00  0.00    +0.000 A 
ATOM     19  N   UNL     1      46.646   1.276   7.738  0.00  0.00    +0.000 NA
ATOM     20  C   UNL     1      45.738   1.618   8.682  0.00  0.00    +0.000 A 
ENDBRANCH  14  15
ENDBRANCH  13  14
ENDBRANCH  12  13
ENDBRANCH   5  12
TORSDOF 7
ENDMDL
