MODEL 1
REMARK VINA RESULT:    -7.939      0.000      0.000
REMARK INTER + INTRA:         -10.459
REMARK INTER:                  -9.795
REMARK INTRA:                  -0.664
REMARK UNBOUND:                -0.664
REMARK  Name = 
REMARK  5 active torsions:
REMARK  status: ('A' for Active; 'I' for Inactive)
REMARK    1  A    between atoms: C_1  and  C_2
REMARK    2  A    between atoms: C_2  and  O_3
REMARK    3  A    between atoms: C_2  and  C_13
REMARK    4  A    between atoms: O_3  and  C_4
REMARK    5  A    between atoms: C_7  and  C_8
REMARK                            x       y       z     vdW  Elec       q    Type
REMARK                         _______ _______ _______ _____ _____    ______ ____
ROOT
ATOM      1  C   UNL     1      44.479   3.848   9.254  0.00  0.00    +0.000 A 
ATOM      2  C   UNL     1      44.482   2.469   9.427  0.00  0.00    +0.000 A 
ATOM      3  C   UNL     1      45.391   1.680   8.741  0.00  0.00    +0.000 A 
ATOM      4  C   UNL     1      46.293   2.294   7.888  0.00  0.00    +0.000 A 
ATOM      5  N   UNL     1      46.333   3.640   7.678  0.00  0.00    +0.000 NA
ATOM      6  C   UNL     1      45.413   4.377   8.364  0.00  0.00    +0.000 A 
ENDROOT
BRANCH   4   7
ATOM      7  C   UNL     1      47.274   1.426   7.162  0.00  0.00    +0.000 C 
ATOM      8  N   UNL     1      48.383   2.048   6.661  0.00  0.00    +0.000 N 
ATOM      9  O   UNL     1      47.102   0.221   7.020  0.00  0.00    +0.000 OA
ATOM     10  H   UNL     1      48.502   3.050   6.784  0.00  0.00    +0.000 HD
ATOM     11  H   UNL     1      49.069   1.506   6.156  0.00  0.00    +0.000 HD
ENDBRANCH   4   7
BRANCH   1  12
ATOM     12  O   UNL     1      43.600   4.708   9.854  0.00  0.00    +0.000 OA
BRANCH  12  14
ATOM     13  C   UNL     1      42.286   5.478  11.799  0.00  0.00    +0.000 C 
ATOM     14  C   UNL     1      43.428   4.591  11.281  0.00  0.00    +0.000 C 
BRANCH  14  15
ATOM     15  C   UNL     1      44.731   5.026  11.930  0.00  0.00    +0.000 A 
ATOM     16  C   UNL     1      45.391   4.179  12.839  0.00  0.00    +0.000 A 
ATOM     17  C   UNL     1      46.599   4.568  13.421  0.00  0.00    +0.000 A 
ATOM     18  C   UNL     1      47.146   5.806  13.106  0.00  0.00    +0.000 A 
ATOM     19  F   UNL     1      48.317   6.167  13.648  0.00  0.00    +0.000 F 
ATOM     20  C   UNL     1      46.499   6.673  12.237  0.00  0.00    +0.000 A 
ATOM     21  C   UNL     1      45.294   6.285  11.651  0.00  0.00    +0.000 A 
ENDBRANCH  14  15
ENDBRANCH  12  14
ENDBRANCH   1  12
TORSDOF 4
ENDMDL
MODEL 2
REMARK VINA RESULT:    -6.700      3.737      6.590
REMARK INTER + INTRA:          -8.931
REMARK INTER:                  -8.346
REMARK INTRA:                  -0.585
REMARK UNBOUND:                -0.664
REMARK  Name = 
REMARK  5 active torsions:
REMARK  status: ('A' for Active; 'I' for Inactive)
REMARK    1  A    between atoms: C_1  and  C_2
REMARK    2  A    between atoms: C_2  and  O_3
REMARK    3  A    between atoms: C_2  and  C_13
REMARK    4  A    between atoms: O_3  and  C_4
REMARK    5  A    between atoms: C_7  and  C_8
REMARK                            x       y       z     vdW  Elec       q    Type
REMARK                         _______ _______ _______ _____ _____    ______ ____
ROOT
ATOM      1  C   UNL     1      45.429   5.637  11.608  0.00  0.00    +0.000 A 
ATOM      2  C   UNL     1      46.565   6.343  11.986  0.00  0.00    +0.000 A 
ATOM      3  C   UNL     1      46.519   7.722  12.120  0.00  0.00    +0.000 A 
ATOM      4  C   UNL     1      45.322   8.374  11.875  0.00  0.00    +0.000 A 
ATOM      5  N   UNL     1      44.179   7.733  11.500  0.00  0.00    +0.000 NA
ATOM      6  C   UNL     1      44.272   6.379  11.368  0.00  0.00    +0.000 A 
ENDROOT
BRANCH   4   7
ATOM      7  C   UNL     1      45.289   9.863  12.035  0.00  0.00    +0.000 C 
ATOM      8  N   UNL     1      44.057  10.430  12.205  0.00  0.00    +0.000 N 
ATOM      9  O   UNL     1      46.306  10.545  12.016  0.00  0.00    +0.000 OA
ATOM     10  H   UNL     1      43.226   9.845  12.210  0.00  0.00    +0.000 HD
ATOM     11  H   UNL     1      43.984  11.432  12.308  0.00  0.00    +0.000 HD
ENDBRANCH   4   7
BRANCH   1  12
ATOM     12  O   UNL     1      45.380   4.284  11.412  0.00  0.00    +0.000 OA
BRANCH  12  14
ATOM     13  C   UNL     1      43.586   2.636  11.007  0.00  0.00    +0.000 C 
ATOM     14  C   UNL     1      44.430   3.789  10.446  0.00  0.00    +0.000 C 
BRANCH  14  15
ATOM     15  C   UNL     1      45.222   3.290   9.249  0.00  0.00    +0.000 A 
ATOM     16  C   UNL     1      45.720   4.198   8.297  0.00  0.00    +0.000 A 
ATOM     17  C   UNL     1      46.465   3.745   7.207  0.00  0.00    +0.000 A 
ATOM     18  C   UNL     1      46.706   2.384   7.058  0.00  0.00    +0.000 A 
ATOM     19  F   UNL     1      47.441   1.954   6.024  0.00  0.00    +0.000 F 
ATOM     20  C   UNL     1      46.199   1.465   7.966  0.00  0.00    +0.000 A 
ATOM     21  C   UNL     1      45.459   1.916   9.058  0.00  0.00    +0.000 A 
ENDBRANCH  14  15
ENDBRANCH  12  14
ENDBRANCH   1  12
TORSDOF 4
ENDMDL
MODEL 3
REMARK VINA RESULT:    -6.640      3.948      6.416
REMARK INTER + INTRA:          -8.857
REMARK INTER:                  -8.236
REMARK INTRA:                  -0.621
REMARK UNBOUND:                -0.664
REMARK  Name = 
REMARK  5 active torsions:
REMARK  status: ('A' for Active; 'I' for Inactive)
REMARK    1  A    between atoms: C_1  and  C_2
REMARK    2  A    between atoms: C_2  and  O_3
REMARK    3  A    between atoms: C_2  and  C_13
REMARK    4  A    between atoms: O_3  and  C_4
REMARK    5  A    between atoms: C_7  and  C_8
REMARK                            x       y       z     vdW  Elec       q    Type
REMARK                         _______ _______ _______ _____ _____    ______ ____
ROOT
ATOM      1  C   UNL     1      46.233   5.216  12.704  0.00  0.00    +0.000 A 
ATOM      2  C   UNL     1      46.747   6.353  12.091  0.00  0.00    +0.000 A 
ATOM      3  C   UNL     1      47.784   7.058  12.681  0.00  0.00    +0.000 A 
ATOM      4  C   UNL     1      48.297   6.603  13.885  0.00  0.00    +0.000 A 
ATOM      5  N   UNL     1      47.830   5.498  14.531  0.00  0.00    +0.000 NA
ATOM      6  C   UNL     1      46.802   4.842  13.922  0.00  0.00    +0.000 A 
ENDROOT
BRANCH   4   7
ATOM      7  C   UNL     1      49.424   7.372  14.503  0.00  0.00    +0.000 C 
ATOM      8  N   UNL     1      50.531   7.561  13.724  0.00  0.00    +0.000 N 
ATOM      9  O   UNL     1      49.366   7.813  15.644  0.00  0.00    +0.000 OA
ATOM     10  H   UNL     1      50.560   7.180  12.783  0.00  0.00    +0.000 HD
ATOM     11  H   UNL     1      51.320   8.066  14.101  0.00  0.00    +0.000 HD
ENDBRANCH   4   7
BRANCH   1  12
ATOM     12  O   UNL     1      45.188   4.476  12.224  0.00  0.00    +0.000 OA
BRANCH  12  14
ATOM     13  C   UNL     1      43.015   4.802  11.097  0.00  0.00    +0.000 C 
ATOM     14  C   UNL     1      44.542   4.943  11.022  0.00  0.00    +0.000 C 
BRANCH  14  15
ATOM     15  C   UNL     1      45.064   4.100   9.872  0.00  0.00    +0.000 A 
ATOM     16  C   UNL     1      45.696   4.709   8.773  0.00  0.00    +0.000 A 
ATOM     17  C   UNL     1      46.195   3.935   7.723  0.00  0.00    +0.000 A 
ATOM     18  C   UNL     1      46.056   2.553   7.763  0.00  0.00    +0.000 A 
ATOM     19  F   UNL     1      46.557   1.810   6.766  0.00  0.00    +0.000 F 
ATOM     20  C   UNL     1      45.409   1.930   8.821  0.00  0.00    +0.000 A 
ATOM     21  C   UNL     1      44.914   2.700   9.873  0.00  0.00    +0.000 A 
ENDBRANCH  14  15
ENDBRANCH  12  14
ENDBRANCH   1  12
TORSDOF 4
ENDMDL
MODEL 4
REMARK VINA RESULT:    -6.529      3.655      5.967
REMARK INTER + INTRA:          -8.719
REMARK INTER:                  -9.372
REMARK INTRA:                   0.653
REMARK UNBOUND:                -0.664
REMARK  Name = 
REMARK  5 active torsions:
REMARK  status: ('A' for Active; 'I' for Inactive)
REMARK    1  A    between atoms: C_1  and  C_2
REMARK    2  A    between atoms: C_2  and  O_3
REMARK    3  A    between atoms: C_2  and  C_13
REMARK    4  A    between atoms: O_3  and  C_4
REMARK    5  A    between atoms: C_7  and  C_8
REMARK                            x       y       z     vdW  Elec       q    Type
REMARK                         _______ _______ _______ _____ _____    ______ ____
ROOT
ATOM      1  C   UNL     1      45.174   5.225  11.747  0.00  0.00    +0.000 A 
ATOM      2  C   UNL     1      46.443   5.782  11.851  0.00  0.00    +0.000 A 
ATOM      3  C   UNL     1      47.185   5.620  13.010  0.00  0.00    +0.000 A 
ATOM      4  C   UNL     1      46.638   4.890  14.053  0.00  0.00    +0.000 A 
ATOM      5  N   UNL     1      45.399   4.325  14.007  0.00  0.00    +0.000 NA
ATOM      6  C   UNL     1      44.699   4.519  12.853  0.00  0.00    +0.000 A 
ENDROOT
BRANCH   4   7
ATOM      7  C   UNL     1      47.458   4.716  15.294  0.00  0.00    +0.000 C 
ATOM      8  N   UNL     1      47.070   3.722  16.146  0.00  0.00    +0.000 N 
ATOM      9  O   UNL     1      48.428   5.424  15.541  0.00  0.00    +0.000 OA
ATOM     10  H   UNL     1      46.258   3.152  15.925  0.00  0.00    +0.000 HD
ATOM     11  H   UNL     1      47.587   3.572  17.001  0.00  0.00    +0.000 HD
ENDBRANCH   4   7
BRANCH   1  12
ATOM     12  O   UNL     1      44.349   5.360  10.664  0.00  0.00    +0.000 OA
BRANCH  12  14
ATOM     13  C   UNL     1      43.426   3.130  11.192  0.00  0.00    +0.000 C 
ATOM     14  C   UNL     1      43.785   4.155  10.106  0.00  0.00    +0.000 C 
BRANCH  14  15
ATOM     15  C   UNL     1      44.829   3.555   9.181  0.00  0.00    +0.000 A 
ATOM     16  C   UNL     1      45.070   2.169   9.184  0.00  0.00    +0.000 A 
ATOM     17  C   UNL     1      46.014   1.611   8.320  0.00  0.00    +0.000 A 
ATOM     18  C   UNL     1      46.728   2.436   7.459  0.00  0.00    +0.000 A 
ATOM     19  F   UNL     1      47.618   1.896   6.614  0.00  0.00    +0.000 F 
ATOM     20  C   UNL     1      46.532   3.810   7.458  0.00  0.00    +0.000 A 
ATOM     21  C   UNL     1      45.586   4.368   8.317  0.00  0.00    +0.000 A 
ENDBRANCH  14  15
ENDBRANCH  12  14
ENDBRANCH   1  12
TORSDOF 4
ENDMDL
MODEL 5
REMARK VINA RESULT:    -6.288      3.442      6.150
REMARK INTER + INTRA:          -8.422
REMARK INTER:                  -8.528
REMARK INTRA:                   0.106
REMARK UNBOUND:                -0.664
REMARK  Name = 
REMARK  5 active torsions:
REMARK  status: ('A' for Active; 'I' for Inactive)
REMARK    1  A    between atoms: C_1  and  C_2
REMARK    2  A    between atoms: C_2  and  O_3
REMARK    3  A    between atoms: C_2  and  C_13
REMARK    4  A    between atoms: O_3  and  C_4
REMARK    5  A    between atoms: C_7  and  C_8
REMARK                            x       y       z     vdW  Elec       q    Type
REMARK                         _______ _______ _______ _____ _____    ______ ____
ROOT
ATOM      1  C   UNL     1      44.738   5.346  10.673  0.00  0.00    +0.000 A 
ATOM      2  C   UNL     1      44.208   5.517  11.946  0.00  0.00    +0.000 A 
ATOM      3  C   UNL     1      44.919   6.209  12.913  0.00  0.00    +0.000 A 
ATOM      4  C   UNL     1      46.161   6.726  12.582  0.00  0.00    +0.000 A 
ATOM      5  N   UNL     1      46.731   6.585  11.352  0.00  0.00    +0.000 NA
ATOM      6  C   UNL     1      46.002   5.888  10.435  0.00  0.00    +0.000 A 
ENDROOT
BRANCH   4   7
ATOM      7  C   UNL     1      46.912   7.479  13.638  0.00  0.00    +0.000 C 
ATOM      8  N   UNL     1      47.608   6.728  14.542  0.00  0.00    +0.000 N 
ATOM      9  O   UNL     1      46.909   8.703  13.694  0.00  0.00    +0.000 OA
ATOM     10  H   UNL     1      47.590   5.713  14.480  0.00  0.00    +0.000 HD
ATOM     11  H   UNL     1      48.122   7.190  15.278  0.00  0.00    +0.000 HD
ENDBRANCH   4   7
BRANCH   1  12
ATOM     12  O   UNL     1      44.134   4.648   9.663  0.00  0.00    +0.000 OA
BRANCH  12  14
ATOM     13  C   UNL     1      44.801   2.689  11.012  0.00  0.00    +0.000 C 
ATOM     14  C   UNL     1      44.293   3.214   9.661  0.00  0.00    +0.000 C 
BRANCH  14  15
ATOM     15  C   UNL     1      45.307   2.874   8.582  0.00  0.00    +0.000 A 
ATOM     16  C   UNL     1      45.904   1.601   8.544  0.00  0.00    +0.000 A 
ATOM     17  C   UNL     1      46.821   1.278   7.541  0.00  0.00    +0.000 A 
ATOM     18  C   UNL     1      47.151   2.227   6.581  0.00  0.00    +0.000 A 
ATOM     19  F   UNL     1      48.013   1.907   5.606  0.00  0.00    +0.000 F 
ATOM     20  C   UNL     1      46.599   3.500   6.615  0.00  0.00    +0.000 A 
ATOM     21  C   UNL     1      45.680   3.823   7.612  0.00  0.00    +0.000 A 
ENDBRANCH  14  15
ENDBRANCH  12  14
ENDBRANCH   1  12
TORSDOF 4
ENDMDL
MODEL 6
REMARK VINA RESULT:    -6.003      4.481      6.869
REMARK INTER + INTRA:          -8.071
REMARK INTER:                  -7.551
REMARK INTRA:                  -0.519
REMARK UNBOUND:                -0.664
REMARK  Name = 
REMARK  5 active torsions:
REMARK  status: ('A' for Active; 'I' for Inactive)
REMARK    1  A    between atoms: C_1  and  C_2
REMARK    2  A    between atoms: C_2  and  O_3
REMARK    3  A    between atoms: C_2  and  C_13
REMARK    4  A    between atoms: O_3  and  C_4
REMARK    5  A    between atoms: C_7  and  C_8
REMARK                            x       y       z     vdW  Elec       q    Type
REMARK                         _______ _______ _______ _____ _____    ______ ____
ROOT
ATOM      1  C   UNL     1      46.687   4.454  14.157  0.00  0.00    +0.000 A 
ATOM      2  C   UNL     1      46.979   4.057  15.457  0.00  0.00    +0.000 A 
ATOM      3  C   UNL     1      47.895   4.767  16.217  0.00  0.00    +0.000 A 
ATOM      4  C   UNL     1      48.504   5.878  15.656  0.00  0.00    +0.000 A 
ATOM      5  N   UNL     1      48.258   6.310  14.387  0.00  0.00    +0.000 NA
ATOM      6  C   UNL     1      47.360   5.575  13.671  0.00  0.00    +0.000 A 
ENDROOT
BRANCH   4   7
ATOM      7  C   UNL     1      49.484   6.639  16.495  0.00  0.00    +0.000 C 
ATOM      8  N   UNL     1      50.545   7.195  15.838  0.00  0.00    +0.000 N 
ATOM      9  O   UNL     1      49.349   6.763  17.706  0.00  0.00    +0.000 OA
ATOM     10  H   UNL     1      50.640   7.073  14.833  0.00  0.00    +0.000 HD
ATOM     11  H   UNL     1      51.237   7.711  16.362  0.00  0.00    +0.000 HD
ENDBRANCH   4   7
BRANCH   1  12
ATOM     12  O   UNL     1      45.830   3.800  13.315  0.00  0.00    +0.000 OA
BRANCH  12  14
ATOM     13  C   UNL     1      43.415   4.282  13.123  0.00  0.00    +0.000 C 
ATOM     14  C   UNL     1      44.837   4.593  12.634  0.00  0.00    +0.000 C 
BRANCH  14  15
ATOM     15  C   UNL     1      44.937   4.267  11.153  0.00  0.00    +0.000 A 
ATOM     16  C   UNL     1      45.483   5.201  10.255  0.00  0.00    +0.000 A 
ATOM     17  C   UNL     1      45.595   4.896   8.896  0.00  0.00    +0.000 A 
ATOM     18  C   UNL     1      45.154   3.664   8.431  0.00  0.00    +0.000 A 
ATOM     19  F   UNL     1      45.285   3.364   7.131  0.00  0.00    +0.000 F 
ATOM     20  C   UNL     1      44.583   2.737   9.291  0.00  0.00    +0.000 A 
ATOM     21  C   UNL     1      44.474   3.037  10.649  0.00  0.00    +0.000 A 
ENDBRANCH  14  15
ENDBRANCH  12  14
ENDBRANCH   1  12
TORSDOF 4
ENDMDL
MODEL 7
REMARK VINA RESULT:    -5.598      4.333      6.316
REMARK INTER + INTRA:          -7.571
REMARK INTER:                  -7.122
REMARK INTRA:                  -0.449
REMARK UNBOUND:                -0.664
REMARK  Name = 
REMARK  5 active torsions:
REMARK  status: ('A' for Active; 'I' for Inactive)
REMARK    1  A    between atoms: C_1  and  C_2
REMARK    2  A    between atoms: C_2  and  O_3
REMARK    3  A    between atoms: C_2  and  C_13
REMARK    4  A    between atoms: O_3  and  C_4
REMARK    5  A    between atoms: C_7  and  C_8
REMARK                            x       y       z     vdW  Elec       q    Type
REMARK                         _______ _______ _______ _____ _____    ______ ____
ROOT
ATOM      1  C   UNL     1      46.901   5.582  13.276  0.00  0.00    +0.000 A 
ATOM      2  C   UNL     1      46.056   4.496  13.079  0.00  0.00    +0.000 A 
ATOM      3  C   UNL     1      44.824   4.669  12.467  0.00  0.00    +0.000 A 
ATOM      4  C   UNL     1      44.461   5.940  12.054  0.00  0.00    +0.000 A 
ATOM      5  N   UNL     1      45.247   7.040  12.224  0.00  0.00    +0.000 NA
ATOM      6  C   UNL     1      46.444   6.826  12.841  0.00  0.00    +0.000 A 
ENDROOT
BRANCH   4   7
ATOM      7  C   UNL     1      43.130   6.107  11.385  0.00  0.00    +0.000 C 
ATOM      8  N   UNL     1      42.755   7.386  11.086  0.00  0.00    +0.000 N 
ATOM      9  O   UNL     1      42.411   5.152  11.115  0.00  0.00    +0.000 OA
ATOM     10  H   UNL     1      43.365   8.163  11.326  0.00  0.00    +0.000 HD
ATOM     11  H   UNL     1      41.863   7.549  10.643  0.00  0.00    +0.000 HD
ENDBRANCH   4   7
BRANCH   1  12
ATOM     12  O   UNL     1      48.115   5.523  13.903  0.00  0.00    +0.000 OA
BRANCH  12  14
ATOM     13  C   UNL     1      49.576   7.122  15.090  0.00  0.00    +0.000 C 
ATOM     14  C   UNL     1      48.278   6.302  15.106  0.00  0.00    +0.000 C 
BRANCH  14  15
ATOM     15  C   UNL     1      48.317   5.329  16.272  0.00  0.00    +0.000 A 
ATOM     16  C   UNL     1      49.308   5.447  17.263  0.00  0.00    +0.000 A 
ATOM     17  C   UNL     1      49.335   4.567  18.347  0.00  0.00    +0.000 A 
ATOM     18  C   UNL     1      48.380   3.561  18.438  0.00  0.00    +0.000 A 
ATOM     19  F   UNL     1      48.393   2.732  19.492  0.00  0.00    +0.000 F 
ATOM     20  C   UNL     1      47.411   3.404  17.458  0.00  0.00    +0.000 A 
ATOM     21  C   UNL     1      47.379   4.285  16.377  0.00  0.00    +0.000 A 
ENDBRANCH  14  15
ENDBRANCH  12  14
ENDBRANCH   1  12
TORSDOF 4
ENDMDL
MODEL 8
REMARK VINA RESULT:    -5.519      3.533      5.494
REMARK INTER + INTRA:          -7.474
REMARK INTER:                  -6.901
REMARK INTRA:                  -0.573
REMARK UNBOUND:                -0.664
REMARK  Name = 
REMARK  5 active torsions:
REMARK  status: ('A' for Active; 'I' for Inactive)
REMARK    1  A    between atoms: C_1  and  C_2
REMARK    2  A    between atoms: C_2  and  O_3
REMARK    3  A    between atoms: C_2  and  C_13
REMARK    4  A    between atoms: O_3  and  C_4
REMARK    5  A    between atoms: C_7  and  C_8
REMARK                            x       y       z     vdW  Elec       q    Type
REMARK                         _______ _______ _______ _____ _____    ______ ____
ROOT
ATOM      1  C   UNL     1      46.257   6.099  12.747  0.00  0.00    +0.000 A 
ATOM      2  C   UNL     1      45.813   6.186  11.432  0.00  0.00    +0.000 A 
ATOM      3  C   UNL     1      45.105   5.140  10.862  0.00  0.00    +0.000 A 
ATOM      4  C   UNL     1      44.848   4.016  11.629  0.00  0.00    +0.000 A 
ATOM      5  N   UNL     1      45.261   3.875  12.920  0.00  0.00    +0.000 NA
ATOM      6  C   UNL     1      45.964   4.923  13.437  0.00  0.00    +0.000 A 
ENDROOT
BRANCH   4   7
ATOM      7  C   UNL     1      44.072   2.899  10.999  0.00  0.00    +0.000 C 
ATOM      8  N   UNL     1      44.663   2.271   9.939  0.00  0.00    +0.000 N 
ATOM      9  O   UNL     1      42.968   2.560  11.406  0.00  0.00    +0.000 OA
ATOM     10  H   UNL     1      45.576   2.575   9.614  0.00  0.00    +0.000 HD
ATOM     11  H   UNL     1      44.175   1.518   9.476  0.00  0.00    +0.000 HD
ENDBRANCH   4   7
BRANCH   1  12
ATOM     12  O   UNL     1      46.994   7.057  13.386  0.00  0.00    +0.000 OA
BRANCH  12  14
ATOM     13  C   UNL     1      49.069   6.979  14.724  0.00  0.00    +0.000 C 
ATOM     14  C   UNL     1      48.431   6.936  13.329  0.00  0.00    +0.000 C 
BRANCH  14  15
ATOM     15  C   UNL     1      48.949   8.104  12.507  0.00  0.00    +0.000 A 
ATOM     16  C   UNL     1      48.101   9.180  12.188  0.00  0.00    +0.000 A 
ATOM     17  C   UNL     1      48.580  10.265  11.450  0.00  0.00    +0.000 A 
ATOM     18  C   UNL     1      49.902  10.274  11.022  0.00  0.00    +0.000 A 
ATOM     19  F   UNL     1      50.366  11.327  10.334  0.00  0.00    +0.000 F 
ATOM     20  C   UNL     1      50.750   9.210  11.297  0.00  0.00    +0.000 A 
ATOM     21  C   UNL     1      50.275   8.128  12.037  0.00  0.00    +0.000 A 
ENDBRANCH  14  15
ENDBRANCH  12  14
ENDBRANCH   1  12
TORSDOF 4
ENDMDL
MODEL 9
REMARK VINA RESULT:    -5.458      4.006      6.182
REMARK INTER + INTRA:          -7.398
REMARK INTER:                  -6.883
REMARK INTRA:                  -0.515
REMARK UNBOUND:                -0.664
REMARK  Name = 
REMARK  5 active torsions:
REMARK  status: ('A' for Active; 'I' for Inactive)
REMARK    1  A    between atoms: C_1  and  C_2
REMARK    2  A    between atoms: C_2  and  O_3
REMARK    3  A    between atoms: C_2  and  C_13
REMARK    4  A    between atoms: O_3  and  C_4
REMARK    5  A    between atoms: C_7  and  C_8
REMARK                            x       y       z     vdW  Elec       q    Type
REMARK                         _______ _______ _______ _____ _____    ______ ____
ROOT
ATOM      1  C   UNL     1      47.048   5.465  13.146  0.00  0.00    +0.000 A 
ATOM      2  C   UNL     1      46.413   6.157  12.121  0.00  0.00    +0.000 A 
ATOM      3  C   UNL     1      45.175   5.741  11.657  0.00  0.00    +0.000 A 
ATOM      4  C   UNL     1      44.586   4.631  12.240  0.00  0.00    +0.000 A 
ATOM      5  N   UNL     1      45.163   3.913  13.244  0.00  0.00    +0.000 NA
ATOM      6  C   UNL     1      46.386   4.350  13.661  0.00  0.00    +0.000 A 
ENDROOT
BRANCH   4   7
ATOM      7  C   UNL     1      43.243   4.202  11.733  0.00  0.00    +0.000 C 
ATOM      8  N   UNL     1      42.254   5.144  11.757  0.00  0.00    +0.000 N 
ATOM      9  O   UNL     1      43.033   3.069  11.316  0.00  0.00    +0.000 OA
ATOM     10  H   UNL     1      42.449   6.075  12.114  0.00  0.00    +0.000 HD
ATOM     11  H   UNL     1      41.330   4.899  11.434  0.00  0.00    +0.000 HD
ENDBRANCH   4   7
BRANCH   1  12
ATOM     12  O   UNL     1      48.283   5.770  13.645  0.00  0.00    +0.000 OA
BRANCH  12  14
ATOM     13  C   UNL     1      49.195   8.000  14.190  0.00  0.00    +0.000 C 
ATOM     14  C   UNL     1      48.355   6.801  14.652  0.00  0.00    +0.000 C 
BRANCH  14  15
ATOM     15  C   UNL     1      48.999   6.186  15.883  0.00  0.00    +0.000 A 
ATOM     16  C   UNL     1      50.275   6.604  16.301  0.00  0.00    +0.000 A 
ATOM     17  C   UNL     1      50.862   6.055  17.444  0.00  0.00    +0.000 A 
ATOM     18  C   UNL     1      50.181   5.081  18.164  0.00  0.00    +0.000 A 
ATOM     19  F   UNL     1      50.735   4.573  19.274  0.00  0.00    +0.000 F 
ATOM     20  C   UNL     1      48.934   4.629  17.755  0.00  0.00    +0.000 A 
ATOM     21  C   UNL     1      48.345   5.179  16.617  0.00  0.00    +0.000 A 
ENDBRANCH  14  15
ENDBRANCH  12  14
ENDBRANCH   1  12
TORSDOF 4
ENDMDL
