MODEL 1
REMARK VINA RESULT:    -8.855      0.000      0.000
REMARK INTER + INTRA:         -12.245
REMARK INTER:                 -11.702
REMARK INTRA:                  -0.543
REMARK UNBOUND:                -0.543
REMARK  Name = 
REMARK  6 active torsions:
REMARK  status: ('A' for Active; 'I' for Inactive)
REMARK    1  A    between atoms: C_2  and  O_3
REMARK    2  A    between atoms: C_2  and  C_4
REMARK    3  A    between atoms: N_8  and  C_9
REMARK    4  A    between atoms: C_9  and  C_10
REMARK    5  A    between atoms: C_14  and  C_15
REMARK    6  A    between atoms: C_19  and  C_20
REMARK                            x       y       z     vdW  Elec       q    Type
REMARK                         _______ _______ _______ _____ _____    ______ ____
ROOT
ATOM      1  C   UNL     1      44.464   4.734  11.641  0.00  0.00    +0.000 A 
ATOM      2  C   UNL     1      44.477   5.959  10.986  0.00  0.00    +0.000 A 
ATOM      3  N   UNL     1      45.276   6.987  11.335  0.00  0.00    +0.000 NA
ATOM      4  C   UNL     1      46.096   6.788  12.397  0.00  0.00    +0.000 A 
ATOM      5  C   UNL     1      46.174   5.614  13.149  0.00  0.00    +0.000 A 
ATOM      6  C   UNL     1      45.316   4.579  12.744  0.00  0.00    +0.000 A 
ENDROOT
BRANCH   5   7
ATOM      7  C   UNL     1      47.098   5.476  14.297  0.00  0.00    +0.000 A 
ATOM      8  C   UNL     1      48.002   6.498  14.639  0.00  0.00    +0.000 A 
ATOM      9  C   UNL     1      48.844   6.388  15.748  0.00  0.00    +0.000 A 
ATOM     10  C   UNL     1      48.807   5.247  16.544  0.00  0.00    +0.000 A 
ATOM     11  C   UNL     1      47.929   4.202  16.233  0.00  0.00    +0.000 A 
ATOM     12  C   UNL     1      47.093   4.326  15.107  0.00  0.00    +0.000 A 
BRANCH  11  13
ATOM     13  C   UNL     1      47.851   2.965  17.091  0.00  0.00    +0.000 C 
ATOM     14  F   UNL     1      46.595   2.691  17.543  0.00  0.00    +0.000 F 
ATOM     15  F   UNL     1      48.260   1.848  16.428  0.00  0.00    +0.000 F 
ATOM     16  F   UNL     1      48.637   3.049  18.200  0.00  0.00    +0.000 F 
ENDBRANCH  11  13
ENDBRANCH   5   7
BRANCH   1  17
ATOM     17  C   UNL     1      43.603   3.606  11.152  0.00  0.00    +0.000 C 
BRANCH  17  22
ATOM     18  C   UNL     1      46.576   2.523   7.124  0.00  0.00    +0.000 A 
ATOM     19  C   UNL     1      45.908   3.687   7.487  0.00  0.00    +0.000 A 
ATOM     20  C   UNL     1      45.160   3.702   8.665  0.00  0.00    +0.000 A 
ATOM     21  C   UNL     1      45.098   2.564   9.469  0.00  0.00    +0.000 A 
ATOM     22  N   UNL     1      44.385   2.510  10.638  0.00  0.00    +0.000 N 
ATOM     23  N   UNL     1      45.755   1.437   9.126  0.00  0.00    +0.000 NA
ATOM     24  C   UNL     1      46.486   1.440   7.980  0.00  0.00    +0.000 A 
ATOM     25  H   UNL     1      44.445   1.631  11.138  0.00  0.00    +0.000 HD
BRANCH  18  27
ATOM     26  O   UNL     1      47.046   3.092   4.879  0.00  0.00    +0.000 OA
ATOM     27  C   UNL     1      47.386   2.508   5.894  0.00  0.00    +0.000 C 
BRANCH  27  28
ATOM     28  O   UNL     1      48.502   1.756   5.975  0.00  0.00    +0.000 OA
ATOM     29  H   UNL     1      49.249   2.036   5.413  0.00  0.00    +0.000 HD
ENDBRANCH  27  28
ENDBRANCH  18  27
ENDBRANCH  17  22
ENDBRANCH   1  17
TORSDOF 6
ENDMDL
MODEL 2
REMARK VINA RESULT:    -8.778      3.659      4.383
REMARK INTER + INTRA:         -12.144
REMARK INTER:                 -11.245
REMARK INTRA:                  -0.899
REMARK UNBOUND:                -0.543
REMARK  Name = 
REMARK  6 active torsions:
REMARK  status: ('A' for Active; 'I' for Inactive)
REMARK    1  A    between atoms: C_2  and  O_3
REMARK    2  A    between atoms: C_2  and  C_4
REMARK    3  A    between atoms: N_8  and  C_9
REMARK    4  A    between atoms: C_9  and  C_10
REMARK    5  A    between atoms: C_14  and  C_15
REMARK    6  A    between atoms: C_19  and  C_20
REMARK                            x       y       z     vdW  Elec       q    Type
REMARK                         _______ _______ _______ _____ _____    ______ ____
ROOT
ATOM      1  C   UNL     1      45.149   5.129  11.916  0.00  0.00    +0.000 A 
ATOM      2  C   UNL     1      44.892   4.210  12.925  0.00  0.00    +0.000 A 
ATOM      3  N   UNL     1      45.637   4.096  14.043  0.00  0.00    +0.000 NA
ATOM      4  C   UNL     1      46.698   4.935  14.157  0.00  0.00    +0.000 A 
ATOM      5  C   UNL     1      47.073   5.894  13.214  0.00  0.00    +0.000 A 
ATOM      6  C   UNL     1      46.266   5.963  12.068  0.00  0.00    +0.000 A 
ENDROOT
BRANCH   5   7
ATOM      7  C   UNL     1      48.247   6.772  13.413  0.00  0.00    +0.000 A 
ATOM      8  C   UNL     1      48.589   7.264  14.685  0.00  0.00    +0.000 A 
ATOM      9  C   UNL     1      49.722   8.058  14.882  0.00  0.00    +0.000 A 
ATOM     10  C   UNL     1      50.543   8.385  13.806  0.00  0.00    +0.000 A 
ATOM     11  C   UNL     1      50.234   7.923  12.522  0.00  0.00    +0.000 A 
ATOM     12  C   UNL     1      49.084   7.131  12.339  0.00  0.00    +0.000 A 
BRANCH  11  13
ATOM     13  C   UNL     1      51.118   8.241  11.342  0.00  0.00    +0.000 C 
ATOM     14  F   UNL     1      52.446   8.250  11.640  0.00  0.00    +0.000 F 
ATOM     15  F   UNL     1      50.969   7.345  10.328  0.00  0.00    +0.000 F 
ATOM     16  F   UNL     1      50.847   9.462  10.803  0.00  0.00    +0.000 F 
ENDBRANCH  11  13
ENDBRANCH   5   7
BRANCH   1  17
ATOM     17  C   UNL     1      44.234   5.253  10.733  0.00  0.00    +0.000 C 
BRANCH  17  22
ATOM     18  C   UNL     1      46.682   2.215   7.414  0.00  0.00    +0.000 A 
ATOM     19  C   UNL     1      45.982   1.928   8.580  0.00  0.00    +0.000 A 
ATOM     20  C   UNL     1      45.399   2.972   9.298  0.00  0.00    +0.000 A 
ATOM     21  C   UNL     1      45.510   4.284   8.839  0.00  0.00    +0.000 A 
ATOM     22  N   UNL     1      44.960   5.357   9.493  0.00  0.00    +0.000 N 
ATOM     23  N   UNL     1      46.177   4.566   7.701  0.00  0.00    +0.000 NA
ATOM     24  C   UNL     1      46.733   3.537   7.008  0.00  0.00    +0.000 A 
ATOM     25  H   UNL     1      45.093   6.251   9.038  0.00  0.00    +0.000 HD
BRANCH  18  27
ATOM     26  O   UNL     1      46.909  -0.041   6.750  0.00  0.00    +0.000 OA
ATOM     27  C   UNL     1      47.280   1.115   6.639  0.00  0.00    +0.000 C 
BRANCH  27  28
ATOM     28  O   UNL     1      48.299   1.491   5.840  0.00  0.00    +0.000 OA
ATOM     29  H   UNL     1      49.114   1.779   6.293  0.00  0.00    +0.000 HD
ENDBRANCH  27  28
ENDBRANCH  18  27
ENDBRANCH  17  22
ENDBRANCH   1  17
TORSDOF 6
ENDMDL
MODEL 3
REMARK VINA RESULT:    -8.764      3.580      4.458
REMARK INTER + INTRA:         -12.125
REMARK INTER:                 -11.264
REMARK INTRA:                  -0.861
REMARK UNBOUND:                -0.543
REMARK  Name = 
REMARK  6 active torsions:
REMARK  status: ('A' for Active; 'I' for Inactive)
REMARK    1  A    between atoms: C_2  and  O_3
REMARK    2  A    between atoms: C_2  and  C_4
REMARK    3  A    between atoms: N_8  and  C_9
REMARK    4  A    between atoms: C_9  and  C_10
REMARK    5  A    between atoms: C_14  and  C_15
REMARK    6  A    between atoms: C_19  and  C_20
REMARK                            x       y       z     vdW  Elec       q    Type
REMARK                         _______ _______ _______ _____ _____    ______ ____
ROOT
ATOM      1  C   UNL     1      44.934   4.327  11.985  0.00  0.00    +0.000 A 
ATOM      2  C   UNL     1      45.224   3.775  13.225  0.00  0.00    +0.000 A 
ATOM      3  N   UNL     1      46.054   4.344  14.123  0.00  0.00    +0.000 NA
ATOM      4  C   UNL     1      46.630   5.518  13.762  0.00  0.00    +0.000 A 
ATOM      5  C   UNL     1      46.433   6.174  12.545  0.00  0.00    +0.000 A 
ATOM      6  C   UNL     1      45.566   5.533  11.647  0.00  0.00    +0.000 A 
ENDROOT
BRANCH   5   7
ATOM      7  C   UNL     1      47.101   7.455  12.227  0.00  0.00    +0.000 A 
ATOM      8  C   UNL     1      46.400   8.674  12.249  0.00  0.00    +0.000 A 
ATOM      9  C   UNL     1      47.038   9.890  11.991  0.00  0.00    +0.000 A 
ATOM     10  C   UNL     1      48.399   9.917  11.699  0.00  0.00    +0.000 A 
ATOM     11  C   UNL     1      49.132   8.726  11.658  0.00  0.00    +0.000 A 
ATOM     12  C   UNL     1      48.472   7.508  11.912  0.00  0.00    +0.000 A 
BRANCH  11  13
ATOM     13  C   UNL     1      50.612   8.727  11.368  0.00  0.00    +0.000 C 
ATOM     14  F   UNL     1      51.389   8.646  12.484  0.00  0.00    +0.000 F 
ATOM     15  F   UNL     1      50.986   7.684  10.577  0.00  0.00    +0.000 F 
ATOM     16  F   UNL     1      51.013   9.852  10.714  0.00  0.00    +0.000 F 
ENDBRANCH  11  13
ENDBRANCH   5   7
BRANCH   1  17
ATOM     17  C   UNL     1      43.942   3.678  11.063  0.00  0.00    +0.000 C 
BRANCH  17  22
ATOM     18  C   UNL     1      46.691   2.462   6.916  0.00  0.00    +0.000 A 
ATOM     19  C   UNL     1      46.278   3.691   7.418  0.00  0.00    +0.000 A 
ATOM     20  C   UNL     1      45.529   3.728   8.595  0.00  0.00    +0.000 A 
ATOM     21  C   UNL     1      45.212   2.545   9.260  0.00  0.00    +0.000 A 
ATOM     22  N   UNL     1      44.482   2.508  10.419  0.00  0.00    +0.000 N 
ATOM     23  N   UNL     1      45.621   1.352   8.783  0.00  0.00    +0.000 NA
ATOM     24  C   UNL     1      46.358   1.331   7.640  0.00  0.00    +0.000 A 
ATOM     25  H   UNL     1      44.345   1.585  10.812  0.00  0.00    +0.000 HD
BRANCH  18  27
ATOM     26  O   UNL     1      47.160   2.975   4.658  0.00  0.00    +0.000 OA
ATOM     27  C   UNL     1      47.502   2.418   5.687  0.00  0.00    +0.000 C 
BRANCH  27  28
ATOM     28  O   UNL     1      48.619   1.671   5.789  0.00  0.00    +0.000 OA
ATOM     29  H   UNL     1      49.298   1.998   6.409  0.00  0.00    +0.000 HD
ENDBRANCH  27  28
ENDBRANCH  18  27
ENDBRANCH  17  22
ENDBRANCH   1  17
TORSDOF 6
ENDMDL
MODEL 4
REMARK VINA RESULT:    -8.229      1.670      2.249
REMARK INTER + INTRA:         -11.418
REMARK INTER:                 -10.660
REMARK INTRA:                  -0.758
REMARK UNBOUND:                -0.543
REMARK  Name = 
REMARK  6 active torsions:
REMARK  status: ('A' for Active; 'I' for Inactive)
REMARK    1  A    between atoms: C_2  and  O_3
REMARK    2  A    between atoms: C_2  and  C_4
REMARK    3  A    between atoms: N_8  and  C_9
REMARK    4  A    between atoms: C_9  and  C_10
REMARK    5  A    between atoms: C_14  and  C_15
REMARK    6  A    between atoms: C_19  and  C_20
REMARK                            x       y       z     vdW  Elec       q    Type
REMARK                         _______ _______ _______ _____ _____    ______ ____
ROOT
ATOM      1  C   UNL     1      44.810   5.529  11.752  0.00  0.00    +0.000 A 
ATOM      2  C   UNL     1      45.236   6.762  11.276  0.00  0.00    +0.000 A 
ATOM      3  N   UNL     1      46.240   7.472  11.827  0.00  0.00    +0.000 NA
ATOM      4  C   UNL     1      46.847   6.929  12.912  0.00  0.00    +0.000 A 
ATOM      5  C   UNL     1      46.512   5.707  13.498  0.00  0.00    +0.000 A 
ATOM      6  C   UNL     1      45.454   5.014  12.887  0.00  0.00    +0.000 A 
ENDROOT
BRANCH   5   7
ATOM      7  C   UNL     1      47.223   5.183  14.684  0.00  0.00    +0.000 A 
ATOM      8  C   UNL     1      47.009   3.873  15.150  0.00  0.00    +0.000 A 
ATOM      9  C   UNL     1      47.712   3.362  16.244  0.00  0.00    +0.000 A 
ATOM     10  C   UNL     1      48.648   4.152  16.905  0.00  0.00    +0.000 A 
ATOM     11  C   UNL     1      48.884   5.464  16.480  0.00  0.00    +0.000 A 
ATOM     12  C   UNL     1      48.161   5.967  15.381  0.00  0.00    +0.000 A 
BRANCH  11  13
ATOM     13  C   UNL     1      49.909   6.335  17.162  0.00  0.00    +0.000 C 
ATOM     14  F   UNL     1      49.860   6.278  18.522  0.00  0.00    +0.000 F 
ATOM     15  F   UNL     1      51.184   5.998  16.821  0.00  0.00    +0.000 F 
ATOM     16  F   UNL     1      49.773   7.651  16.838  0.00  0.00    +0.000 F 
ENDBRANCH  11  13
ENDBRANCH   5   7
BRANCH   1  17
ATOM     17  C   UNL     1      43.735   4.756  11.045  0.00  0.00    +0.000 C 
BRANCH  17  22
ATOM     18  C   UNL     1      46.568   2.657   7.330  0.00  0.00    +0.000 A 
ATOM     19  C   UNL     1      46.256   3.982   7.611  0.00  0.00    +0.000 A 
ATOM     20  C   UNL     1      45.451   4.272   8.713  0.00  0.00    +0.000 A 
ATOM     21  C   UNL     1      44.980   3.242   9.525  0.00  0.00    +0.000 A 
ATOM     22  N   UNL     1      44.188   3.455  10.623  0.00  0.00    +0.000 N 
ATOM     23  N   UNL     1      45.291   1.956   9.263  0.00  0.00    +0.000 NA
ATOM     24  C   UNL     1      46.082   1.689   8.190  0.00  0.00    +0.000 A 
ATOM     25  H   UNL     1      43.936   2.621  11.140  0.00  0.00    +0.000 HD
BRANCH  18  27
ATOM     26  O   UNL     1      48.273   1.460   6.215  0.00  0.00    +0.000 OA
ATOM     27  C   UNL     1      47.436   2.346   6.181  0.00  0.00    +0.000 C 
BRANCH  27  28
ATOM     28  O   UNL     1      47.258   3.155   5.117  0.00  0.00    +0.000 OA
ATOM     29  H   UNL     1      47.205   4.110   5.310  0.00  0.00    +0.000 HD
ENDBRANCH  27  28
ENDBRANCH  18  27
ENDBRANCH  17  22
ENDBRANCH   1  17
TORSDOF 6
ENDMDL
MODEL 5
REMARK VINA RESULT:    -7.577      5.753      8.752
REMARK INTER + INTRA:         -10.557
REMARK INTER:                  -9.792
REMARK INTRA:                  -0.765
REMARK UNBOUND:                -0.543
REMARK  Name = 
REMARK  6 active torsions:
REMARK  status: ('A' for Active; 'I' for Inactive)
REMARK    1  A    between atoms: C_2  and  O_3
REMARK    2  A    between atoms: C_2  and  C_4
REMARK    3  A    between atoms: N_8  and  C_9
REMARK    4  A    between atoms: C_9  and  C_10
REMARK    5  A    between atoms: C_14  and  C_15
REMARK    6  A    between atoms: C_19  and  C_20
REMARK                            x       y       z     vdW  Elec       q    Type
REMARK                         _______ _______ _______ _____ _____    ______ ____
ROOT
ATOM      1  C   UNL     1      47.554   4.640  15.746  0.00  0.00    +0.000 A 
ATOM      2  C   UNL     1      48.453   5.675  15.525  0.00  0.00    +0.000 A 
ATOM      3  N   UNL     1      48.407   6.494  14.456  0.00  0.00    +0.000 NA
ATOM      4  C   UNL     1      47.419   6.264  13.555  0.00  0.00    +0.000 A 
ATOM      5  C   UNL     1      46.459   5.254  13.649  0.00  0.00    +0.000 A 
ATOM      6  C   UNL     1      46.560   4.428  14.779  0.00  0.00    +0.000 A 
ENDROOT
BRANCH   5   7
ATOM      7  C   UNL     1      45.411   5.068  12.621  0.00  0.00    +0.000 A 
ATOM      8  C   UNL     1      44.056   5.320  12.900  0.00  0.00    +0.000 A 
ATOM      9  C   UNL     1      43.070   5.188  11.918  0.00  0.00    +0.000 A 
ATOM     10  C   UNL     1      43.416   4.794  10.629  0.00  0.00    +0.000 A 
ATOM     11  C   UNL     1      44.752   4.525  10.311  0.00  0.00    +0.000 A 
ATOM     12  C   UNL     1      45.732   4.655  11.314  0.00  0.00    +0.000 A 
BRANCH  11  13
ATOM     13  C   UNL     1      45.159   4.120   8.917  0.00  0.00    +0.000 C 
ATOM     14  F   UNL     1      44.146   4.191   8.009  0.00  0.00    +0.000 F 
ATOM     15  F   UNL     1      46.158   4.902   8.422  0.00  0.00    +0.000 F 
ATOM     16  F   UNL     1      45.623   2.842   8.860  0.00  0.00    +0.000 F 
ENDBRANCH  11  13
ENDBRANCH   5   7
BRANCH   1  17
ATOM     17  C   UNL     1      47.618   3.813  16.997  0.00  0.00    +0.000 C 
BRANCH  17  22
ATOM     18  C   UNL     1      52.443   2.352  17.902  0.00  0.00    +0.000 A 
ATOM     19  C   UNL     1      51.779   3.545  18.164  0.00  0.00    +0.000 A 
ATOM     20  C   UNL     1      50.436   3.667  17.808  0.00  0.00    +0.000 A 
ATOM     21  C   UNL     1      49.771   2.599  17.210  0.00  0.00    +0.000 A 
ATOM     22  N   UNL     1      48.452   2.649  16.837  0.00  0.00    +0.000 N 
ATOM     23  N   UNL     1      50.408   1.435  16.966  0.00  0.00    +0.000 NA
ATOM     24  C   UNL     1      51.715   1.327  17.325  0.00  0.00    +0.000 A 
ATOM     25  H   UNL     1      48.086   1.795  16.436  0.00  0.00    +0.000 HD
BRANCH  18  27
ATOM     26  O   UNL     1      54.775   2.525  17.561  0.00  0.00    +0.000 OA
ATOM     27  C   UNL     1      53.856   2.208  18.296  0.00  0.00    +0.000 C 
BRANCH  27  28
ATOM     28  O   UNL     1      54.037   1.653  19.511  0.00  0.00    +0.000 OA
ATOM     29  H   UNL     1      54.008   2.266  20.270  0.00  0.00    +0.000 HD
ENDBRANCH  27  28
ENDBRANCH  18  27
ENDBRANCH  17  22
ENDBRANCH   1  17
TORSDOF 6
ENDMDL
MODEL 6
REMARK VINA RESULT:    -7.354      5.735      8.900
REMARK INTER + INTRA:         -10.262
REMARK INTER:                  -9.470
REMARK INTRA:                  -0.792
REMARK UNBOUND:                -0.543
REMARK  Name = 
REMARK  6 active torsions:
REMARK  status: ('A' for Active; 'I' for Inactive)
REMARK    1  A    between atoms: C_2  and  O_3
REMARK    2  A    between atoms: C_2  and  C_4
REMARK    3  A    between atoms: N_8  and  C_9
REMARK    4  A    between atoms: C_9  and  C_10
REMARK    5  A    between atoms: C_14  and  C_15
REMARK    6  A    between atoms: C_19  and  C_20
REMARK                            x       y       z     vdW  Elec       q    Type
REMARK                         _______ _______ _______ _____ _____    ______ ____
ROOT
ATOM      1  C   UNL     1      47.079   7.908  13.324  0.00  0.00    +0.000 A 
ATOM      2  C   UNL     1      46.366   9.065  13.041  0.00  0.00    +0.000 A 
ATOM      3  N   UNL     1      45.307   9.108  12.208  0.00  0.00    +0.000 NA
ATOM      4  C   UNL     1      44.945   7.940  11.621  0.00  0.00    +0.000 A 
ATOM      5  C   UNL     1      45.581   6.711  11.808  0.00  0.00    +0.000 A 
ATOM      6  C   UNL     1      46.681   6.727  12.680  0.00  0.00    +0.000 A 
ENDROOT
BRANCH   5   7
ATOM      7  C   UNL     1      45.124   5.479  11.128  0.00  0.00    +0.000 A 
ATOM      8  C   UNL     1      44.072   4.702  11.645  0.00  0.00    +0.000 A 
ATOM      9  C   UNL     1      43.611   3.562  10.981  0.00  0.00    +0.000 A 
ATOM     10  C   UNL     1      44.195   3.167   9.781  0.00  0.00    +0.000 A 
ATOM     11  C   UNL     1      45.251   3.906   9.238  0.00  0.00    +0.000 A 
ATOM     12  C   UNL     1      45.709   5.048   9.923  0.00  0.00    +0.000 A 
BRANCH  11  13
ATOM     13  C   UNL     1      45.887   3.516   7.927  0.00  0.00    +0.000 C 
ATOM     14  F   UNL     1      46.526   2.314   7.965  0.00  0.00    +0.000 F 
ATOM     15  F   UNL     1      44.977   3.422   6.918  0.00  0.00    +0.000 F 
ATOM     16  F   UNL     1      46.815   4.420   7.509  0.00  0.00    +0.000 F 
ENDBRANCH  11  13
ENDBRANCH   5   7
BRANCH   1  17
ATOM     17  C   UNL     1      48.202   7.916  14.320  0.00  0.00    +0.000 C 
BRANCH  17  22
ATOM     18  C   UNL     1      48.847   5.373  18.719  0.00  0.00    +0.000 A 
ATOM     19  C   UNL     1      48.476   6.688  18.463  0.00  0.00    +0.000 A 
ATOM     20  C   UNL     1      48.370   7.119  17.141  0.00  0.00    +0.000 A 
ATOM     21  C   UNL     1      48.623   6.234  16.094  0.00  0.00    +0.000 A 
ATOM     22  N   UNL     1      48.536   6.589  14.773  0.00  0.00    +0.000 N 
ATOM     23  N   UNL     1      48.971   4.954  16.338  0.00  0.00    +0.000 NA
ATOM     24  C   UNL     1      49.062   4.545  17.632  0.00  0.00    +0.000 A 
ATOM     25  H   UNL     1      48.721   5.844  14.114  0.00  0.00    +0.000 HD
BRANCH  18  27
ATOM     26  O   UNL     1      49.406   5.591  21.005  0.00  0.00    +0.000 OA
ATOM     27  C   UNL     1      48.938   4.905  20.113  0.00  0.00    +0.000 C 
BRANCH  27  28
ATOM     28  O   UNL     1      48.506   3.641  20.302  0.00  0.00    +0.000 OA
ATOM     29  H   UNL     1      48.244   3.410  21.213  0.00  0.00    +0.000 HD
ENDBRANCH  27  28
ENDBRANCH  18  27
ENDBRANCH  17  22
ENDBRANCH   1  17
TORSDOF 6
ENDMDL
MODEL 7
REMARK VINA RESULT:    -7.244      3.045      4.521
REMARK INTER + INTRA:         -10.117
REMARK INTER:                  -9.076
REMARK INTRA:                  -1.041
REMARK UNBOUND:                -0.543
REMARK  Name = 
REMARK  6 active torsions:
REMARK  status: ('A' for Active; 'I' for Inactive)
REMARK    1  A    between atoms: C_2  and  O_3
REMARK    2  A    between atoms: C_2  and  C_4
REMARK    3  A    between atoms: N_8  and  C_9
REMARK    4  A    between atoms: C_9  and  C_10
REMARK    5  A    between atoms: C_14  and  C_15
REMARK    6  A    between atoms: C_19  and  C_20
REMARK                            x       y       z     vdW  Elec       q    Type
REMARK                         _______ _______ _______ _____ _____    ______ ____
ROOT
ATOM      1  C   UNL     1      47.534   8.735  13.171  0.00  0.00    +0.000 A 
ATOM      2  C   UNL     1      48.538   9.618  12.795  0.00  0.00    +0.000 A 
ATOM      3  N   UNL     1      49.789   9.588  13.295  0.00  0.00    +0.000 NA
ATOM      4  C   UNL     1      50.051   8.635  14.225  0.00  0.00    +0.000 A 
ATOM      5  C   UNL     1      49.133   7.695  14.698  0.00  0.00    +0.000 A 
ATOM      6  C   UNL     1      47.845   7.778  14.147  0.00  0.00    +0.000 A 
ENDROOT
BRANCH   5   7
ATOM      7  C   UNL     1      49.498   6.685  15.717  0.00  0.00    +0.000 A 
ATOM      8  C   UNL     1      50.786   6.644  16.281  0.00  0.00    +0.000 A 
ATOM      9  C   UNL     1      51.119   5.719  17.274  0.00  0.00    +0.000 A 
ATOM     10  C   UNL     1      50.171   4.806  17.726  0.00  0.00    +0.000 A 
ATOM     11  C   UNL     1      48.881   4.807  17.185  0.00  0.00    +0.000 A 
ATOM     12  C   UNL     1      48.563   5.740  16.179  0.00  0.00    +0.000 A 
BRANCH  11  13
ATOM     13  C   UNL     1      47.826   3.846  17.673  0.00  0.00    +0.000 C 
ATOM     14  F   UNL     1      46.670   4.452  18.060  0.00  0.00    +0.000 F 
ATOM     15  F   UNL     1      47.471   2.940  16.720  0.00  0.00    +0.000 F 
ATOM     16  F   UNL     1      48.243   3.116  18.744  0.00  0.00    +0.000 F 
ENDBRANCH  11  13
ENDBRANCH   5   7
BRANCH   1  17
ATOM     17  C   UNL     1      46.183   8.777  12.517  0.00  0.00    +0.000 C 
BRANCH  17  22
ATOM     18  C   UNL     1      44.197   4.192  11.393  0.00  0.00    +0.000 A 
ATOM     19  C   UNL     1      45.120   4.984  10.720  0.00  0.00    +0.000 A 
ATOM     20  C   UNL     1      45.493   6.210  11.271  0.00  0.00    +0.000 A 
ATOM     21  C   UNL     1      44.952   6.624  12.487  0.00  0.00    +0.000 A 
ATOM     22  N   UNL     1      45.274   7.814  13.086  0.00  0.00    +0.000 N 
ATOM     23  N   UNL     1      44.066   5.852  13.149  0.00  0.00    +0.000 NA
ATOM     24  C   UNL     1      43.718   4.656  12.605  0.00  0.00    +0.000 A 
ATOM     25  H   UNL     1      44.829   7.981  13.980  0.00  0.00    +0.000 HD
BRANCH  18  27
ATOM     26  O   UNL     1      44.224   2.497   9.747  0.00  0.00    +0.000 OA
ATOM     27  C   UNL     1      43.817   2.885  10.828  0.00  0.00    +0.000 C 
BRANCH  27  28
ATOM     28  O   UNL     1      42.947   2.187  11.586  0.00  0.00    +0.000 OA
ATOM     29  H   UNL     1      42.001   2.345  11.406  0.00  0.00    +0.000 HD
ENDBRANCH  27  28
ENDBRANCH  18  27
ENDBRANCH  17  22
ENDBRANCH   1  17
TORSDOF 6
ENDMDL
MODEL 8
REMARK VINA RESULT:    -6.912      2.292      3.012
REMARK INTER + INTRA:          -9.677
REMARK INTER:                  -8.887
REMARK INTRA:                  -0.790
REMARK UNBOUND:                -0.543
REMARK  Name = 
REMARK  6 active torsions:
REMARK  status: ('A' for Active; 'I' for Inactive)
REMARK    1  A    between atoms: C_2  and  O_3
REMARK    2  A    between atoms: C_2  and  C_4
REMARK    3  A    between atoms: N_8  and  C_9
REMARK    4  A    between atoms: C_9  and  C_10
REMARK    5  A    between atoms: C_14  and  C_15
REMARK    6  A    between atoms: C_19  and  C_20
REMARK                            x       y       z     vdW  Elec       q    Type
REMARK                         _______ _______ _______ _____ _____    ______ ____
ROOT
ATOM      1  C   UNL     1      44.969   6.862  11.609  0.00  0.00    +0.000 A 
ATOM      2  C   UNL     1      44.337   8.094  11.709  0.00  0.00    +0.000 A 
ATOM      3  N   UNL     1      44.842   9.144  12.386  0.00  0.00    +0.000 NA
ATOM      4  C   UNL     1      46.035   8.954  13.003  0.00  0.00    +0.000 A 
ATOM      5  C   UNL     1      46.770   7.766  12.992  0.00  0.00    +0.000 A 
ATOM      6  C   UNL     1      46.192   6.705  12.277  0.00  0.00    +0.000 A 
ENDROOT
BRANCH   5   7
ATOM      7  C   UNL     1      48.067   7.639  13.693  0.00  0.00    +0.000 A 
ATOM      8  C   UNL     1      49.283   7.913  13.041  0.00  0.00    +0.000 A 
ATOM      9  C   UNL     1      50.506   7.835  13.713  0.00  0.00    +0.000 A 
ATOM     10  C   UNL     1      50.544   7.477  15.057  0.00  0.00    +0.000 A 
ATOM     11  C   UNL     1      49.358   7.187  15.740  0.00  0.00    +0.000 A 
ATOM     12  C   UNL     1      48.134   7.261  15.046  0.00  0.00    +0.000 A 
BRANCH  11  13
ATOM     13  C   UNL     1      49.367   6.819  17.203  0.00  0.00    +0.000 C 
ATOM     14  F   UNL     1      50.566   6.348  17.642  0.00  0.00    +0.000 F 
ATOM     15  F   UNL     1      49.066   7.878  18.004  0.00  0.00    +0.000 F 
ATOM     16  F   UNL     1      48.454   5.854  17.502  0.00  0.00    +0.000 F 
ENDBRANCH  11  13
ENDBRANCH   5   7
BRANCH   1  17
ATOM     17  C   UNL     1      44.386   5.758  10.775  0.00  0.00    +0.000 C 
BRANCH  17  22
ATOM     18  C   UNL     1      46.500   2.154   7.812  0.00  0.00    +0.000 A 
ATOM     19  C   UNL     1      45.866   2.074   9.046  0.00  0.00    +0.000 A 
ATOM     20  C   UNL     1      45.370   3.239   9.632  0.00  0.00    +0.000 A 
ATOM     21  C   UNL     1      45.501   4.463   8.977  0.00  0.00    +0.000 A 
ATOM     22  N   UNL     1      45.035   5.644   9.494  0.00  0.00    +0.000 N 
ATOM     23  N   UNL     1      46.104   4.542   7.774  0.00  0.00    +0.000 NA
ATOM     24  C   UNL     1      46.575   3.398   7.211  0.00  0.00    +0.000 A 
ATOM     25  H   UNL     1      45.173   6.455   8.904  0.00  0.00    +0.000 HD
BRANCH  18  27
ATOM     26  O   UNL     1      46.720  -0.187   7.585  0.00  0.00    +0.000 OA
ATOM     27  C   UNL     1      47.005   0.925   7.176  0.00  0.00    +0.000 C 
BRANCH  27  28
ATOM     28  O   UNL     1      47.844   1.141   6.143  0.00  0.00    +0.000 OA
ATOM     29  H   UNL     1      48.244   0.346   5.744  0.00  0.00    +0.000 HD
ENDBRANCH  27  28
ENDBRANCH  18  27
ENDBRANCH  17  22
ENDBRANCH   1  17
TORSDOF 6
ENDMDL
MODEL 9
REMARK VINA RESULT:    -6.454      4.565      6.286
REMARK INTER + INTRA:          -9.072
REMARK INTER:                  -8.090
REMARK INTRA:                  -0.983
REMARK UNBOUND:                -0.543
REMARK  Name = 
REMARK  6 active torsions:
REMARK  status: ('A' for Active; 'I' for Inactive)
REMARK    1  A    between atoms: C_2  and  O_3
REMARK    2  A    between atoms: C_2  and  C_4
REMARK    3  A    between atoms: N_8  and  C_9
REMARK    4  A    between atoms: C_9  and  C_10
REMARK    5  A    between atoms: C_14  and  C_15
REMARK    6  A    between atoms: C_19  and  C_20
REMARK                            x       y       z     vdW  Elec       q    Type
REMARK                         _______ _______ _______ _____ _____    ______ ____
ROOT
ATOM      1  C   UNL     1      49.184   9.094  13.829  0.00  0.00    +0.000 A 
ATOM      2  C   UNL     1      49.659  10.376  13.588  0.00  0.00    +0.000 A 
ATOM      3  N   UNL     1      49.690  11.351  14.518  0.00  0.00    +0.000 NA
ATOM      4  C   UNL     1      49.215  11.035  15.749  0.00  0.00    +0.000 A 
ATOM      5  C   UNL     1      48.700   9.791  16.121  0.00  0.00    +0.000 A 
ATOM      6  C   UNL     1      48.686   8.817  15.111  0.00  0.00    +0.000 A 
ENDROOT
BRANCH   5   7
ATOM      7  C   UNL     1      48.199   9.526  17.488  0.00  0.00    +0.000 A 
ATOM      8  C   UNL     1      47.775  10.569  18.330  0.00  0.00    +0.000 A 
ATOM      9  C   UNL     1      47.261  10.317  19.604  0.00  0.00    +0.000 A 
ATOM     10  C   UNL     1      47.162   9.010  20.072  0.00  0.00    +0.000 A 
ATOM     11  C   UNL     1      47.582   7.943  19.270  0.00  0.00    +0.000 A 
ATOM     12  C   UNL     1      48.105   8.215  17.991  0.00  0.00    +0.000 A 
BRANCH  11  13
ATOM     13  C   UNL     1      47.464   6.516  19.742  0.00  0.00    +0.000 C 
ATOM     14  F   UNL     1      46.585   5.770  19.017  0.00  0.00    +0.000 F 
ATOM     15  F   UNL     1      48.652   5.852  19.683  0.00  0.00    +0.000 F 
ATOM     16  F   UNL     1      47.051   6.428  21.036  0.00  0.00    +0.000 F 
ENDBRANCH  11  13
ENDBRANCH   5   7
BRANCH   1  17
ATOM     17  C   UNL     1      49.249   8.033  12.768  0.00  0.00    +0.000 C 
BRANCH  17  22
ATOM     18  C   UNL     1      45.026   5.157  13.132  0.00  0.00    +0.000 A 
ATOM     19  C   UNL     1      45.240   6.409  12.567  0.00  0.00    +0.000 A 
ATOM     20  C   UNL     1      46.520   6.963  12.607  0.00  0.00    +0.000 A 
ATOM     21  C   UNL     1      47.569   6.258  13.196  0.00  0.00    +0.000 A 
ATOM     22  N   UNL     1      48.850   6.741  13.267  0.00  0.00    +0.000 N 
ATOM     23  N   UNL     1      47.368   5.038  13.733  0.00  0.00    +0.000 NA
ATOM     24  C   UNL     1      46.118   4.507  13.681  0.00  0.00    +0.000 A 
ATOM     25  H   UNL     1      49.521   6.118  13.698  0.00  0.00    +0.000 HD
BRANCH  18  27
ATOM     26  O   UNL     1      43.501   3.387  12.780  0.00  0.00    +0.000 OA
ATOM     27  C   UNL     1      43.682   4.556  13.074  0.00  0.00    +0.000 C 
BRANCH  27  28
ATOM     28  O   UNL     1      42.678   5.421  13.322  0.00  0.00    +0.000 OA
ATOM     29  H   UNL     1      42.794   5.998  14.100  0.00  0.00    +0.000 HD
ENDBRANCH  27  28
ENDBRANCH  18  27
ENDBRANCH  17  22
ENDBRANCH   1  17
TORSDOF 6
ENDMDL
