MODEL 1
REMARK VINA RESULT:    -8.184      0.000      0.000
REMARK INTER + INTRA:         -12.190
REMARK INTER:                 -11.055
REMARK INTRA:                  -1.135
REMARK UNBOUND:                -1.135
REMARK  Name = 
REMARK  7 active torsions:
REMARK  status: ('A' for Active; 'I' for Inactive)
REMARK    1  A    between atoms: C_1  and  N_2
REMARK    2  A    between atoms: N_2  and  C_3
REMARK    3  A    between atoms: C_3  and  C_4
REMARK    4  A    between atoms: C_7  and  C_8
REMARK    5  A    between atoms: C_8  and  N_9
REMARK    6  A    between atoms: C_10  and  C_12
REMARK    7  A    between atoms: C_19  and  C_21
REMARK                            x       y       z     vdW  Elec       q    Type
REMARK                         _______ _______ _______ _____ _____    ______ ____
ROOT
ATOM      1  C   UNL     1      47.440   5.794  13.676  0.00  0.00    +0.000 A 
ATOM      2  C   UNL     1      46.843   4.686  14.267  0.00  0.00    +0.000 A 
ATOM      3  C   UNL     1      47.198   4.350  15.573  0.00  0.00    +0.000 A 
ATOM      4  C   UNL     1      48.127   5.130  16.266  0.00  0.00    +0.000 A 
ATOM      5  C   UNL     1      48.670   6.217  15.599  0.00  0.00    +0.000 A 
ATOM      6  N   UNL     1      48.350   6.562  14.331  0.00  0.00    +0.000 NA
ENDROOT
BRANCH   1   7
ATOM      7  C   UNL     1      47.093   6.197  12.258  0.00  0.00    +0.000 C 
BRANCH   7   9
ATOM      8  C   UNL     1      46.092   8.514  12.231  0.00  0.00    +0.000 C 
ATOM      9  N   UNL     1      45.930   7.075  12.055  0.00  0.00    +0.000 N 
ATOM     10  C   UNL     1      44.673   6.628  11.614  0.00  0.00    +0.000 C 
ATOM     11  O   UNL     1      43.767   7.417  11.356  0.00  0.00    +0.000 OA
BRANCH  10  12
ATOM     12  C   UNL     1      44.419   5.184  11.491  0.00  0.00    +0.000 A 
ATOM     13  C   UNL     1      43.673   4.441  12.391  0.00  0.00    +0.000 A 
ATOM     14  S   UNL     1      43.496   2.803  11.943  0.00  0.00    +0.000 S 
ATOM     15  C   UNL     1      44.274   3.072  10.454  0.00  0.00    +0.000 A 
ATOM     16  N   UNL     1      44.359   2.087   9.521  0.00  0.00    +0.000 NA
ATOM     17  C   UNL     1      44.899   2.461   8.408  0.00  0.00    +0.000 A 
ATOM     18  N   UNL     1      45.397   3.714   8.162  0.00  0.00    +0.000 N 
ATOM     19  C   UNL     1      45.465   4.697   9.127  0.00  0.00    +0.000 A 
ATOM     20  O   UNL     1      46.140   5.705   8.954  0.00  0.00    +0.000 OA
ATOM     21  C   UNL     1      44.751   4.365  10.348  0.00  0.00    +0.000 A 
ATOM     22  H   UNL     1      45.871   3.917   7.294  0.00  0.00    +0.000 HD
ENDBRANCH  10  12
ENDBRANCH   7   9
ENDBRANCH   1   7
BRANCH   4  23
ATOM     23  C   UNL     1      48.543   4.791  17.669  0.00  0.00    +0.000 C 
BRANCH  23  24
ATOM     24  N   UNL     1      49.428   3.658  17.711  0.00  0.00    +0.000 N 
ATOM     25  C   UNL     1      50.790   3.801  17.559  0.00  0.00    +0.000 C 
ATOM     26  O   UNL     1      51.335   4.884  17.368  0.00  0.00    +0.000 OA
ATOM     27  H   UNL     1      49.094   2.716  17.897  0.00  0.00    +0.000 HD
BRANCH  25  28
ATOM     28  C   UNL     1      51.532   2.534  17.648  0.00  0.00    +0.000 A 
ATOM     29  C   UNL     1      52.852   2.353  18.137  0.00  0.00    +0.000 A 
ATOM     30  C   UNL     1      53.106   1.009  18.012  0.00  0.00    +0.000 A 
ATOM     31  N   UNL     1      51.979   0.463  17.476  0.00  0.00    +0.000 N 
ATOM     32  N   UNL     1      50.999   1.358  17.253  0.00  0.00    +0.000 NA
ATOM     33  H   UNL     1      51.810  -0.509  17.238  0.00  0.00    +0.000 HD
ENDBRANCH  25  28
ENDBRANCH  23  24
ENDBRANCH   4  23
TORSDOF 6
ENDMDL
MODEL 2
REMARK VINA RESULT:    -8.077      1.660      2.275
REMARK INTER + INTRA:         -12.045
REMARK INTER:                 -11.052
REMARK INTRA:                  -0.994
REMARK UNBOUND:                -1.135
REMARK  Name = 
REMARK  7 active torsions:
REMARK  status: ('A' for Active; 'I' for Inactive)
REMARK    1  A    between atoms: C_1  and  N_2
REMARK    2  A    between atoms: N_2  and  C_3
REMARK    3  A    between atoms: C_3  and  C_4
REMARK    4  A    between atoms: C_7  and  C_8
REMARK    5  A    between atoms: C_8  and  N_9
REMARK    6  A    between atoms: C_10  and  C_12
REMARK    7  A    between atoms: C_19  and  C_21
REMARK                            x       y       z     vdW  Elec       q    Type
REMARK                         _______ _______ _______ _____ _____    ______ ____
ROOT
ATOM      1  C   UNL     1      47.551   5.706  13.750  0.00  0.00    +0.000 A 
ATOM      2  C   UNL     1      46.859   4.501  13.793  0.00  0.00    +0.000 A 
ATOM      3  C   UNL     1      46.895   3.748  14.966  0.00  0.00    +0.000 A 
ATOM      4  C   UNL     1      47.605   4.216  16.074  0.00  0.00    +0.000 A 
ATOM      5  C   UNL     1      48.265   5.428  15.942  0.00  0.00    +0.000 A 
ATOM      6  N   UNL     1      48.253   6.176  14.814  0.00  0.00    +0.000 NA
ENDROOT
BRANCH   1   7
ATOM      7  C   UNL     1      47.549   6.557  12.498  0.00  0.00    +0.000 C 
BRANCH   7   9
ATOM      8  C   UNL     1      46.593   8.829  13.040  0.00  0.00    +0.000 C 
ATOM      9  N   UNL     1      46.477   7.554  12.343  0.00  0.00    +0.000 N 
ATOM     10  C   UNL     1      45.371   7.395  11.490  0.00  0.00    +0.000 C 
ATOM     11  O   UNL     1      44.562   8.304  11.315  0.00  0.00    +0.000 OA
BRANCH  10  12
ATOM     12  C   UNL     1      45.153   6.105  10.818  0.00  0.00    +0.000 A 
ATOM     13  C   UNL     1      45.737   5.740   9.616  0.00  0.00    +0.000 A 
ATOM     14  S   UNL     1      45.349   4.152   9.122  0.00  0.00    +0.000 S 
ATOM     15  C   UNL     1      44.520   3.847  10.576  0.00  0.00    +0.000 A 
ATOM     16  N   UNL     1      44.028   2.612  10.854  0.00  0.00    +0.000 NA
ATOM     17  C   UNL     1      43.500   2.506  12.029  0.00  0.00    +0.000 A 
ATOM     18  N   UNL     1      43.385   3.533  12.930  0.00  0.00    +0.000 N 
ATOM     19  C   UNL     1      43.736   4.834  12.633  0.00  0.00    +0.000 A 
ATOM     20  O   UNL     1      43.388   5.761  13.355  0.00  0.00    +0.000 OA
ATOM     21  C   UNL     1      44.454   4.972  11.377  0.00  0.00    +0.000 A 
ATOM     22  H   UNL     1      42.897   3.399  13.803  0.00  0.00    +0.000 HD
ENDBRANCH  10  12
ENDBRANCH   7   9
ENDBRANCH   1   7
BRANCH   4  23
ATOM     23  C   UNL     1      47.678   3.426  17.350  0.00  0.00    +0.000 C 
BRANCH  23  24
ATOM     24  N   UNL     1      49.032   3.106  17.711  0.00  0.00    +0.000 N 
ATOM     25  C   UNL     1      49.771   2.189  16.997  0.00  0.00    +0.000 C 
ATOM     26  O   UNL     1      49.331   1.581  16.026  0.00  0.00    +0.000 OA
ATOM     27  H   UNL     1      49.514   3.572  18.476  0.00  0.00    +0.000 HD
BRANCH  25  28
ATOM     28  C   UNL     1      51.139   2.005  17.505  0.00  0.00    +0.000 A 
ATOM     29  C   UNL     1      52.046   3.024  17.898  0.00  0.00    +0.000 A 
ATOM     30  C   UNL     1      53.188   2.367  18.286  0.00  0.00    +0.000 A 
ATOM     31  N   UNL     1      52.931   1.040  18.116  0.00  0.00    +0.000 N 
ATOM     32  N   UNL     1      51.694   0.783  17.654  0.00  0.00    +0.000 NA
ATOM     33  H   UNL     1      53.553   0.258  18.294  0.00  0.00    +0.000 HD
ENDBRANCH  25  28
ENDBRANCH  23  24
ENDBRANCH   4  23
TORSDOF 6
ENDMDL
MODEL 3
REMARK VINA RESULT:    -7.552      3.447      8.466
REMARK INTER + INTRA:         -11.335
REMARK INTER:                 -10.302
REMARK INTRA:                  -1.033
REMARK UNBOUND:                -1.135
REMARK  Name = 
REMARK  7 active torsions:
REMARK  status: ('A' for Active; 'I' for Inactive)
REMARK    1  A    between atoms: C_1  and  N_2
REMARK    2  A    between atoms: N_2  and  C_3
REMARK    3  A    between atoms: C_3  and  C_4
REMARK    4  A    between atoms: C_7  and  C_8
REMARK    5  A    between atoms: C_8  and  N_9
REMARK    6  A    between atoms: C_10  and  C_12
REMARK    7  A    between atoms: C_19  and  C_21
REMARK                            x       y       z     vdW  Elec       q    Type
REMARK                         _______ _______ _______ _____ _____    ______ ____
ROOT
ATOM      1  C   UNL     1      46.506   6.775  13.034  0.00  0.00    +0.000 A 
ATOM      2  C   UNL     1      45.718   7.115  11.941  0.00  0.00    +0.000 A 
ATOM      3  C   UNL     1      44.957   6.121  11.327  0.00  0.00    +0.000 A 
ATOM      4  C   UNL     1      44.985   4.815  11.823  0.00  0.00    +0.000 A 
ATOM      5  C   UNL     1      45.799   4.567  12.917  0.00  0.00    +0.000 A 
ATOM      6  N   UNL     1      46.553   5.510  13.527  0.00  0.00    +0.000 NA
ENDROOT
BRANCH   1   7
ATOM      7  C   UNL     1      47.356   7.816  13.731  0.00  0.00    +0.000 C 
BRANCH   7   9
ATOM      8  C   UNL     1      49.437   7.262  12.416  0.00  0.00    +0.000 C 
ATOM      9  N   UNL     1      48.819   7.666  13.674  0.00  0.00    +0.000 N 
ATOM     10  C   UNL     1      49.684   7.968  14.738  0.00  0.00    +0.000 C 
ATOM     11  O   UNL     1      50.905   7.928  14.602  0.00  0.00    +0.000 OA
BRANCH  10  12
ATOM     12  C   UNL     1      49.123   8.306  16.056  0.00  0.00    +0.000 A 
ATOM     13  C   UNL     1      48.827   9.593  16.474  0.00  0.00    +0.000 A 
ATOM     14  S   UNL     1      48.120   9.661  18.027  0.00  0.00    +0.000 S 
ATOM     15  C   UNL     1      48.040   7.965  18.122  0.00  0.00    +0.000 A 
ATOM     16  N   UNL     1      47.427   7.351  19.168  0.00  0.00    +0.000 NA
ATOM     17  C   UNL     1      47.366   6.065  19.062  0.00  0.00    +0.000 A 
ATOM     18  N   UNL     1      47.899   5.338  18.029  0.00  0.00    +0.000 N 
ATOM     19  C   UNL     1      48.656   5.906  17.025  0.00  0.00    +0.000 A 
ATOM     20  O   UNL     1      49.325   5.210  16.270  0.00  0.00    +0.000 OA
ATOM     21  C   UNL     1      48.637   7.359  17.032  0.00  0.00    +0.000 A 
ATOM     22  H   UNL     1      47.879   4.329  18.046  0.00  0.00    +0.000 HD
ENDBRANCH  10  12
ENDBRANCH   7   9
ENDBRANCH   1   7
BRANCH   4  23
ATOM     23  C   UNL     1      44.190   3.715  11.180  0.00  0.00    +0.000 C 
BRANCH  23  24
ATOM     24  N   UNL     1      44.992   2.912  10.297  0.00  0.00    +0.000 N 
ATOM     25  C   UNL     1      45.117   3.218   8.959  0.00  0.00    +0.000 C 
ATOM     26  O   UNL     1      44.554   4.174   8.432  0.00  0.00    +0.000 OA
ATOM     27  H   UNL     1      45.532   2.117  10.627  0.00  0.00    +0.000 HD
BRANCH  25  28
ATOM     28  C   UNL     1      45.991   2.295   8.220  0.00  0.00    +0.000 A 
ATOM     29  C   UNL     1      46.930   2.635   7.212  0.00  0.00    +0.000 A 
ATOM     30  C   UNL     1      47.491   1.444   6.819  0.00  0.00    +0.000 A 
ATOM     31  N   UNL     1      46.890   0.481   7.572  0.00  0.00    +0.000 N 
ATOM     32  N   UNL     1      45.982   0.963   8.441  0.00  0.00    +0.000 NA
ATOM     33  H   UNL     1      47.050  -0.521   7.546  0.00  0.00    +0.000 HD
ENDBRANCH  25  28
ENDBRANCH  23  24
ENDBRANCH   4  23
TORSDOF 6
ENDMDL
MODEL 4
REMARK VINA RESULT:    -7.409      3.511      8.631
REMARK INTER + INTRA:         -11.142
REMARK INTER:                  -9.948
REMARK INTRA:                  -1.194
REMARK UNBOUND:                -1.135
REMARK  Name = 
REMARK  7 active torsions:
REMARK  status: ('A' for Active; 'I' for Inactive)
REMARK    1  A    between atoms: C_1  and  N_2
REMARK    2  A    between atoms: N_2  and  C_3
REMARK    3  A    between atoms: C_3  and  C_4
REMARK    4  A    between atoms: C_7  and  C_8
REMARK    5  A    between atoms: C_8  and  N_9
REMARK    6  A    between atoms: C_10  and  C_12
REMARK    7  A    between atoms: C_19  and  C_21
REMARK                            x       y       z     vdW  Elec       q    Type
REMARK                         _______ _______ _______ _____ _____    ______ ____
ROOT
ATOM      1  C   UNL     1      46.618   6.595  13.234  0.00  0.00    +0.000 A 
ATOM      2  C   UNL     1      45.857   6.970  12.133  0.00  0.00    +0.000 A 
ATOM      3  C   UNL     1      45.082   6.004  11.493  0.00  0.00    +0.000 A 
ATOM      4  C   UNL     1      45.069   4.690  11.971  0.00  0.00    +0.000 A 
ATOM      5  C   UNL     1      45.858   4.407  13.075  0.00  0.00    +0.000 A 
ATOM      6  N   UNL     1      46.626   5.323  13.711  0.00  0.00    +0.000 NA
ENDROOT
BRANCH   1   7
ATOM      7  C   UNL     1      47.481   7.606  13.960  0.00  0.00    +0.000 C 
BRANCH   7   9
ATOM      8  C   UNL     1      49.727   7.619  12.809  0.00  0.00    +0.000 C 
ATOM      9  N   UNL     1      48.933   7.367  14.006  0.00  0.00    +0.000 N 
ATOM     10  C   UNL     1      49.633   6.988  15.163  0.00  0.00    +0.000 C 
ATOM     11  O   UNL     1      50.860   6.909  15.173  0.00  0.00    +0.000 OA
BRANCH  10  12
ATOM     12  C   UNL     1      48.885   6.645  16.383  0.00  0.00    +0.000 A 
ATOM     13  C   UNL     1      48.549   5.354  16.758  0.00  0.00    +0.000 A 
ATOM     14  S   UNL     1      47.742   5.267  18.260  0.00  0.00    +0.000 S 
ATOM     15  C   UNL     1      47.959   6.932  18.531  0.00  0.00    +0.000 A 
ATOM     16  N   UNL     1      47.592   7.502  19.709  0.00  0.00    +0.000 NA
ATOM     17  C   UNL     1      47.896   8.754  19.806  0.00  0.00    +0.000 A 
ATOM     18  N   UNL     1      48.493   9.493  18.818  0.00  0.00    +0.000 N 
ATOM     19  C   UNL     1      48.747   8.994  17.557  0.00  0.00    +0.000 A 
ATOM     20  O   UNL     1      49.039   9.741  16.631  0.00  0.00    +0.000 OA
ATOM     21  C   UNL     1      48.545   7.559  17.447  0.00  0.00    +0.000 A 
ATOM     22  H   UNL     1      48.637  10.485  18.934  0.00  0.00    +0.000 HD
ENDBRANCH  10  12
ENDBRANCH   7   9
ENDBRANCH   1   7
BRANCH   4  23
ATOM     23  C   UNL     1      44.258   3.620  11.300  0.00  0.00    +0.000 C 
BRANCH  23  24
ATOM     24  N   UNL     1      45.041   2.849  10.372  0.00  0.00    +0.000 N 
ATOM     25  C   UNL     1      45.077   3.158   9.030  0.00  0.00    +0.000 C 
ATOM     26  O   UNL     1      44.447   4.089   8.537  0.00  0.00    +0.000 OA
ATOM     27  H   UNL     1      45.631   2.077  10.671  0.00  0.00    +0.000 HD
BRANCH  25  28
ATOM     28  C   UNL     1      45.944   2.270   8.241  0.00  0.00    +0.000 A 
ATOM     29  C   UNL     1      46.853   2.653   7.221  0.00  0.00    +0.000 A 
ATOM     30  C   UNL     1      47.421   1.483   6.778  0.00  0.00    +0.000 A 
ATOM     31  N   UNL     1      46.852   0.490   7.518  0.00  0.00    +0.000 N 
ATOM     32  N   UNL     1      45.961   0.932   8.423  0.00  0.00    +0.000 NA
ATOM     33  H   UNL     1      47.026  -0.509   7.458  0.00  0.00    +0.000 HD
ENDBRANCH  25  28
ENDBRANCH  23  24
ENDBRANCH   4  23
TORSDOF 6
ENDMDL
MODEL 5
REMARK VINA RESULT:    -7.347      2.154      8.504
REMARK INTER + INTRA:         -11.059
REMARK INTER:                 -10.041
REMARK INTRA:                  -1.019
REMARK UNBOUND:                -1.135
REMARK  Name = 
REMARK  7 active torsions:
REMARK  status: ('A' for Active; 'I' for Inactive)
REMARK    1  A    between atoms: C_1  and  N_2
REMARK    2  A    between atoms: N_2  and  C_3
REMARK    3  A    between atoms: C_3  and  C_4
REMARK    4  A    between atoms: C_7  and  C_8
REMARK    5  A    between atoms: C_8  and  N_9
REMARK    6  A    between atoms: C_10  and  C_12
REMARK    7  A    between atoms: C_19  and  C_21
REMARK                            x       y       z     vdW  Elec       q    Type
REMARK                         _______ _______ _______ _____ _____    ______ ____
ROOT
ATOM      1  C   UNL     1      48.235   6.906  14.356  0.00  0.00    +0.000 A 
ATOM      2  C   UNL     1      47.602   8.041  13.862  0.00  0.00    +0.000 A 
ATOM      3  C   UNL     1      46.596   7.887  12.908  0.00  0.00    +0.000 A 
ATOM      4  C   UNL     1      46.232   6.608  12.479  0.00  0.00    +0.000 A 
ATOM      5  C   UNL     1      46.916   5.534  13.027  0.00  0.00    +0.000 A 
ATOM      6  N   UNL     1      47.900   5.654  13.947  0.00  0.00    +0.000 NA
ENDROOT
BRANCH   1   7
ATOM      7  C   UNL     1      49.337   7.020  15.388  0.00  0.00    +0.000 C 
BRANCH   7   9
ATOM      8  C   UNL     1      49.072   9.011  16.916  0.00  0.00    +0.000 C 
ATOM      9  N   UNL     1      48.992   7.570  16.709  0.00  0.00    +0.000 N 
ATOM     10  C   UNL     1      48.504   6.802  17.779  0.00  0.00    +0.000 C 
ATOM     11  O   UNL     1      48.128   7.326  18.825  0.00  0.00    +0.000 OA
BRANCH  10  12
ATOM     12  C   UNL     1      48.471   5.335  17.663  0.00  0.00    +0.000 A 
ATOM     13  C   UNL     1      47.343   4.600  17.337  0.00  0.00    +0.000 A 
ATOM     14  S   UNL     1      47.634   2.923  17.209  0.00  0.00    +0.000 S 
ATOM     15  C   UNL     1      49.307   3.143  17.428  0.00  0.00    +0.000 A 
ATOM     16  N   UNL     1      50.170   2.100  17.315  0.00  0.00    +0.000 NA
ATOM     17  C   UNL     1      51.415   2.433  17.420  0.00  0.00    +0.000 A 
ATOM     18  N   UNL     1      51.868   3.703  17.667  0.00  0.00    +0.000 N 
ATOM     19  C   UNL     1      51.024   4.761  17.934  0.00  0.00    +0.000 A 
ATOM     20  O   UNL     1      51.456   5.810  18.398  0.00  0.00    +0.000 OA
ATOM     21  C   UNL     1      49.622   4.463  17.696  0.00  0.00    +0.000 A 
ATOM     22  H   UNL     1      52.851   3.880  17.808  0.00  0.00    +0.000 HD
ENDBRANCH  10  12
ENDBRANCH   7   9
ENDBRANCH   1   7
BRANCH   4  23
ATOM     23  C   UNL     1      45.163   6.403  11.444  0.00  0.00    +0.000 C 
BRANCH  23  24
ATOM     24  N   UNL     1      45.657   5.708  10.286  0.00  0.00    +0.000 N 
ATOM     25  C   UNL     1      45.056   4.557   9.826  0.00  0.00    +0.000 C 
ATOM     26  O   UNL     1      44.080   4.046  10.367  0.00  0.00    +0.000 OA
ATOM     27  H   UNL     1      46.439   6.056   9.736  0.00  0.00    +0.000 HD
BRANCH  25  28
ATOM     28  C   UNL     1      45.690   3.998   8.623  0.00  0.00    +0.000 A 
ATOM     29  C   UNL     1      45.607   2.659   8.160  0.00  0.00    +0.000 A 
ATOM     30  C   UNL     1      46.365   2.620   7.015  0.00  0.00    +0.000 A 
ATOM     31  N   UNL     1      46.852   3.881   6.847  0.00  0.00    +0.000 N 
ATOM     32  N   UNL     1      46.453   4.746   7.796  0.00  0.00    +0.000 NA
ATOM     33  H   UNL     1      47.459   4.221   6.107  0.00  0.00    +0.000 HD
ENDBRANCH  25  28
ENDBRANCH  23  24
ENDBRANCH   4  23
TORSDOF 6
ENDMDL
MODEL 6
REMARK VINA RESULT:    -7.046      2.026      8.445
REMARK INTER + INTRA:         -10.652
REMARK INTER:                  -9.657
REMARK INTRA:                  -0.994
REMARK UNBOUND:                -1.135
REMARK  Name = 
REMARK  7 active torsions:
REMARK  status: ('A' for Active; 'I' for Inactive)
REMARK    1  A    between atoms: C_1  and  N_2
REMARK    2  A    between atoms: N_2  and  C_3
REMARK    3  A    between atoms: C_3  and  C_4
REMARK    4  A    between atoms: C_7  and  C_8
REMARK    5  A    between atoms: C_8  and  N_9
REMARK    6  A    between atoms: C_10  and  C_12
REMARK    7  A    between atoms: C_19  and  C_21
REMARK                            x       y       z     vdW  Elec       q    Type
REMARK                         _______ _______ _______ _____ _____    ______ ____
ROOT
ATOM      1  C   UNL     1      48.522   7.045  14.720  0.00  0.00    +0.000 A 
ATOM      2  C   UNL     1      47.938   8.242  14.320  0.00  0.00    +0.000 A 
ATOM      3  C   UNL     1      46.908   8.204  13.381  0.00  0.00    +0.000 A 
ATOM      4  C   UNL     1      46.472   6.978  12.872  0.00  0.00    +0.000 A 
ATOM      5  C   UNL     1      47.111   5.836  13.328  0.00  0.00    +0.000 A 
ATOM      6  N   UNL     1      48.118   5.843  14.232  0.00  0.00    +0.000 NA
ENDROOT
BRANCH   1   7
ATOM      7  C   UNL     1      49.648   7.032  15.732  0.00  0.00    +0.000 C 
BRANCH   7   9
ATOM      8  C   UNL     1      49.520   8.832  17.496  0.00  0.00    +0.000 C 
ATOM      9  N   UNL     1      49.340   7.437  17.113  0.00  0.00    +0.000 N 
ATOM     10  C   UNL     1      48.796   6.578  18.083  0.00  0.00    +0.000 C 
ATOM     11  O   UNL     1      48.456   6.994  19.188  0.00  0.00    +0.000 OA
BRANCH  10  12
ATOM     12  C   UNL     1      48.661   5.143  17.786  0.00  0.00    +0.000 A 
ATOM     13  C   UNL     1      47.503   4.546  17.316  0.00  0.00    +0.000 A 
ATOM     14  S   UNL     1      47.674   2.877  16.999  0.00  0.00    +0.000 S 
ATOM     15  C   UNL     1      49.342   2.934  17.326  0.00  0.00    +0.000 A 
ATOM     16  N   UNL     1      50.131   1.844  17.130  0.00  0.00    +0.000 NA
ATOM     17  C   UNL     1      51.388   2.059  17.337  0.00  0.00    +0.000 A 
ATOM     18  N   UNL     1      51.919   3.250  17.760  0.00  0.00    +0.000 N 
ATOM     19  C   UNL     1      51.142   4.335  18.112  0.00  0.00    +0.000 A 
ATOM     20  O   UNL     1      51.623   5.282  18.723  0.00  0.00    +0.000 OA
ATOM     21  C   UNL     1      49.739   4.182  17.770  0.00  0.00    +0.000 A 
ATOM     22  H   UNL     1      52.903   3.328  17.971  0.00  0.00    +0.000 HD
ENDBRANCH  10  12
ENDBRANCH   7   9
ENDBRANCH   1   7
BRANCH   4  23
ATOM     23  C   UNL     1      45.375   6.900  11.849  0.00  0.00    +0.000 C 
BRANCH  23  24
ATOM     24  N   UNL     1      45.450   5.696  11.067  0.00  0.00    +0.000 N 
ATOM     25  C   UNL     1      44.316   5.066  10.603  0.00  0.00    +0.000 C 
ATOM     26  O   UNL     1      43.180   5.473  10.829  0.00  0.00    +0.000 OA
ATOM     27  H   UNL     1      46.337   5.284  10.787  0.00  0.00    +0.000 HD
BRANCH  25  28
ATOM     28  C   UNL     1      44.591   3.860   9.807  0.00  0.00    +0.000 A 
ATOM     29  C   UNL     1      45.181   3.806   8.517  0.00  0.00    +0.000 A 
ATOM     30  C   UNL     1      45.221   2.473   8.189  0.00  0.00    +0.000 A 
ATOM     31  N   UNL     1      44.676   1.811   9.248  0.00  0.00    +0.000 N 
ATOM     32  N   UNL     1      44.294   2.620  10.253  0.00  0.00    +0.000 NA
ATOM     33  H   UNL     1      44.536   0.811   9.352  0.00  0.00    +0.000 HD
ENDBRANCH  25  28
ENDBRANCH  23  24
ENDBRANCH   4  23
TORSDOF 6
ENDMDL
MODEL 7
REMARK VINA RESULT:    -6.949      3.007      8.059
REMARK INTER + INTRA:         -10.522
REMARK INTER:                  -9.089
REMARK INTRA:                  -1.433
REMARK UNBOUND:                -1.135
REMARK  Name = 
REMARK  7 active torsions:
REMARK  status: ('A' for Active; 'I' for Inactive)
REMARK    1  A    between atoms: C_1  and  N_2
REMARK    2  A    between atoms: N_2  and  C_3
REMARK    3  A    between atoms: C_3  and  C_4
REMARK    4  A    between atoms: C_7  and  C_8
REMARK    5  A    between atoms: C_8  and  N_9
REMARK    6  A    between atoms: C_10  and  C_12
REMARK    7  A    between atoms: C_19  and  C_21
REMARK                            x       y       z     vdW  Elec       q    Type
REMARK                         _______ _______ _______ _____ _____    ______ ____
ROOT
ATOM      1  C   UNL     1      49.027   7.888  15.658  0.00  0.00    +0.000 A 
ATOM      2  C   UNL     1      48.191   8.881  15.161  0.00  0.00    +0.000 A 
ATOM      3  C   UNL     1      47.569   8.681  13.929  0.00  0.00    +0.000 A 
ATOM      4  C   UNL     1      47.782   7.492  13.226  0.00  0.00    +0.000 A 
ATOM      5  C   UNL     1      48.631   6.557  13.798  0.00  0.00    +0.000 A 
ATOM      6  N   UNL     1      49.253   6.729  14.987  0.00  0.00    +0.000 NA
ENDROOT
BRANCH   1   7
ATOM      7  C   UNL     1      49.730   8.061  16.988  0.00  0.00    +0.000 C 
BRANCH   7   9
ATOM      8  C   UNL     1      48.080   8.842  18.730  0.00  0.00    +0.000 C 
ATOM      9  N   UNL     1      48.961   7.800  18.215  0.00  0.00    +0.000 N 
ATOM     10  C   UNL     1      48.950   6.568  18.891  0.00  0.00    +0.000 C 
ATOM     11  O   UNL     1      48.206   6.370  19.849  0.00  0.00    +0.000 OA
BRANCH  10  12
ATOM     12  C   UNL     1      49.872   5.502  18.470  0.00  0.00    +0.000 A 
ATOM     13  C   UNL     1      51.184   5.386  18.899  0.00  0.00    +0.000 A 
ATOM     14  S   UNL     1      51.983   4.005  18.292  0.00  0.00    +0.000 S 
ATOM     15  C   UNL     1      50.554   3.434  17.566  0.00  0.00    +0.000 A 
ATOM     16  N   UNL     1      50.514   2.216  16.964  0.00  0.00    +0.000 NA
ATOM     17  C   UNL     1      49.343   1.879  16.534  0.00  0.00    +0.000 A 
ATOM     18  N   UNL     1      48.223   2.665  16.616  0.00  0.00    +0.000 N 
ATOM     19  C   UNL     1      48.250   3.963  17.084  0.00  0.00    +0.000 A 
ATOM     20  O   UNL     1      47.300   4.717  16.908  0.00  0.00    +0.000 OA
ATOM     21  C   UNL     1      49.513   4.334  17.699  0.00  0.00    +0.000 A 
ATOM     22  H   UNL     1      47.355   2.369  16.195  0.00  0.00    +0.000 HD
ENDBRANCH  10  12
ENDBRANCH   7   9
ENDBRANCH   1   7
BRANCH   4  23
ATOM     23  C   UNL     1      47.141   7.246  11.891  0.00  0.00    +0.000 C 
BRANCH  23  24
ATOM     24  N   UNL     1      46.421   6.002  11.857  0.00  0.00    +0.000 N 
ATOM     25  C   UNL     1      45.146   5.893  12.369  0.00  0.00    +0.000 C 
ATOM     26  O   UNL     1      44.548   6.830  12.890  0.00  0.00    +0.000 OA
ATOM     27  H   UNL     1      46.800   5.166  11.419  0.00  0.00    +0.000 HD
BRANCH  25  28
ATOM     28  C   UNL     1      44.564   4.549  12.230  0.00  0.00    +0.000 A 
ATOM     29  C   UNL     1      43.463   4.177  11.416  0.00  0.00    +0.000 A 
ATOM     30  C   UNL     1      43.290   2.831  11.627  0.00  0.00    +0.000 A 
ATOM     31  N   UNL     1      44.251   2.467  12.521  0.00  0.00    +0.000 N 
ATOM     32  N   UNL     1      45.050   3.482  12.900  0.00  0.00    +0.000 NA
ATOM     33  H   UNL     1      44.420   1.547  12.915  0.00  0.00    +0.000 HD
ENDBRANCH  25  28
ENDBRANCH  23  24
ENDBRANCH   4  23
TORSDOF 6
ENDMDL
MODEL 8
REMARK VINA RESULT:    -6.693      2.759      8.930
REMARK INTER + INTRA:         -10.176
REMARK INTER:                  -9.221
REMARK INTRA:                  -0.954
REMARK UNBOUND:                -1.135
REMARK  Name = 
REMARK  7 active torsions:
REMARK  status: ('A' for Active; 'I' for Inactive)
REMARK    1  A    between atoms: C_1  and  N_2
REMARK    2  A    between atoms: N_2  and  C_3
REMARK    3  A    between atoms: C_3  and  C_4
REMARK    4  A    between atoms: C_7  and  C_8
REMARK    5  A    between atoms: C_8  and  N_9
REMARK    6  A    between atoms: C_10  and  C_12
REMARK    7  A    between atoms: C_19  and  C_21
REMARK                            x       y       z     vdW  Elec       q    Type
REMARK                         _______ _______ _______ _____ _____    ______ ____
ROOT
ATOM      1  C   UNL     1      49.051   6.795  14.999  0.00  0.00    +0.000 A 
ATOM      2  C   UNL     1      49.077   7.994  14.296  0.00  0.00    +0.000 A 
ATOM      3  C   UNL     1      48.190   8.169  13.235  0.00  0.00    +0.000 A 
ATOM      4  C   UNL     1      47.286   7.154  12.906  0.00  0.00    +0.000 A 
ATOM      5  C   UNL     1      47.330   5.993  13.663  0.00  0.00    +0.000 A 
ATOM      6  N   UNL     1      48.186   5.794  14.692  0.00  0.00    +0.000 NA
ENDROOT
BRANCH   1   7
ATOM      7  C   UNL     1      49.999   6.554  16.155  0.00  0.00    +0.000 C 
BRANCH   7   9
ATOM      8  C   UNL     1      48.263   7.392  17.784  0.00  0.00    +0.000 C 
ATOM      9  N   UNL     1      49.446   6.582  17.519  0.00  0.00    +0.000 N 
ATOM     10  C   UNL     1      49.935   5.806  18.583  0.00  0.00    +0.000 C 
ATOM     11  O   UNL     1      49.369   5.786  19.674  0.00  0.00    +0.000 OA
BRANCH  10  12
ATOM     12  C   UNL     1      51.170   5.028  18.405  0.00  0.00    +0.000 A 
ATOM     13  C   UNL     1      52.419   5.425  18.855  0.00  0.00    +0.000 A 
ATOM     14  S   UNL     1      53.649   4.278  18.562  0.00  0.00    +0.000 S 
ATOM     15  C   UNL     1      52.524   3.147  17.970  0.00  0.00    +0.000 A 
ATOM     16  N   UNL     1      52.907   1.885  17.644  0.00  0.00    +0.000 NA
ATOM     17  C   UNL     1      51.933   1.112  17.292  0.00  0.00    +0.000 A 
ATOM     18  N   UNL     1      50.621   1.500  17.199  0.00  0.00    +0.000 N 
ATOM     19  C   UNL     1      50.211   2.805  17.377  0.00  0.00    +0.000 A 
ATOM     20  O   UNL     1      49.089   3.164  17.039  0.00  0.00    +0.000 OA
ATOM     21  C   UNL     1      51.248   3.676  17.902  0.00  0.00    +0.000 A 
ATOM     22  H   UNL     1      49.921   0.864  16.848  0.00  0.00    +0.000 HD
ENDBRANCH  10  12
ENDBRANCH   7   9
ENDBRANCH   1   7
BRANCH   4  23
ATOM     23  C   UNL     1      46.325   7.301  11.762  0.00  0.00    +0.000 C 
BRANCH  23  24
ATOM     24  N   UNL     1      46.080   6.049  11.097  0.00  0.00    +0.000 N 
ATOM     25  C   UNL     1      44.806   5.542  10.961  0.00  0.00    +0.000 C 
ATOM     26  O   UNL     1      43.808   6.107  11.399  0.00  0.00    +0.000 OA
ATOM     27  H   UNL     1      46.826   5.510  10.665  0.00  0.00    +0.000 HD
BRANCH  25  28
ATOM     28  C   UNL     1      44.752   4.262  10.239  0.00  0.00    +0.000 A 
ATOM     29  C   UNL     1      44.931   4.061   8.846  0.00  0.00    +0.000 A 
ATOM     30  C   UNL     1      44.781   2.710   8.648  0.00  0.00    +0.000 A 
ATOM     31  N   UNL     1      44.527   2.180   9.877  0.00  0.00    +0.000 N 
ATOM     32  N   UNL     1      44.514   3.091  10.868  0.00  0.00    +0.000 NA
ATOM     33  H   UNL     1      44.355   1.207  10.113  0.00  0.00    +0.000 HD
ENDBRANCH  25  28
ENDBRANCH  23  24
ENDBRANCH   4  23
TORSDOF 6
ENDMDL
MODEL 9
REMARK VINA RESULT:    -6.207      4.270      5.572
REMARK INTER + INTRA:          -9.520
REMARK INTER:                  -8.481
REMARK INTRA:                  -1.038
REMARK UNBOUND:                -1.135
REMARK  Name = 
REMARK  7 active torsions:
REMARK  status: ('A' for Active; 'I' for Inactive)
REMARK    1  A    between atoms: C_1  and  N_2
REMARK    2  A    between atoms: N_2  and  C_3
REMARK    3  A    between atoms: C_3  and  C_4
REMARK    4  A    between atoms: C_7  and  C_8
REMARK    5  A    between atoms: C_8  and  N_9
REMARK    6  A    between atoms: C_10  and  C_12
REMARK    7  A    between atoms: C_19  and  C_21
REMARK                            x       y       z     vdW  Elec       q    Type
REMARK                         _______ _______ _______ _____ _____    ______ ____
ROOT
ATOM      1  C   UNL     1      47.780   6.980  12.935  0.00  0.00    +0.000 A 
ATOM      2  C   UNL     1      48.379   7.201  11.700  0.00  0.00    +0.000 A 
ATOM      3  C   UNL     1      49.676   7.711  11.665  0.00  0.00    +0.000 A 
ATOM      4  C   UNL     1      50.354   7.976  12.858  0.00  0.00    +0.000 A 
ATOM      5  C   UNL     1      49.680   7.724  14.043  0.00  0.00    +0.000 A 
ATOM      6  N   UNL     1      48.419   7.237  14.106  0.00  0.00    +0.000 NA
ENDROOT
BRANCH   1   7
ATOM      7  C   UNL     1      46.371   6.433  13.026  0.00  0.00    +0.000 C 
BRANCH   7   9
ATOM      8  C   UNL     1      45.288   8.672  12.601  0.00  0.00    +0.000 C 
ATOM      9  N   UNL     1      45.283   7.224  12.429  0.00  0.00    +0.000 N 
ATOM     10  C   UNL     1      44.269   6.685  11.620  0.00  0.00    +0.000 C 
ATOM     11  O   UNL     1      43.448   7.405  11.057  0.00  0.00    +0.000 OA
BRANCH  10  12
ATOM     12  C   UNL     1      44.162   5.225  11.468  0.00  0.00    +0.000 A 
ATOM     13  C   UNL     1      43.377   4.411  12.268  0.00  0.00    +0.000 A 
ATOM     14  S   UNL     1      43.404   2.768  11.804  0.00  0.00    +0.000 S 
ATOM     15  C   UNL     1      44.336   3.118  10.425  0.00  0.00    +0.000 A 
ATOM     16  N   UNL     1      44.624   2.154   9.512  0.00  0.00    +0.000 NA
ATOM     17  C   UNL     1      45.264   2.584   8.475  0.00  0.00    +0.000 A 
ATOM     18  N   UNL     1      45.676   3.879   8.291  0.00  0.00    +0.000 N 
ATOM     19  C   UNL     1      45.535   4.855   9.256  0.00  0.00    +0.000 A 
ATOM     20  O   UNL     1      46.135   5.920   9.167  0.00  0.00    +0.000 OA
ATOM     21  C   UNL     1      44.706   4.450  10.378  0.00  0.00    +0.000 A 
ATOM     22  H   UNL     1      46.235   4.131   7.490  0.00  0.00    +0.000 HD
ENDBRANCH  10  12
ENDBRANCH   7   9
ENDBRANCH   1   7
BRANCH   4  23
ATOM     23  C   UNL     1      51.746   8.539  12.860  0.00  0.00    +0.000 C 
BRANCH  23  24
ATOM     24  N   UNL     1      52.548   8.001  11.795  0.00  0.00    +0.000 N 
ATOM     25  C   UNL     1      53.061   8.806  10.802  0.00  0.00    +0.000 C 
ATOM     26  O   UNL     1      52.865  10.017  10.749  0.00  0.00    +0.000 OA
ATOM     27  H   UNL     1      52.806   7.018  11.752  0.00  0.00    +0.000 HD
BRANCH  25  28
ATOM     28  C   UNL     1      53.869   8.082   9.809  0.00  0.00    +0.000 A 
ATOM     29  C   UNL     1      55.212   7.646   9.958  0.00  0.00    +0.000 A 
ATOM     30  C   UNL     1      55.531   7.032   8.771  0.00  0.00    +0.000 A 
ATOM     31  N   UNL     1      54.416   7.122   7.993  0.00  0.00    +0.000 N 
ATOM     32  N   UNL     1      53.384   7.742   8.595  0.00  0.00    +0.000 NA
ATOM     33  H   UNL     1      54.289   6.782   7.045  0.00  0.00    +0.000 HD
ENDBRANCH  25  28
ENDBRANCH  23  24
ENDBRANCH   4  23
TORSDOF 6
ENDMDL
