MODEL 1
REMARK VINA RESULT:    -7.574      0.000      0.000
REMARK INTER + INTRA:         -11.695
REMARK INTER:                 -10.673
REMARK INTRA:                  -1.022
REMARK UNBOUND:                -1.022
REMARK  Name = 
REMARK  7 active torsions:
REMARK  status: ('A' for Active; 'I' for Inactive)
REMARK    1  A    between atoms: C_2  and  C_3
REMARK    2  A    between atoms: C_8  and  C_9
REMARK    3  A    between atoms: N_11  and  C_12
REMARK    4  A    between atoms: C_12  and  C_13
REMARK    5  A    between atoms: C_16  and  C_17
REMARK    6  A    between atoms: C_17  and  N_18
REMARK    7  A    between atoms: C_19  and  C_21
REMARK                            x       y       z     vdW  Elec       q    Type
REMARK                         _______ _______ _______ _____ _____    ______ ____
ROOT
ATOM      1  C   UNL     1      46.984   5.881  13.120  0.00  0.00    +0.000 C 
ATOM      2  C   UNL     1      45.587   6.482  12.923  0.00  0.00    +0.000 C 
ATOM      3  C   UNL     1      44.677   5.586  12.084  0.00  0.00    +0.000 C 
ATOM      4  C   UNL     1      44.547   4.182  12.692  0.00  0.00    +0.000 C 
ATOM      5  C   UNL     1      45.941   3.564  12.886  0.00  0.00    +0.000 C 
ATOM      6  C   UNL     1      46.875   4.460  13.699  0.00  0.00    +0.000 C 
ENDROOT
BRANCH   1   7
ATOM      7  C   UNL     1      47.849   6.766  14.039  0.00  0.00    +0.000 C 
BRANCH   7  10
ATOM      8  C   UNL     1      49.067   6.195  16.118  0.00  0.00    +0.000 C 
ATOM      9  O   UNL     1      50.156   6.469  15.624  0.00  0.00    +0.000 OA
ATOM     10  N   UNL     1      47.884   6.302  15.419  0.00  0.00    +0.000 N 
ATOM     11  H   UNL     1      46.999   6.036  15.827  0.00  0.00    +0.000 HD
BRANCH   8  17
ATOM     12  C   UNL     1      48.963   4.307  17.869  0.00  0.00    +0.000 A 
ATOM     13  C   UNL     1      48.915   3.941  19.230  0.00  0.00    +0.000 A 
ATOM     14  C   UNL     1      48.911   4.911  20.232  0.00  0.00    +0.000 A 
ATOM     15  C   UNL     1      48.953   6.257  19.886  0.00  0.00    +0.000 A 
ATOM     16  C   UNL     1      49.010   6.629  18.541  0.00  0.00    +0.000 A 
ATOM     17  C   UNL     1      49.029   5.663  17.517  0.00  0.00    +0.000 A 
BRANCH  12  19
ATOM     18  N   UNL     1      48.836   2.423  16.099  0.00  0.00    +0.000 NA
ATOM     19  C   UNL     1      48.913   3.248  16.911  0.00  0.00    +0.000 C 
ENDBRANCH  12  19
ENDBRANCH   8  17
ENDBRANCH   7  10
ENDBRANCH   1   7
BRANCH   4  20
ATOM     20  C   UNL     1      43.683   3.256  11.813  0.00  0.00    +0.000 C 
BRANCH  20  21
ATOM     21  N   UNL     1      44.448   2.517  10.829  0.00  0.00    +0.000 N 
ATOM     22  C   UNL     1      44.574   2.936   9.528  0.00  0.00    +0.000 C 
ATOM     23  O   UNL     1      44.054   3.973   9.126  0.00  0.00    +0.000 OA
ATOM     24  H   UNL     1      44.800   1.603  11.099  0.00  0.00    +0.000 HD
BRANCH  22  25
ATOM     25  C   UNL     1      45.404   2.109   8.641  0.00  0.00    +0.000 A 
ATOM     26  C   UNL     1      45.262   0.728   8.676  0.00  0.00    +0.000 A 
ATOM     27  S   UNL     1      46.288  -0.096   7.593  0.00  0.00    +0.000 S 
ATOM     28  C   UNL     1      46.993   1.360   7.069  0.00  0.00    +0.000 A 
ATOM     29  N   UNL     1      47.996   1.355   6.150  0.00  0.00    +0.000 NA
ATOM     30  C   UNL     1      48.461   2.524   5.863  0.00  0.00    +0.000 A 
ATOM     31  N   UNL     1      48.009   3.698   6.405  0.00  0.00    +0.000 N 
ATOM     32  C   UNL     1      46.962   3.758   7.295  0.00  0.00    +0.000 A 
ATOM     33  O   UNL     1      46.518   4.831   7.688  0.00  0.00    +0.000 OA
ATOM     34  C   UNL     1      46.428   2.464   7.684  0.00  0.00    +0.000 A 
ATOM     35  H   UNL     1      48.402   4.583   6.117  0.00  0.00    +0.000 HD
ENDBRANCH  22  25
ENDBRANCH  20  21
ENDBRANCH   4  20
TORSDOF 7
ENDMDL
MODEL 2
REMARK VINA RESULT:    -7.482      2.831      4.212
REMARK INTER + INTRA:         -11.566
REMARK INTER:                 -10.510
REMARK INTRA:                  -1.056
REMARK UNBOUND:                -1.022
REMARK  Name = 
REMARK  7 active torsions:
REMARK  status: ('A' for Active; 'I' for Inactive)
REMARK    1  A    between atoms: C_2  and  C_3
REMARK    2  A    between atoms: C_8  and  C_9
REMARK    3  A    between atoms: N_11  and  C_12
REMARK    4  A    between atoms: C_12  and  C_13
REMARK    5  A    between atoms: C_16  and  C_17
REMARK    6  A    between atoms: C_17  and  N_18
REMARK    7  A    between atoms: C_19  and  C_21
REMARK                            x       y       z     vdW  Elec       q    Type
REMARK                         _______ _______ _______ _____ _____    ______ ____
ROOT
ATOM      1  C   UNL     1      50.095   7.070  15.059  0.00  0.00    +0.000 C 
ATOM      2  C   UNL     1      50.132   8.431  14.354  0.00  0.00    +0.000 C 
ATOM      3  C   UNL     1      49.333   8.437  13.052  0.00  0.00    +0.000 C 
ATOM      4  C   UNL     1      47.872   8.020  13.280  0.00  0.00    +0.000 C 
ATOM      5  C   UNL     1      47.822   6.652  13.979  0.00  0.00    +0.000 C 
ATOM      6  C   UNL     1      48.640   6.618  15.269  0.00  0.00    +0.000 C 
ENDROOT
BRANCH   1   7
ATOM      7  C   UNL     1      50.839   7.119  16.408  0.00  0.00    +0.000 C 
BRANCH   7  10
ATOM      8  C   UNL     1      51.052   4.918  17.524  0.00  0.00    +0.000 C 
ATOM      9  O   UNL     1      49.952   5.018  18.059  0.00  0.00    +0.000 OA
ATOM     10  N   UNL     1      51.573   5.897  16.706  0.00  0.00    +0.000 N 
ATOM     11  H   UNL     1      52.497   5.818  16.303  0.00  0.00    +0.000 HD
BRANCH   8  17
ATOM     12  C   UNL     1      51.561   2.393  17.480  0.00  0.00    +0.000 A 
ATOM     13  C   UNL     1      52.432   1.343  17.840  0.00  0.00    +0.000 A 
ATOM     14  C   UNL     1      53.603   1.597  18.553  0.00  0.00    +0.000 A 
ATOM     15  C   UNL     1      53.918   2.902  18.915  0.00  0.00    +0.000 A 
ATOM     16  C   UNL     1      53.067   3.949  18.555  0.00  0.00    +0.000 A 
ATOM     17  C   UNL     1      51.887   3.712  17.824  0.00  0.00    +0.000 A 
BRANCH  12  19
ATOM     18  N   UNL     1      49.399   1.781  16.196  0.00  0.00    +0.000 NA
ATOM     19  C   UNL     1      50.360   2.033  16.796  0.00  0.00    +0.000 C 
ENDBRANCH  12  19
ENDBRANCH   8  17
ENDBRANCH   7  10
ENDBRANCH   1   7
BRANCH   4  20
ATOM     20  C   UNL     1      47.081   7.963  11.959  0.00  0.00    +0.000 C 
BRANCH  20  21
ATOM     21  N   UNL     1      46.493   6.665  11.696  0.00  0.00    +0.000 N 
ATOM     22  C   UNL     1      45.144   6.489  11.522  0.00  0.00    +0.000 C 
ATOM     23  O   UNL     1      44.355   7.428  11.566  0.00  0.00    +0.000 OA
ATOM     24  H   UNL     1      47.102   5.853  11.758  0.00  0.00    +0.000 HD
BRANCH  22  25
ATOM     25  C   UNL     1      44.683   5.124  11.229  0.00  0.00    +0.000 A 
ATOM     26  C   UNL     1      43.877   4.471  12.151  0.00  0.00    +0.000 A 
ATOM     27  S   UNL     1      43.421   2.899  11.675  0.00  0.00    +0.000 S 
ATOM     28  C   UNL     1      44.322   3.016  10.237  0.00  0.00    +0.000 A 
ATOM     29  N   UNL     1      44.388   1.969   9.371  0.00  0.00    +0.000 NA
ATOM     30  C   UNL     1      45.129   2.180   8.336  0.00  0.00    +0.000 A 
ATOM     31  N   UNL     1      45.803   3.345   8.084  0.00  0.00    +0.000 N 
ATOM     32  C   UNL     1      45.722   4.449   8.900  0.00  0.00    +0.000 A 
ATOM     33  O   UNL     1      46.259   5.509   8.597  0.00  0.00    +0.000 OA
ATOM     34  C   UNL     1      44.933   4.251  10.103  0.00  0.00    +0.000 A 
ATOM     35  H   UNL     1      46.346   3.453   7.239  0.00  0.00    +0.000 HD
ENDBRANCH  22  25
ENDBRANCH  20  21
ENDBRANCH   4  20
TORSDOF 7
ENDMDL
MODEL 3
REMARK VINA RESULT:    -7.306      3.149      5.048
REMARK INTER + INTRA:         -11.318
REMARK INTER:                 -10.275
REMARK INTRA:                  -1.043
REMARK UNBOUND:                -1.022
REMARK  Name = 
REMARK  7 active torsions:
REMARK  status: ('A' for Active; 'I' for Inactive)
REMARK    1  A    between atoms: C_2  and  C_3
REMARK    2  A    between atoms: C_8  and  C_9
REMARK    3  A    between atoms: N_11  and  C_12
REMARK    4  A    between atoms: C_12  and  C_13
REMARK    5  A    between atoms: C_16  and  C_17
REMARK    6  A    between atoms: C_17  and  N_18
REMARK    7  A    between atoms: C_19  and  C_21
REMARK                            x       y       z     vdW  Elec       q    Type
REMARK                         _______ _______ _______ _____ _____    ______ ____
ROOT
ATOM      1  C   UNL     1      49.297   7.432  16.528  0.00  0.00    +0.000 C 
ATOM      2  C   UNL     1      48.857   6.185  15.751  0.00  0.00    +0.000 C 
ATOM      3  C   UNL     1      48.197   6.529  14.417  0.00  0.00    +0.000 C 
ATOM      4  C   UNL     1      49.117   7.384  13.532  0.00  0.00    +0.000 C 
ATOM      5  C   UNL     1      49.557   8.642  14.297  0.00  0.00    +0.000 C 
ATOM      6  C   UNL     1      50.195   8.318  15.648  0.00  0.00    +0.000 C 
ENDROOT
BRANCH   1   7
ATOM      7  C   UNL     1      50.034   7.050  17.827  0.00  0.00    +0.000 C 
BRANCH   7  10
ATOM      8  C   UNL     1      50.517   4.667  18.299  0.00  0.00    +0.000 C 
ATOM      9  O   UNL     1      49.514   4.543  18.996  0.00  0.00    +0.000 OA
ATOM     10  N   UNL     1      50.858   5.857  17.692  0.00  0.00    +0.000 N 
ATOM     11  H   UNL     1      51.707   5.955  17.153  0.00  0.00    +0.000 HD
BRANCH   8  17
ATOM     12  C   UNL     1      51.168   2.334  17.422  0.00  0.00    +0.000 A 
ATOM     13  C   UNL     1      52.121   1.295  17.384  0.00  0.00    +0.000 A 
ATOM     14  C   UNL     1      53.321   1.399  18.086  0.00  0.00    +0.000 A 
ATOM     15  C   UNL     1      53.583   2.541  18.834  0.00  0.00    +0.000 A 
ATOM     16  C   UNL     1      52.650   3.579  18.870  0.00  0.00    +0.000 A 
ATOM     17  C   UNL     1      51.439   3.497  18.157  0.00  0.00    +0.000 A 
BRANCH  12  19
ATOM     18  N   UNL     1      48.967   1.992  16.104  0.00  0.00    +0.000 NA
ATOM     19  C   UNL     1      49.946   2.119  16.713  0.00  0.00    +0.000 C 
ENDBRANCH  12  19
ENDBRANCH   8  17
ENDBRANCH   7  10
ENDBRANCH   1   7
BRANCH   4  20
ATOM     20  C   UNL     1      48.428   7.787  12.214  0.00  0.00    +0.000 C 
BRANCH  20  21
ATOM     21  N   UNL     1      47.659   6.715  11.614  0.00  0.00    +0.000 N 
ATOM     22  C   UNL     1      46.292   6.759  11.510  0.00  0.00    +0.000 C 
ATOM     23  O   UNL     1      45.640   7.720  11.908  0.00  0.00    +0.000 OA
ATOM     24  H   UNL     1      48.155   5.862  11.372  0.00  0.00    +0.000 HD
BRANCH  22  25
ATOM     25  C   UNL     1      45.639   5.620  10.851  0.00  0.00    +0.000 A 
ATOM     26  C   UNL     1      45.664   5.535   9.465  0.00  0.00    +0.000 A 
ATOM     27  S   UNL     1      44.869   4.162   8.844  0.00  0.00    +0.000 S 
ATOM     28  C   UNL     1      44.422   3.650  10.403  0.00  0.00    +0.000 A 
ATOM     29  N   UNL     1      43.672   2.529  10.579  0.00  0.00    +0.000 NA
ATOM     30  C   UNL     1      43.379   2.271  11.809  0.00  0.00    +0.000 A 
ATOM     31  N   UNL     1      43.775   3.027  12.880  0.00  0.00    +0.000 N 
ATOM     32  C   UNL     1      44.579   4.136  12.757  0.00  0.00    +0.000 A 
ATOM     33  O   UNL     1      44.996   4.736  13.742  0.00  0.00    +0.000 OA
ATOM     34  C   UNL     1      44.905   4.496  11.388  0.00  0.00    +0.000 A 
ATOM     35  H   UNL     1      43.531   2.755  13.821  0.00  0.00    +0.000 HD
ENDBRANCH  22  25
ENDBRANCH  20  21
ENDBRANCH   4  20
TORSDOF 7
ENDMDL
MODEL 4
REMARK VINA RESULT:    -7.150      3.797      9.601
REMARK INTER + INTRA:         -11.098
REMARK INTER:                 -10.018
REMARK INTRA:                  -1.080
REMARK UNBOUND:                -1.022
REMARK  Name = 
REMARK  7 active torsions:
REMARK  status: ('A' for Active; 'I' for Inactive)
REMARK    1  A    between atoms: C_2  and  C_3
REMARK    2  A    between atoms: C_8  and  C_9
REMARK    3  A    between atoms: N_11  and  C_12
REMARK    4  A    between atoms: C_12  and  C_13
REMARK    5  A    between atoms: C_16  and  C_17
REMARK    6  A    between atoms: C_17  and  N_18
REMARK    7  A    between atoms: C_19  and  C_21
REMARK                            x       y       z     vdW  Elec       q    Type
REMARK                         _______ _______ _______ _____ _____    ______ ____
ROOT
ATOM      1  C   UNL     1      47.090   7.693  13.416  0.00  0.00    +0.000 C 
ATOM      2  C   UNL     1      47.902   8.884  13.941  0.00  0.00    +0.000 C 
ATOM      3  C   UNL     1      48.287   8.727  15.411  0.00  0.00    +0.000 C 
ATOM      4  C   UNL     1      49.069   7.428  15.658  0.00  0.00    +0.000 C 
ATOM      5  C   UNL     1      48.262   6.226  15.144  0.00  0.00    +0.000 C 
ATOM      6  C   UNL     1      47.843   6.378  13.682  0.00  0.00    +0.000 C 
ENDROOT
BRANCH   1   7
ATOM      7  C   UNL     1      46.791   7.841  11.911  0.00  0.00    +0.000 C 
BRANCH   7  10
ATOM      8  C   UNL     1      45.262   6.163  10.921  0.00  0.00    +0.000 C 
ATOM      9  O   UNL     1      44.267   6.834  11.177  0.00  0.00    +0.000 OA
ATOM     10  N   UNL     1      46.538   6.569  11.247  0.00  0.00    +0.000 N 
ATOM     11  H   UNL     1      47.344   5.989  11.065  0.00  0.00    +0.000 HD
BRANCH   8  17
ATOM     12  C   UNL     1      44.520   3.696  10.910  0.00  0.00    +0.000 A 
ATOM     13  C   UNL     1      44.418   2.482  10.199  0.00  0.00    +0.000 A 
ATOM     14  C   UNL     1      44.883   2.379   8.889  0.00  0.00    +0.000 A 
ATOM     15  C   UNL     1      45.456   3.487   8.273  0.00  0.00    +0.000 A 
ATOM     16  C   UNL     1      45.552   4.695   8.966  0.00  0.00    +0.000 A 
ATOM     17  C   UNL     1      45.076   4.821  10.285  0.00  0.00    +0.000 A 
BRANCH  12  19
ATOM     18  N   UNL     1      43.648   3.730  13.347  0.00  0.00    +0.000 NA
ATOM     19  C   UNL     1      44.063   3.694  12.264  0.00  0.00    +0.000 C 
ENDBRANCH  12  19
ENDBRANCH   8  17
ENDBRANCH   7  10
ENDBRANCH   1   7
BRANCH   4  20
ATOM     20  C   UNL     1      49.401   7.236  17.151  0.00  0.00    +0.000 C 
BRANCH  20  21
ATOM     21  N   UNL     1      50.368   6.185  17.395  0.00  0.00    +0.000 N 
ATOM     22  C   UNL     1      50.735   5.801  18.660  0.00  0.00    +0.000 C 
ATOM     23  O   UNL     1      50.252   6.320  19.663  0.00  0.00    +0.000 OA
ATOM     24  H   UNL     1      50.865   5.809  16.592  0.00  0.00    +0.000 HD
BRANCH  22  25
ATOM     25  C   UNL     1      51.702   4.700  18.767  0.00  0.00    +0.000 A 
ATOM     26  C   UNL     1      52.875   4.898  19.482  0.00  0.00    +0.000 A 
ATOM     27  S   UNL     1      53.897   3.535  19.520  0.00  0.00    +0.000 S 
ATOM     28  C   UNL     1      52.829   2.641  18.544  0.00  0.00    +0.000 A 
ATOM     29  N   UNL     1      53.134   1.371  18.161  0.00  0.00    +0.000 NA
ATOM     30  C   UNL     1      52.252   0.819  17.398  0.00  0.00    +0.000 A 
ATOM     31  N   UNL     1      51.090   1.417  16.990  0.00  0.00    +0.000 N 
ATOM     32  C   UNL     1      50.712   2.676  17.395  0.00  0.00    +0.000 A 
ATOM     33  O   UNL     1      49.621   3.145  17.090  0.00  0.00    +0.000 OA
ATOM     34  C   UNL     1      51.690   3.360  18.223  0.00  0.00    +0.000 A 
ATOM     35  H   UNL     1      50.429   0.918  16.411  0.00  0.00    +0.000 HD
ENDBRANCH  22  25
ENDBRANCH  20  21
ENDBRANCH   4  20
TORSDOF 7
ENDMDL
MODEL 5
REMARK VINA RESULT:    -7.016      3.512      9.548
REMARK INTER + INTRA:         -10.909
REMARK INTER:                 -10.504
REMARK INTRA:                  -0.405
REMARK UNBOUND:                -1.022
REMARK  Name = 
REMARK  7 active torsions:
REMARK  status: ('A' for Active; 'I' for Inactive)
REMARK    1  A    between atoms: C_2  and  C_3
REMARK    2  A    between atoms: C_8  and  C_9
REMARK    3  A    between atoms: N_11  and  C_12
REMARK    4  A    between atoms: C_12  and  C_13
REMARK    5  A    between atoms: C_16  and  C_17
REMARK    6  A    between atoms: C_17  and  N_18
REMARK    7  A    between atoms: C_19  and  C_21
REMARK                            x       y       z     vdW  Elec       q    Type
REMARK                         _______ _______ _______ _____ _____    ______ ____
ROOT
ATOM      1  C   UNL     1      45.869   7.818  12.510  0.00  0.00    +0.000 C 
ATOM      2  C   UNL     1      46.490   9.200  12.268  0.00  0.00    +0.000 C 
ATOM      3  C   UNL     1      47.555   9.553  13.305  0.00  0.00    +0.000 C 
ATOM      4  C   UNL     1      48.668   8.495  13.357  0.00  0.00    +0.000 C 
ATOM      5  C   UNL     1      48.060   7.107  13.609  0.00  0.00    +0.000 C 
ATOM      6  C   UNL     1      46.971   6.748  12.598  0.00  0.00    +0.000 C 
ENDROOT
BRANCH   1   7
ATOM      7  C   UNL     1      44.861   7.456  11.402  0.00  0.00    +0.000 C 
BRANCH   7  10
ATOM      8  C   UNL     1      44.369   5.330  10.232  0.00  0.00    +0.000 C 
ATOM      9  O   UNL     1      43.185   5.362  10.550  0.00  0.00    +0.000 OA
ATOM     10  N   UNL     1      45.268   6.306  10.608  0.00  0.00    +0.000 N 
ATOM     11  H   UNL     1      46.248   6.246  10.371  0.00  0.00    +0.000 HD
BRANCH   8  17
ATOM     12  C   UNL     1      44.601   2.808   9.757  0.00  0.00    +0.000 A 
ATOM     13  C   UNL     1      45.153   1.789   8.953  0.00  0.00    +0.000 A 
ATOM     14  C   UNL     1      45.983   2.098   7.876  0.00  0.00    +0.000 A 
ATOM     15  C   UNL     1      46.272   3.429   7.590  0.00  0.00    +0.000 A 
ATOM     16  C   UNL     1      45.722   4.444   8.375  0.00  0.00    +0.000 A 
ATOM     17  C   UNL     1      44.871   4.151   9.458  0.00  0.00    +0.000 A 
BRANCH  12  19
ATOM     18  N   UNL     1      43.107   2.082  11.742  0.00  0.00    +0.000 NA
ATOM     19  C   UNL     1      43.803   2.395  10.869  0.00  0.00    +0.000 C 
ENDBRANCH  12  19
ENDBRANCH   8  17
ENDBRANCH   7  10
ENDBRANCH   1   7
BRANCH   4  20
ATOM     20  C   UNL     1      49.710   8.815  14.448  0.00  0.00    +0.000 C 
BRANCH  20  21
ATOM     21  N   UNL     1      49.596   7.969  15.618  0.00  0.00    +0.000 N 
ATOM     22  C   UNL     1      48.877   8.339  16.727  0.00  0.00    +0.000 C 
ATOM     23  O   UNL     1      48.274   9.407  16.784  0.00  0.00    +0.000 OA
ATOM     24  H   UNL     1      50.168   7.130  15.648  0.00  0.00    +0.000 HD
BRANCH  22  25
ATOM     25  C   UNL     1      48.817   7.373  17.833  0.00  0.00    +0.000 A 
ATOM     26  C   UNL     1      48.955   7.830  19.137  0.00  0.00    +0.000 A 
ATOM     27  S   UNL     1      48.863   6.598  20.311  0.00  0.00    +0.000 S 
ATOM     28  C   UNL     1      48.679   5.401  19.118  0.00  0.00    +0.000 A 
ATOM     29  N   UNL     1      48.583   4.088  19.460  0.00  0.00    +0.000 NA
ATOM     30  C   UNL     1      48.478   3.283  18.456  0.00  0.00    +0.000 A 
ATOM     31  N   UNL     1      48.452   3.671  17.144  0.00  0.00    +0.000 N 
ATOM     32  C   UNL     1      48.491   4.989  16.752  0.00  0.00    +0.000 A 
ATOM     33  O   UNL     1      48.369   5.310  15.575  0.00  0.00    +0.000 OA
ATOM     34  C   UNL     1      48.652   5.937  17.841  0.00  0.00    +0.000 A 
ATOM     35  H   UNL     1      48.343   2.990  16.407  0.00  0.00    +0.000 HD
ENDBRANCH  22  25
ENDBRANCH  20  21
ENDBRANCH   4  20
TORSDOF 7
ENDMDL
MODEL 6
REMARK VINA RESULT:    -6.523      5.322      8.701
REMARK INTER + INTRA:         -10.214
REMARK INTER:                  -9.010
REMARK INTRA:                  -1.204
REMARK UNBOUND:                -1.022
REMARK  Name = 
REMARK  7 active torsions:
REMARK  status: ('A' for Active; 'I' for Inactive)
REMARK    1  A    between atoms: C_2  and  C_3
REMARK    2  A    between atoms: C_8  and  C_9
REMARK    3  A    between atoms: N_11  and  C_12
REMARK    4  A    between atoms: C_12  and  C_13
REMARK    5  A    between atoms: C_16  and  C_17
REMARK    6  A    between atoms: C_17  and  N_18
REMARK    7  A    between atoms: C_19  and  C_21
REMARK                            x       y       z     vdW  Elec       q    Type
REMARK                         _______ _______ _______ _____ _____    ______ ____
ROOT
ATOM      1  C   UNL     1      47.319   7.255  13.139  0.00  0.00    +0.000 C 
ATOM      2  C   UNL     1      47.881   7.420  11.721  0.00  0.00    +0.000 C 
ATOM      3  C   UNL     1      49.065   8.385  11.669  0.00  0.00    +0.000 C 
ATOM      4  C   UNL     1      50.192   7.953  12.618  0.00  0.00    +0.000 C 
ATOM      5  C   UNL     1      49.644   7.794  14.044  0.00  0.00    +0.000 C 
ATOM      6  C   UNL     1      48.440   6.853  14.112  0.00  0.00    +0.000 C 
ENDROOT
BRANCH   1   7
ATOM      7  C   UNL     1      46.184   6.214  13.173  0.00  0.00    +0.000 C 
BRANCH   7  10
ATOM      8  C   UNL     1      45.150   5.464  11.051  0.00  0.00    +0.000 C 
ATOM      9  O   UNL     1      44.227   6.266  11.151  0.00  0.00    +0.000 OA
ATOM     10  N   UNL     1      46.151   5.360  11.994  0.00  0.00    +0.000 N 
ATOM     11  H   UNL     1      46.884   4.669  11.918  0.00  0.00    +0.000 HD
BRANCH   8  17
ATOM     12  C   UNL     1      44.483   3.289   9.843  0.00  0.00    +0.000 A 
ATOM     13  C   UNL     1      44.586   2.483   8.690  0.00  0.00    +0.000 A 
ATOM     14  C   UNL     1      45.364   2.882   7.604  0.00  0.00    +0.000 A 
ATOM     15  C   UNL     1      46.050   4.091   7.658  0.00  0.00    +0.000 A 
ATOM     16  C   UNL     1      45.947   4.900   8.791  0.00  0.00    +0.000 A 
ATOM     17  C   UNL     1      45.155   4.518   9.891  0.00  0.00    +0.000 A 
BRANCH  12  19
ATOM     18  N   UNL     1      43.023   2.360  11.768  0.00  0.00    +0.000 NA
ATOM     19  C   UNL     1      43.705   2.775  10.925  0.00  0.00    +0.000 C 
ENDBRANCH  12  19
ENDBRANCH   8  17
ENDBRANCH   7  10
ENDBRANCH   1   7
BRANCH   4  20
ATOM     20  C   UNL     1      51.359   8.960  12.615  0.00  0.00    +0.000 C 
BRANCH  20  21
ATOM     21  N   UNL     1      52.158   8.913  11.408  0.00  0.00    +0.000 N 
ATOM     22  C   UNL     1      52.118   9.903  10.459  0.00  0.00    +0.000 C 
ATOM     23  O   UNL     1      51.410  10.898  10.587  0.00  0.00    +0.000 OA
ATOM     24  H   UNL     1      52.673   8.057  11.219  0.00  0.00    +0.000 HD
BRANCH  22  25
ATOM     25  C   UNL     1      53.004   9.746   9.297  0.00  0.00    +0.000 A 
ATOM     26  C   UNL     1      53.755  10.833   8.868  0.00  0.00    +0.000 A 
ATOM     27  S   UNL     1      54.734  10.502   7.513  0.00  0.00    +0.000 S 
ATOM     28  C   UNL     1      54.158   8.904   7.421  0.00  0.00    +0.000 A 
ATOM     29  N   UNL     1      54.580   8.068   6.434  0.00  0.00    +0.000 NA
ATOM     30  C   UNL     1      54.042   6.896   6.463  0.00  0.00    +0.000 A 
ATOM     31  N   UNL     1      53.129   6.479   7.394  0.00  0.00    +0.000 N 
ATOM     32  C   UNL     1      52.715   7.267   8.442  0.00  0.00    +0.000 A 
ATOM     33  O   UNL     1      51.970   6.833   9.314  0.00  0.00    +0.000 OA
ATOM     34  C   UNL     1      53.258   8.615   8.433  0.00  0.00    +0.000 A 
ATOM     35  H   UNL     1      52.766   5.537   7.374  0.00  0.00    +0.000 HD
ENDBRANCH  22  25
ENDBRANCH  20  21
ENDBRANCH   4  20
TORSDOF 7
ENDMDL
MODEL 7
REMARK VINA RESULT:    -6.412      5.392      8.295
REMARK INTER + INTRA:         -10.058
REMARK INTER:                  -9.097
REMARK INTRA:                  -0.961
REMARK UNBOUND:                -1.022
REMARK  Name = 
REMARK  7 active torsions:
REMARK  status: ('A' for Active; 'I' for Inactive)
REMARK    1  A    between atoms: C_2  and  C_3
REMARK    2  A    between atoms: C_8  and  C_9
REMARK    3  A    between atoms: N_11  and  C_12
REMARK    4  A    between atoms: C_12  and  C_13
REMARK    5  A    between atoms: C_16  and  C_17
REMARK    6  A    between atoms: C_17  and  N_18
REMARK    7  A    between atoms: C_19  and  C_21
REMARK                            x       y       z     vdW  Elec       q    Type
REMARK                         _______ _______ _______ _____ _____    ______ ____
ROOT
ATOM      1  C   UNL     1      48.256   8.754  11.648  0.00  0.00    +0.000 C 
ATOM      2  C   UNL     1      49.233   7.668  12.117  0.00  0.00    +0.000 C 
ATOM      3  C   UNL     1      50.639   7.862  11.551  0.00  0.00    +0.000 C 
ATOM      4  C   UNL     1      51.207   9.245  11.902  0.00  0.00    +0.000 C 
ATOM      5  C   UNL     1      50.242  10.343  11.428  0.00  0.00    +0.000 C 
ATOM      6  C   UNL     1      48.822  10.150  11.962  0.00  0.00    +0.000 C 
ENDROOT
BRANCH   1   7
ATOM      7  C   UNL     1      46.872   8.580  12.302  0.00  0.00    +0.000 C 
BRANCH   7  10
ATOM      8  C   UNL     1      45.132   6.932  11.677  0.00  0.00    +0.000 C 
ATOM      9  O   UNL     1      44.385   7.801  11.238  0.00  0.00    +0.000 OA
ATOM     10  N   UNL     1      46.365   7.217  12.223  0.00  0.00    +0.000 N 
ATOM     11  H   UNL     1      46.953   6.496  12.615  0.00  0.00    +0.000 HD
BRANCH   8  17
ATOM     12  C   UNL     1      44.849   4.593  10.636  0.00  0.00    +0.000 A 
ATOM     13  C   UNL     1      44.332   3.286  10.757  0.00  0.00    +0.000 A 
ATOM     14  C   UNL     1      43.615   2.901  11.888  0.00  0.00    +0.000 A 
ATOM     15  C   UNL     1      43.403   3.818  12.913  0.00  0.00    +0.000 A 
ATOM     16  C   UNL     1      43.919   5.112  12.806  0.00  0.00    +0.000 A 
ATOM     17  C   UNL     1      44.657   5.513  11.676  0.00  0.00    +0.000 A 
BRANCH  12  19
ATOM     18  N   UNL     1      46.100   5.114   8.431  0.00  0.00    +0.000 NA
ATOM     19  C   UNL     1      45.527   4.912   9.419  0.00  0.00    +0.000 C 
ENDBRANCH  12  19
ENDBRANCH   8  17
ENDBRANCH   7  10
ENDBRANCH   1   7
BRANCH   4  20
ATOM     20  C   UNL     1      52.598   9.467  11.276  0.00  0.00    +0.000 C 
BRANCH  20  21
ATOM     21  N   UNL     1      52.730   8.903   9.948  0.00  0.00    +0.000 N 
ATOM     22  C   UNL     1      53.932   8.471   9.448  0.00  0.00    +0.000 C 
ATOM     23  O   UNL     1      54.967   8.525  10.105  0.00  0.00    +0.000 OA
ATOM     24  H   UNL     1      51.917   8.943   9.340  0.00  0.00    +0.000 HD
BRANCH  22  25
ATOM     25  C   UNL     1      53.919   7.890   8.097  0.00  0.00    +0.000 A 
ATOM     26  C   UNL     1      53.865   8.737   6.998  0.00  0.00    +0.000 A 
ATOM     27  S   UNL     1      53.858   7.923   5.502  0.00  0.00    +0.000 S 
ATOM     28  C   UNL     1      53.884   6.404   6.267  0.00  0.00    +0.000 A 
ATOM     29  N   UNL     1      53.851   5.257   5.537  0.00  0.00    +0.000 NA
ATOM     30  C   UNL     1      53.845   4.177   6.243  0.00  0.00    +0.000 A 
ATOM     31  N   UNL     1      53.876   4.139   7.612  0.00  0.00    +0.000 N 
ATOM     32  C   UNL     1      53.965   5.269   8.391  0.00  0.00    +0.000 A 
ATOM     33  O   UNL     1      54.088   5.199   9.608  0.00  0.00    +0.000 OA
ATOM     34  C   UNL     1      53.933   6.517   7.647  0.00  0.00    +0.000 A 
ATOM     35  H   UNL     1      53.893   3.256   8.103  0.00  0.00    +0.000 HD
ENDBRANCH  22  25
ENDBRANCH  20  21
ENDBRANCH   4  20
TORSDOF 7
ENDMDL
MODEL 8
REMARK VINA RESULT:    -6.061      5.028      7.768
REMARK INTER + INTRA:          -9.563
REMARK INTER:                  -8.865
REMARK INTRA:                  -0.698
REMARK UNBOUND:                -1.022
REMARK  Name = 
REMARK  7 active torsions:
REMARK  status: ('A' for Active; 'I' for Inactive)
REMARK    1  A    between atoms: C_2  and  C_3
REMARK    2  A    between atoms: C_8  and  C_9
REMARK    3  A    between atoms: N_11  and  C_12
REMARK    4  A    between atoms: C_12  and  C_13
REMARK    5  A    between atoms: C_16  and  C_17
REMARK    6  A    between atoms: C_17  and  N_18
REMARK    7  A    between atoms: C_19  and  C_21
REMARK                            x       y       z     vdW  Elec       q    Type
REMARK                         _______ _______ _______ _____ _____    ______ ____
ROOT
ATOM      1  C   UNL     1      48.036   8.729  12.648  0.00  0.00    +0.000 C 
ATOM      2  C   UNL     1      48.572   7.537  11.843  0.00  0.00    +0.000 C 
ATOM      3  C   UNL     1      49.951   7.808  11.244  0.00  0.00    +0.000 C 
ATOM      4  C   UNL     1      50.973   8.196  12.324  0.00  0.00    +0.000 C 
ATOM      5  C   UNL     1      50.452   9.396  13.131  0.00  0.00    +0.000 C 
ATOM      6  C   UNL     1      49.060   9.154  13.715  0.00  0.00    +0.000 C 
ENDROOT
BRANCH   1   7
ATOM      7  C   UNL     1      46.685   8.395  13.308  0.00  0.00    +0.000 C 
BRANCH   7  10
ATOM      8  C   UNL     1      45.169   6.809  12.158  0.00  0.00    +0.000 C 
ATOM      9  O   UNL     1      44.557   7.713  11.597  0.00  0.00    +0.000 OA
ATOM     10  N   UNL     1      46.221   7.045  13.018  0.00  0.00    +0.000 N 
ATOM     11  H   UNL     1      46.691   6.294  13.503  0.00  0.00    +0.000 HD
BRANCH   8  17
ATOM     12  C   UNL     1      44.940   4.637  10.792  0.00  0.00    +0.000 A 
ATOM     13  C   UNL     1      44.440   3.320  10.717  0.00  0.00    +0.000 A 
ATOM     14  C   UNL     1      43.708   2.771  11.769  0.00  0.00    +0.000 A 
ATOM     15  C   UNL     1      43.465   3.532  12.908  0.00  0.00    +0.000 A 
ATOM     16  C   UNL     1      43.963   4.833  12.995  0.00  0.00    +0.000 A 
ATOM     17  C   UNL     1      44.716   5.399  11.948  0.00  0.00    +0.000 A 
BRANCH  12  19
ATOM     18  N   UNL     1      46.207   5.478   8.698  0.00  0.00    +0.000 NA
ATOM     19  C   UNL     1      45.635   5.132   9.647  0.00  0.00    +0.000 C 
ENDBRANCH  12  19
ENDBRANCH   8  17
ENDBRANCH   7  10
ENDBRANCH   1   7
BRANCH   4  20
ATOM     20  C   UNL     1      52.348   8.534  11.714  0.00  0.00    +0.000 C 
BRANCH  20  21
ATOM     21  N   UNL     1      53.048   7.376  11.195  0.00  0.00    +0.000 N 
ATOM     22  C   UNL     1      53.285   7.200   9.855  0.00  0.00    +0.000 C 
ATOM     23  O   UNL     1      52.928   8.023   9.018  0.00  0.00    +0.000 OA
ATOM     24  H   UNL     1      53.261   6.626  11.846  0.00  0.00    +0.000 HD
BRANCH  22  25
ATOM     25  C   UNL     1      54.033   5.996   9.465  0.00  0.00    +0.000 A 
ATOM     26  C   UNL     1      54.989   5.485  10.333  0.00  0.00    +0.000 A 
ATOM     27  S   UNL     1      55.774   4.090   9.748  0.00  0.00    +0.000 S 
ATOM     28  C   UNL     1      54.895   4.141   8.293  0.00  0.00    +0.000 A 
ATOM     29  N   UNL     1      55.120   3.225   7.313  0.00  0.00    +0.000 NA
ATOM     30  C   UNL     1      54.408   3.397   6.250  0.00  0.00    +0.000 A 
ATOM     31  N   UNL     1      53.486   4.396   6.082  0.00  0.00    +0.000 N 
ATOM     32  C   UNL     1      53.185   5.310   7.064  0.00  0.00    +0.000 A 
ATOM     33  O   UNL     1      52.287   6.132   6.918  0.00  0.00    +0.000 OA
ATOM     34  C   UNL     1      53.989   5.188   8.268  0.00  0.00    +0.000 A 
ATOM     35  H   UNL     1      52.944   4.458   5.232  0.00  0.00    +0.000 HD
ENDBRANCH  22  25
ENDBRANCH  20  21
ENDBRANCH   4  20
TORSDOF 7
ENDMDL
MODEL 9
REMARK VINA RESULT:    -5.662      5.465      7.818
REMARK INTER + INTRA:          -9.001
REMARK INTER:                  -8.230
REMARK INTRA:                  -0.771
REMARK UNBOUND:                -1.022
REMARK  Name = 
REMARK  7 active torsions:
REMARK  status: ('A' for Active; 'I' for Inactive)
REMARK    1  A    between atoms: C_2  and  C_3
REMARK    2  A    between atoms: C_8  and  C_9
REMARK    3  A    between atoms: N_11  and  C_12
REMARK    4  A    between atoms: C_12  and  C_13
REMARK    5  A    between atoms: C_16  and  C_17
REMARK    6  A    between atoms: C_17  and  N_18
REMARK    7  A    between atoms: C_19  and  C_21
REMARK                            x       y       z     vdW  Elec       q    Type
REMARK                         _______ _______ _______ _____ _____    ______ ____
ROOT
ATOM      1  C   UNL     1      50.147   9.359  13.739  0.00  0.00    +0.000 C 
ATOM      2  C   UNL     1      49.329   9.663  12.477  0.00  0.00    +0.000 C 
ATOM      3  C   UNL     1      50.149  10.380  11.407  0.00  0.00    +0.000 C 
ATOM      4  C   UNL     1      51.403   9.582  11.022  0.00  0.00    +0.000 C 
ATOM      5  C   UNL     1      52.237   9.280  12.277  0.00  0.00    +0.000 C 
ATOM      6  C   UNL     1      51.425   8.587  13.372  0.00  0.00    +0.000 C 
ENDROOT
BRANCH   1   7
ATOM      7  C   UNL     1      49.318   8.562  14.765  0.00  0.00    +0.000 C 
BRANCH   7  10
ATOM      8  C   UNL     1      48.040   6.878  13.473  0.00  0.00    +0.000 C 
ATOM      9  O   UNL     1      49.048   6.226  13.218  0.00  0.00    +0.000 OA
ATOM     10  N   UNL     1      48.074   8.039  14.217  0.00  0.00    +0.000 N 
ATOM     11  H   UNL     1      47.242   8.586  14.387  0.00  0.00    +0.000 HD
BRANCH   8  17
ATOM     12  C   UNL     1      46.165   5.159  13.069  0.00  0.00    +0.000 A 
ATOM     13  C   UNL     1      44.930   4.859  12.458  0.00  0.00    +0.000 A 
ATOM     14  C   UNL     1      44.274   5.803  11.670  0.00  0.00    +0.000 A 
ATOM     15  C   UNL     1      44.845   7.058  11.481  0.00  0.00    +0.000 A 
ATOM     16  C   UNL     1      46.063   7.367  12.090  0.00  0.00    +0.000 A 
ATOM     17  C   UNL     1      46.733   6.429  12.900  0.00  0.00    +0.000 A 
BRANCH  12  19
ATOM     18  N   UNL     1      47.322   3.246  14.374  0.00  0.00    +0.000 NA
ATOM     19  C   UNL     1      46.788   4.113  13.818  0.00  0.00    +0.000 C 
ENDBRANCH  12  19
ENDBRANCH   8  17
ENDBRANCH   7  10
ENDBRANCH   1   7
BRANCH   4  20
ATOM     20  C   UNL     1      52.266  10.335   9.990  0.00  0.00    +0.000 C 
BRANCH  20  21
ATOM     21  N   UNL     1      52.603   9.537   8.829  0.00  0.00    +0.000 N 
ATOM     22  C   UNL     1      53.776   8.831   8.736  0.00  0.00    +0.000 C 
ATOM     23  O   UNL     1      54.605   8.826   9.641  0.00  0.00    +0.000 OA
ATOM     24  H   UNL     1      51.992   9.604   8.020  0.00  0.00    +0.000 HD
BRANCH  22  25
ATOM     25  C   UNL     1      53.979   8.037   7.516  0.00  0.00    +0.000 A 
ATOM     26  C   UNL     1      54.251   8.690   6.321  0.00  0.00    +0.000 A 
ATOM     27  S   UNL     1      54.463   7.640   4.996  0.00  0.00    +0.000 S 
ATOM     28  C   UNL     1      54.155   6.274   5.960  0.00  0.00    +0.000 A 
ATOM     29  N   UNL     1      54.145   5.027   5.416  0.00  0.00    +0.000 NA
ATOM     30  C   UNL     1      53.869   4.084   6.252  0.00  0.00    +0.000 A 
ATOM     31  N   UNL     1      53.610   4.272   7.584  0.00  0.00    +0.000 N 
ATOM     32  C   UNL     1      53.663   5.506   8.190  0.00  0.00    +0.000 A 
ATOM     33  O   UNL     1      53.521   5.630   9.401  0.00  0.00    +0.000 OA
ATOM     34  C   UNL     1      53.929   6.610   7.284  0.00  0.00    +0.000 A 
ATOM     35  H   UNL     1      53.424   3.485   8.189  0.00  0.00    +0.000 HD
ENDBRANCH  22  25
ENDBRANCH  20  21
ENDBRANCH   4  20
TORSDOF 7
ENDMDL
