MODEL 1
REMARK VINA RESULT:    -7.746      0.000      0.000
REMARK INTER + INTRA:         -10.767
REMARK INTER:                 -10.010
REMARK INTRA:                  -0.757
REMARK UNBOUND:                -0.757
REMARK  Name = 
REMARK  6 active torsions:
REMARK  status: ('A' for Active; 'I' for Inactive)
REMARK    1  A    between atoms: C_1  and  C_2
REMARK    2  A    between atoms: C_2  and  C_3
REMARK    3  A    between atoms: C_2  and  C_14
REMARK    4  A    between atoms: C_3  and  N_4
REMARK    5  A    between atoms: N_4  and  C_5
REMARK    6  A    between atoms: C_9  and  C_10
REMARK                            x       y       z     vdW  Elec       q    Type
REMARK                         _______ _______ _______ _____ _____    ______ ____
ROOT
ATOM      1  N   UNL     1      43.770   2.745  10.567  0.00  0.00    +0.000 N 
ATOM      2  H   UNL     1      43.234   1.903  10.379  0.00  0.00    +0.000 HD
ENDROOT
BRANCH   1   3
ATOM      3  C   UNL     1      44.717   3.015   9.576  0.00  0.00    +0.000 A 
ATOM      4  C   UNL     1      44.940   4.287   9.035  0.00  0.00    +0.000 A 
ATOM      5  C   UNL     1      45.856   4.482   7.999  0.00  0.00    +0.000 A 
ATOM      6  C   UNL     1      46.542   3.396   7.460  0.00  0.00    +0.000 A 
ATOM      7  C   UNL     1      46.316   2.105   7.954  0.00  0.00    +0.000 A 
ATOM      8  C   UNL     1      45.398   1.928   8.999  0.00  0.00    +0.000 A 
BRANCH   7   9
ATOM      9  C   UNL     1      47.070   0.983   7.322  0.00  0.00    +0.000 C 
ATOM     10  N   UNL     1      46.752  -0.301   7.671  0.00  0.00    +0.000 N 
ATOM     11  O   UNL     1      47.965   1.188   6.508  0.00  0.00    +0.000 OA
ATOM     12  H   UNL     1      46.039  -0.568   8.326  0.00  0.00    +0.000 HD
ATOM     13  H   UNL     1      47.287  -1.034   7.227  0.00  0.00    +0.000 HD
ENDBRANCH   7   9
ENDBRANCH   1   3
BRANCH   1  14
ATOM     14  C   UNL     1      44.091   2.925  11.974  0.00  0.00    +0.000 C 
BRANCH  14  16
ATOM     15  C   UNL     1      42.723   5.119  11.956  0.00  0.00    +0.000 C 
ATOM     16  C   UNL     1      43.978   4.382  12.318  0.00  0.00    +0.000 C 
BRANCH  16  17
ATOM     17  C   UNL     1      45.208   5.154  12.586  0.00  0.00    +0.000 A 
ATOM     18  C   UNL     1      46.099   4.761  13.595  0.00  0.00    +0.000 A 
ATOM     19  C   UNL     1      47.255   5.503  13.857  0.00  0.00    +0.000 A 
ATOM     20  C   UNL     1      47.540   6.644  13.111  0.00  0.00    +0.000 A 
ATOM     21  C   UNL     1      46.670   7.043  12.101  0.00  0.00    +0.000 A 
ATOM     22  C   UNL     1      45.511   6.305  11.845  0.00  0.00    +0.000 A 
ENDBRANCH  16  17
ENDBRANCH  14  16
ENDBRANCH   1  14
TORSDOF 5
ENDMDL
MODEL 2
REMARK VINA RESULT:    -7.725      2.720      6.050
REMARK INTER + INTRA:         -10.740
REMARK INTER:                 -10.019
REMARK INTRA:                  -0.722
REMARK UNBOUND:                -0.757
REMARK  Name = 
REMARK  6 active torsions:
REMARK  status: ('A' for Active; 'I' for Inactive)
REMARK    1  A    between atoms: C_1  and  C_2
REMARK    2  A    between atoms: C_2  and  C_3
REMARK    3  A    between atoms: C_2  and  C_14
REMARK    4  A    between atoms: C_3  and  N_4
REMARK    5  A    between atoms: N_4  and  C_5
REMARK    6  A    between atoms: C_9  and  C_10
REMARK                            x       y       z     vdW  Elec       q    Type
REMARK                         _______ _______ _______ _____ _____    ______ ____
ROOT
ATOM      1  N   UNL     1      44.078   4.892  10.960  0.00  0.00    +0.000 N 
ATOM      2  H   UNL     1      43.231   5.390  11.220  0.00  0.00    +0.000 HD
ENDROOT
BRANCH   1   3
ATOM      3  C   UNL     1      45.201   5.331  11.663  0.00  0.00    +0.000 A 
ATOM      4  C   UNL     1      46.043   6.362  11.227  0.00  0.00    +0.000 A 
ATOM      5  C   UNL     1      47.190   6.712  11.944  0.00  0.00    +0.000 A 
ATOM      6  C   UNL     1      47.533   6.010  13.096  0.00  0.00    +0.000 A 
ATOM      7  C   UNL     1      46.733   4.951  13.541  0.00  0.00    +0.000 A 
ATOM      8  C   UNL     1      45.581   4.617  12.813  0.00  0.00    +0.000 A 
BRANCH   7   9
ATOM      9  C   UNL     1      47.166   4.228  14.773  0.00  0.00    +0.000 C 
ATOM     10  N   UNL     1      47.154   4.898  15.965  0.00  0.00    +0.000 N 
ATOM     11  O   UNL     1      47.533   3.058  14.736  0.00  0.00    +0.000 OA
ATOM     12  H   UNL     1      46.873   5.853  16.095  0.00  0.00    +0.000 HD
ATOM     13  H   UNL     1      47.459   4.378  16.778  0.00  0.00    +0.000 HD
ENDBRANCH   7   9
ENDBRANCH   1   3
BRANCH   1  14
ATOM     14  C   UNL     1      44.157   4.589   9.539  0.00  0.00    +0.000 C 
BRANCH  14  16
ATOM     15  C   UNL     1      44.048   2.173  10.453  0.00  0.00    +0.000 C 
ATOM     16  C   UNL     1      44.452   3.127   9.368  0.00  0.00    +0.000 C 
BRANCH  16  17
ATOM     17  C   UNL     1      45.484   2.710   8.397  0.00  0.00    +0.000 A 
ATOM     18  C   UNL     1      45.994   3.616   7.457  0.00  0.00    +0.000 A 
ATOM     19  C   UNL     1      46.961   3.215   6.529  0.00  0.00    +0.000 A 
ATOM     20  C   UNL     1      47.433   1.905   6.531  0.00  0.00    +0.000 A 
ATOM     21  C   UNL     1      46.941   0.996   7.462  0.00  0.00    +0.000 A 
ATOM     22  C   UNL     1      45.971   1.396   8.385  0.00  0.00    +0.000 A 
ENDBRANCH  16  17
ENDBRANCH  14  16
ENDBRANCH   1  14
TORSDOF 5
ENDMDL
MODEL 3
REMARK VINA RESULT:    -7.101      1.712      2.555
REMARK INTER + INTRA:          -9.934
REMARK INTER:                  -9.262
REMARK INTRA:                  -0.672
REMARK UNBOUND:                -0.757
REMARK  Name = 
REMARK  6 active torsions:
REMARK  status: ('A' for Active; 'I' for Inactive)
REMARK    1  A    between atoms: C_1  and  C_2
REMARK    2  A    between atoms: C_2  and  C_3
REMARK    3  A    between atoms: C_2  and  C_14
REMARK    4  A    between atoms: C_3  and  N_4
REMARK    5  A    between atoms: N_4  and  C_5
REMARK    6  A    between atoms: C_9  and  C_10
REMARK                            x       y       z     vdW  Elec       q    Type
REMARK                         _______ _______ _______ _____ _____    ______ ____
ROOT
ATOM      1  N   UNL     1      44.957   5.446   9.675  0.00  0.00    +0.000 N 
ATOM      2  H   UNL     1      44.568   6.107   9.009  0.00  0.00    +0.000 HD
ENDROOT
BRANCH   1   3
ATOM      3  C   UNL     1      45.215   4.196   9.107  0.00  0.00    +0.000 A 
ATOM      4  C   UNL     1      44.770   2.985   9.649  0.00  0.00    +0.000 A 
ATOM      5  C   UNL     1      45.115   1.761   9.070  0.00  0.00    +0.000 A 
ATOM      6  C   UNL     1      45.944   1.729   7.952  0.00  0.00    +0.000 A 
ATOM      7  C   UNL     1      46.437   2.921   7.405  0.00  0.00    +0.000 A 
ATOM      8  C   UNL     1      46.074   4.140   7.995  0.00  0.00    +0.000 A 
BRANCH   7   9
ATOM      9  C   UNL     1      47.334   2.816   6.217  0.00  0.00    +0.000 C 
ATOM     10  N   UNL     1      48.652   2.508   6.415  0.00  0.00    +0.000 N 
ATOM     11  O   UNL     1      46.918   3.004   5.078  0.00  0.00    +0.000 OA
ATOM     12  H   UNL     1      49.084   2.338   7.304  0.00  0.00    +0.000 HD
ATOM     13  H   UNL     1      49.231   2.451   5.587  0.00  0.00    +0.000 HD
ENDBRANCH   7   9
ENDBRANCH   1   3
BRANCH   1  14
ATOM     14  C   UNL     1      44.381   5.557  11.005  0.00  0.00    +0.000 C 
BRANCH  14  16
ATOM     15  C   UNL     1      45.515   4.768  13.191  0.00  0.00    +0.000 C 
ATOM     16  C   UNL     1      45.491   5.690  12.008  0.00  0.00    +0.000 C 
BRANCH  16  17
ATOM     17  C   UNL     1      46.258   6.951  12.069  0.00  0.00    +0.000 A 
ATOM     18  C   UNL     1      47.627   6.975  11.770  0.00  0.00    +0.000 A 
ATOM     19  C   UNL     1      48.353   8.168  11.843  0.00  0.00    +0.000 A 
ATOM     20  C   UNL     1      47.721   9.353  12.210  0.00  0.00    +0.000 A 
ATOM     21  C   UNL     1      46.361   9.346  12.502  0.00  0.00    +0.000 A 
ATOM     22  C   UNL     1      45.637   8.153  12.436  0.00  0.00    +0.000 A 
ENDBRANCH  16  17
ENDBRANCH  14  16
ENDBRANCH   1  14
TORSDOF 5
ENDMDL
MODEL 4
REMARK VINA RESULT:    -6.934      1.572      2.227
REMARK INTER + INTRA:          -9.718
REMARK INTER:                  -9.044
REMARK INTRA:                  -0.674
REMARK UNBOUND:                -0.757
REMARK  Name = 
REMARK  6 active torsions:
REMARK  status: ('A' for Active; 'I' for Inactive)
REMARK    1  A    between atoms: C_1  and  C_2
REMARK    2  A    between atoms: C_2  and  C_3
REMARK    3  A    between atoms: C_2  and  C_14
REMARK    4  A    between atoms: C_3  and  N_4
REMARK    5  A    between atoms: N_4  and  C_5
REMARK    6  A    between atoms: C_9  and  C_10
REMARK                            x       y       z     vdW  Elec       q    Type
REMARK                         _______ _______ _______ _____ _____    ______ ____
ROOT
ATOM      1  N   UNL     1      44.866   5.343   9.586  0.00  0.00    +0.000 N 
ATOM      2  H   UNL     1      44.794   6.032   8.844  0.00  0.00    +0.000 HD
ENDROOT
BRANCH   1   3
ATOM      3  C   UNL     1      45.125   4.057   9.107  0.00  0.00    +0.000 A 
ATOM      4  C   UNL     1      44.562   2.894   9.646  0.00  0.00    +0.000 A 
ATOM      5  C   UNL     1      44.911   1.630   9.164  0.00  0.00    +0.000 A 
ATOM      6  C   UNL     1      45.860   1.507   8.153  0.00  0.00    +0.000 A 
ATOM      7  C   UNL     1      46.470   2.648   7.616  0.00  0.00    +0.000 A 
ATOM      8  C   UNL     1      46.102   3.909   8.107  0.00  0.00    +0.000 A 
BRANCH   7   9
ATOM      9  C   UNL     1      47.491   2.446   6.547  0.00  0.00    +0.000 C 
ATOM     10  N   UNL     1      47.440   3.238   5.433  0.00  0.00    +0.000 N 
ATOM     11  O   UNL     1      48.364   1.589   6.645  0.00  0.00    +0.000 OA
ATOM     12  H   UNL     1      46.767   3.962   5.262  0.00  0.00    +0.000 HD
ATOM     13  H   UNL     1      48.145   3.069   4.727  0.00  0.00    +0.000 HD
ENDBRANCH   7   9
ENDBRANCH   1   3
BRANCH   1  14
ATOM     14  C   UNL     1      43.921   5.560  10.671  0.00  0.00    +0.000 C 
BRANCH  14  16
ATOM     15  C   UNL     1      44.389   8.003  11.376  0.00  0.00    +0.000 C 
ATOM     16  C   UNL     1      44.515   6.533  11.648  0.00  0.00    +0.000 C 
BRANCH  16  17
ATOM     17  C   UNL     1      45.555   6.066  12.587  0.00  0.00    +0.000 A 
ATOM     18  C   UNL     1      45.434   4.831  13.238  0.00  0.00    +0.000 A 
ATOM     19  C   UNL     1      46.414   4.398  14.138  0.00  0.00    +0.000 A 
ATOM     20  C   UNL     1      47.530   5.191  14.394  0.00  0.00    +0.000 A 
ATOM     21  C   UNL     1      47.668   6.416  13.749  0.00  0.00    +0.000 A 
ATOM     22  C   UNL     1      46.685   6.851  12.856  0.00  0.00    +0.000 A 
ENDBRANCH  16  17
ENDBRANCH  14  16
ENDBRANCH   1  14
TORSDOF 5
ENDMDL
MODEL 5
REMARK VINA RESULT:    -6.752      3.128      6.429
REMARK INTER + INTRA:          -9.483
REMARK INTER:                  -8.967
REMARK INTRA:                  -0.515
REMARK UNBOUND:                -0.757
REMARK  Name = 
REMARK  6 active torsions:
REMARK  status: ('A' for Active; 'I' for Inactive)
REMARK    1  A    between atoms: C_1  and  C_2
REMARK    2  A    between atoms: C_2  and  C_3
REMARK    3  A    between atoms: C_2  and  C_14
REMARK    4  A    between atoms: C_3  and  N_4
REMARK    5  A    between atoms: N_4  and  C_5
REMARK    6  A    between atoms: C_9  and  C_10
REMARK                            x       y       z     vdW  Elec       q    Type
REMARK                         _______ _______ _______ _____ _____    ______ ____
ROOT
ATOM      1  N   UNL     1      45.087   5.798  10.563  0.00  0.00    +0.000 N 
ATOM      2  H   UNL     1      44.579   6.677  10.522  0.00  0.00    +0.000 HD
ENDROOT
BRANCH   1   3
ATOM      3  C   UNL     1      45.868   5.678  11.715  0.00  0.00    +0.000 A 
ATOM      4  C   UNL     1      45.490   4.938  12.841  0.00  0.00    +0.000 A 
ATOM      5  C   UNL     1      46.285   4.910  13.989  0.00  0.00    +0.000 A 
ATOM      6  C   UNL     1      47.461   5.653  14.041  0.00  0.00    +0.000 A 
ATOM      7  C   UNL     1      47.851   6.433  12.945  0.00  0.00    +0.000 A 
ATOM      8  C   UNL     1      47.044   6.445  11.798  0.00  0.00    +0.000 A 
BRANCH   7   9
ATOM      9  C   UNL     1      49.113   7.220  13.071  0.00  0.00    +0.000 C 
ATOM     10  N   UNL     1      49.713   7.685  11.934  0.00  0.00    +0.000 N 
ATOM     11  O   UNL     1      49.619   7.451  14.165  0.00  0.00    +0.000 OA
ATOM     12  H   UNL     1      49.377   7.547  10.999  0.00  0.00    +0.000 HD
ATOM     13  H   UNL     1      50.569   8.210  12.058  0.00  0.00    +0.000 HD
ENDBRANCH   7   9
ENDBRANCH   1   3
BRANCH   1  14
ATOM     14  C   UNL     1      45.591   5.360   9.271  0.00  0.00    +0.000 C 
BRANCH  14  16
ATOM     15  C   UNL     1      44.018   3.402   9.888  0.00  0.00    +0.000 C 
ATOM     16  C   UNL     1      45.063   3.984   8.982  0.00  0.00    +0.000 C 
BRANCH  16  17
ATOM     17  C   UNL     1      45.854   3.076   8.126  0.00  0.00    +0.000 A 
ATOM     18  C   UNL     1      45.971   1.714   8.438  0.00  0.00    +0.000 A 
ATOM     19  C   UNL     1      46.732   0.860   7.634  0.00  0.00    +0.000 A 
ATOM     20  C   UNL     1      47.381   1.353   6.505  0.00  0.00    +0.000 A 
ATOM     21  C   UNL     1      47.267   2.701   6.178  0.00  0.00    +0.000 A 
ATOM     22  C   UNL     1      46.513   3.555   6.985  0.00  0.00    +0.000 A 
ENDBRANCH  16  17
ENDBRANCH  14  16
ENDBRANCH   1  14
TORSDOF 5
ENDMDL
MODEL 6
REMARK VINA RESULT:    -6.648      3.409      6.367
REMARK INTER + INTRA:          -9.348
REMARK INTER:                  -8.388
REMARK INTRA:                  -0.961
REMARK UNBOUND:                -0.757
REMARK  Name = 
REMARK  6 active torsions:
REMARK  status: ('A' for Active; 'I' for Inactive)
REMARK    1  A    between atoms: C_1  and  C_2
REMARK    2  A    between atoms: C_2  and  C_3
REMARK    3  A    between atoms: C_2  and  C_14
REMARK    4  A    between atoms: C_3  and  N_4
REMARK    5  A    between atoms: N_4  and  C_5
REMARK    6  A    between atoms: C_9  and  C_10
REMARK                            x       y       z     vdW  Elec       q    Type
REMARK                         _______ _______ _______ _____ _____    ______ ____
ROOT
ATOM      1  N   UNL     1      45.224   5.109  13.461  0.00  0.00    +0.000 N 
ATOM      2  H   UNL     1      44.421   5.468  13.969  0.00  0.00    +0.000 HD
ENDROOT
BRANCH   1   3
ATOM      3  C   UNL     1      46.025   6.123  12.931  0.00  0.00    +0.000 A 
ATOM      4  C   UNL     1      47.396   5.987  12.683  0.00  0.00    +0.000 A 
ATOM      5  C   UNL     1      48.157   7.060  12.213  0.00  0.00    +0.000 A 
ATOM      6  C   UNL     1      47.562   8.303  12.015  0.00  0.00    +0.000 A 
ATOM      7  C   UNL     1      46.200   8.484  12.287  0.00  0.00    +0.000 A 
ATOM      8  C   UNL     1      45.450   7.394  12.752  0.00  0.00    +0.000 A 
BRANCH   7   9
ATOM      9  C   UNL     1      45.628   9.845  12.071  0.00  0.00    +0.000 C 
ATOM     10  N   UNL     1      44.370  10.110  12.537  0.00  0.00    +0.000 N 
ATOM     11  O   UNL     1      46.256  10.720  11.483  0.00  0.00    +0.000 OA
ATOM     12  H   UNL     1      43.780   9.462  13.027  0.00  0.00    +0.000 HD
ATOM     13  H   UNL     1      44.013  11.041  12.367  0.00  0.00    +0.000 HD
ENDBRANCH   7   9
ENDBRANCH   1   3
BRANCH   1  14
ATOM     14  C   UNL     1      44.933   3.909  12.693  0.00  0.00    +0.000 C 
BRANCH  14  16
ATOM     15  C   UNL     1      42.854   4.741  11.402  0.00  0.00    +0.000 C 
ATOM     16  C   UNL     1      44.289   4.303  11.395  0.00  0.00    +0.000 C 
BRANCH  16  17
ATOM     17  C   UNL     1      44.893   3.853  10.126  0.00  0.00    +0.000 A 
ATOM     18  C   UNL     1      45.434   4.776   9.219  0.00  0.00    +0.000 A 
ATOM     19  C   UNL     1      45.993   4.348   8.011  0.00  0.00    +0.000 A 
ATOM     20  C   UNL     1      46.024   2.992   7.694  0.00  0.00    +0.000 A 
ATOM     21  C   UNL     1      45.498   2.063   8.587  0.00  0.00    +0.000 A 
ATOM     22  C   UNL     1      44.934   2.492   9.791  0.00  0.00    +0.000 A 
ENDBRANCH  16  17
ENDBRANCH  14  16
ENDBRANCH   1  14
TORSDOF 5
ENDMDL
MODEL 7
REMARK VINA RESULT:    -6.609      1.700      2.613
REMARK INTER + INTRA:          -9.298
REMARK INTER:                  -8.757
REMARK INTRA:                  -0.541
REMARK UNBOUND:                -0.757
REMARK  Name = 
REMARK  6 active torsions:
REMARK  status: ('A' for Active; 'I' for Inactive)
REMARK    1  A    between atoms: C_1  and  C_2
REMARK    2  A    between atoms: C_2  and  C_3
REMARK    3  A    between atoms: C_2  and  C_14
REMARK    4  A    between atoms: C_3  and  N_4
REMARK    5  A    between atoms: N_4  and  C_5
REMARK    6  A    between atoms: C_9  and  C_10
REMARK                            x       y       z     vdW  Elec       q    Type
REMARK                         _______ _______ _______ _____ _____    ______ ____
ROOT
ATOM      1  N   UNL     1      45.054   5.405   9.728  0.00  0.00    +0.000 N 
ATOM      2  H   UNL     1      44.564   6.043   9.108  0.00  0.00    +0.000 HD
ENDROOT
BRANCH   1   3
ATOM      3  C   UNL     1      45.224   4.135   9.173  0.00  0.00    +0.000 A 
ATOM      4  C   UNL     1      44.589   2.982   9.650  0.00  0.00    +0.000 A 
ATOM      5  C   UNL     1      44.850   1.728   9.093  0.00  0.00    +0.000 A 
ATOM      6  C   UNL     1      45.781   1.601   8.066  0.00  0.00    +0.000 A 
ATOM      7  C   UNL     1      46.461   2.729   7.589  0.00  0.00    +0.000 A 
ATOM      8  C   UNL     1      46.182   3.981   8.155  0.00  0.00    +0.000 A 
BRANCH   7   9
ATOM      9  C   UNL     1      47.460   2.523   6.499  0.00  0.00    +0.000 C 
ATOM     10  N   UNL     1      47.324   3.238   5.340  0.00  0.00    +0.000 N 
ATOM     11  O   UNL     1      48.388   1.730   6.619  0.00  0.00    +0.000 OA
ATOM     12  H   UNL     1      46.600   3.906   5.149  0.00  0.00    +0.000 HD
ATOM     13  H   UNL     1      48.016   3.068   4.622  0.00  0.00    +0.000 HD
ENDBRANCH   7   9
ENDBRANCH   1   3
BRANCH   1  14
ATOM     14  C   UNL     1      44.692   5.566  11.128  0.00  0.00    +0.000 C 
BRANCH  14  16
ATOM     15  C   UNL     1      44.536   8.146  11.198  0.00  0.00    +0.000 C 
ATOM     16  C   UNL     1      45.223   6.881  11.621  0.00  0.00    +0.000 C 
BRANCH  16  17
ATOM     17  C   UNL     1      46.609   6.954  12.124  0.00  0.00    +0.000 A 
ATOM     18  C   UNL     1      47.636   7.481  11.328  0.00  0.00    +0.000 A 
ATOM     19  C   UNL     1      48.951   7.536  11.801  0.00  0.00    +0.000 A 
ATOM     20  C   UNL     1      49.257   7.069  13.077  0.00  0.00    +0.000 A 
ATOM     21  C   UNL     1      48.247   6.550  13.881  0.00  0.00    +0.000 A 
ATOM     22  C   UNL     1      46.935   6.490  13.406  0.00  0.00    +0.000 A 
ENDBRANCH  16  17
ENDBRANCH  14  16
ENDBRANCH   1  14
TORSDOF 5
ENDMDL
MODEL 8
REMARK VINA RESULT:    -6.455      3.209      6.365
REMARK INTER + INTRA:          -9.098
REMARK INTER:                  -8.605
REMARK INTRA:                  -0.494
REMARK UNBOUND:                -0.757
REMARK  Name = 
REMARK  6 active torsions:
REMARK  status: ('A' for Active; 'I' for Inactive)
REMARK    1  A    between atoms: C_1  and  C_2
REMARK    2  A    between atoms: C_2  and  C_3
REMARK    3  A    between atoms: C_2  and  C_14
REMARK    4  A    between atoms: C_3  and  N_4
REMARK    5  A    between atoms: N_4  and  C_5
REMARK    6  A    between atoms: C_9  and  C_10
REMARK                            x       y       z     vdW  Elec       q    Type
REMARK                         _______ _______ _______ _____ _____    ______ ____
ROOT
ATOM      1  N   UNL     1      45.051   4.921  11.809  0.00  0.00    +0.000 N 
ATOM      2  H   UNL     1      44.507   4.430  12.512  0.00  0.00    +0.000 HD
ENDROOT
BRANCH   1   3
ATOM      3  C   UNL     1      45.668   6.071  12.308  0.00  0.00    +0.000 A 
ATOM      4  C   UNL     1      45.073   7.338  12.313  0.00  0.00    +0.000 A 
ATOM      5  C   UNL     1      45.766   8.462  12.767  0.00  0.00    +0.000 A 
ATOM      6  C   UNL     1      47.086   8.341  13.194  0.00  0.00    +0.000 A 
ATOM      7  C   UNL     1      47.723   7.095  13.170  0.00  0.00    +0.000 A 
ATOM      8  C   UNL     1      47.010   5.975  12.717  0.00  0.00    +0.000 A 
BRANCH   7   9
ATOM      9  C   UNL     1      49.143   7.036  13.625  0.00  0.00    +0.000 C 
ATOM     10  N   UNL     1      50.126   7.450  12.768  0.00  0.00    +0.000 N 
ATOM     11  O   UNL     1      49.444   6.623  14.741  0.00  0.00    +0.000 OA
ATOM     12  H   UNL     1      49.979   7.802  11.840  0.00  0.00    +0.000 HD
ATOM     13  H   UNL     1      51.076   7.391  13.110  0.00  0.00    +0.000 HD
ENDBRANCH   7   9
ENDBRANCH   1   3
BRANCH   1  14
ATOM     14  C   UNL     1      44.433   4.918  10.493  0.00  0.00    +0.000 C 
BRANCH  14  16
ATOM     15  C   UNL     1      43.707   2.462  10.848  0.00  0.00    +0.000 C 
ATOM     16  C   UNL     1      44.361   3.504   9.990  0.00  0.00    +0.000 C 
BRANCH  16  17
ATOM     17  C   UNL     1      45.283   3.074   8.920  0.00  0.00    +0.000 A 
ATOM     18  C   UNL     1      45.801   3.998   8.002  0.00  0.00    +0.000 A 
ATOM     19  C   UNL     1      46.662   3.586   6.980  0.00  0.00    +0.000 A 
ATOM     20  C   UNL     1      47.021   2.245   6.865  0.00  0.00    +0.000 A 
ATOM     21  C   UNL     1      46.521   1.317   7.772  0.00  0.00    +0.000 A 
ATOM     22  C   UNL     1      45.655   1.729   8.789  0.00  0.00    +0.000 A 
ENDBRANCH  16  17
ENDBRANCH  14  16
ENDBRANCH   1  14
TORSDOF 5
ENDMDL
MODEL 9
REMARK VINA RESULT:    -6.136      4.125      6.056
REMARK INTER + INTRA:          -8.687
REMARK INTER:                  -8.278
REMARK INTRA:                  -0.408
REMARK UNBOUND:                -0.757
REMARK  Name = 
REMARK  6 active torsions:
REMARK  status: ('A' for Active; 'I' for Inactive)
REMARK    1  A    between atoms: C_1  and  C_2
REMARK    2  A    between atoms: C_2  and  C_3
REMARK    3  A    between atoms: C_2  and  C_14
REMARK    4  A    between atoms: C_3  and  N_4
REMARK    5  A    between atoms: N_4  and  C_5
REMARK    6  A    between atoms: C_9  and  C_10
REMARK                            x       y       z     vdW  Elec       q    Type
REMARK                         _______ _______ _______ _____ _____    ______ ____
ROOT
ATOM      1  N   UNL     1      46.844   3.788  14.719  0.00  0.00    +0.000 N 
ATOM      2  H   UNL     1      47.204   2.853  14.553  0.00  0.00    +0.000 HD
ENDROOT
BRANCH   1   3
ATOM      3  C   UNL     1      46.536   4.466  13.538  0.00  0.00    +0.000 A 
ATOM      4  C   UNL     1      47.143   5.665  13.144  0.00  0.00    +0.000 A 
ATOM      5  C   UNL     1      46.746   6.330  11.982  0.00  0.00    +0.000 A 
ATOM      6  C   UNL     1      45.706   5.821  11.208  0.00  0.00    +0.000 A 
ATOM      7  C   UNL     1      45.053   4.643  11.592  0.00  0.00    +0.000 A 
ATOM      8  C   UNL     1      45.470   3.985  12.758  0.00  0.00    +0.000 A 
BRANCH   7   9
ATOM      9  C   UNL     1      43.936   4.161  10.729  0.00  0.00    +0.000 C 
ATOM     10  N   UNL     1      43.893   4.565   9.423  0.00  0.00    +0.000 N 
ATOM     11  O   UNL     1      43.061   3.419  11.165  0.00  0.00    +0.000 OA
ATOM     12  H   UNL     1      44.559   5.168   8.977  0.00  0.00    +0.000 HD
ATOM     13  H   UNL     1      43.118   4.222   8.870  0.00  0.00    +0.000 HD
ENDBRANCH   7   9
ENDBRANCH   1   3
BRANCH   1  14
ATOM     14  C   UNL     1      47.496   4.471  15.825  0.00  0.00    +0.000 C 
BRANCH  14  16
ATOM     15  C   UNL     1      47.019   2.764  17.707  0.00  0.00    +0.000 C 
ATOM     16  C   UNL     1      48.000   3.449  16.802  0.00  0.00    +0.000 C 
BRANCH  16  17
ATOM     17  C   UNL     1      49.431   3.448  17.167  0.00  0.00    +0.000 A 
ATOM     18  C   UNL     1      50.101   4.645  17.457  0.00  0.00    +0.000 A 
ATOM     19  C   UNL     1      51.460   4.642  17.787  0.00  0.00    +0.000 A 
ATOM     20  C   UNL     1      52.167   3.442  17.838  0.00  0.00    +0.000 A 
ATOM     21  C   UNL     1      51.514   2.246  17.560  0.00  0.00    +0.000 A 
ATOM     22  C   UNL     1      50.158   2.250  17.223  0.00  0.00    +0.000 A 
ENDBRANCH  16  17
ENDBRANCH  14  16
ENDBRANCH   1  14
TORSDOF 5
ENDMDL
