MODEL 1
REMARK VINA RESULT:    -9.622      0.000      0.000
REMARK INTER + INTRA:         -13.822
REMARK INTER:                 -12.997
REMARK INTRA:                  -0.824
REMARK UNBOUND:                -0.824
REMARK  Name = 
REMARK  6 active torsions:
REMARK  status: ('A' for Active; 'I' for Inactive)
REMARK    1  A    between atoms: C_2  and  C_4
REMARK    2  A    between atoms: N_8  and  C_9
REMARK    3  A    between atoms: C_9  and  C_10
REMARK    4  A    between atoms: C_10  and  C_13
REMARK    5  A    between atoms: C_18  and  O_19
REMARK    6  A    between atoms: O_19  and  C_20
REMARK                            x       y       z     vdW  Elec       q    Type
REMARK                         _______ _______ _______ _____ _____    ______ ____
ROOT
ATOM      1  C   UNL     1      43.684   5.657  12.274  0.00  0.00    +0.000 C 
ATOM      2  F   UNL     1      43.141   6.771  11.692  0.00  0.00    +0.000 F 
ATOM      3  F   UNL     1      42.976   5.476  13.428  0.00  0.00    +0.000 F 
ENDROOT
BRANCH   1   4
ATOM      4  C   UNL     1      45.165   5.834  12.560  0.00  0.00    +0.000 A 
ATOM      5  C   UNL     1      45.932   6.722  11.790  0.00  0.00    +0.000 A 
ATOM      6  C   UNL     1      47.284   6.883  12.065  0.00  0.00    +0.000 A 
ATOM      7  F   UNL     1      48.008   7.729  11.321  0.00  0.00    +0.000 F 
ATOM      8  C   UNL     1      47.896   6.185  13.098  0.00  0.00    +0.000 A 
ATOM      9  C   UNL     1      47.147   5.310  13.884  0.00  0.00    +0.000 A 
ATOM     10  C   UNL     1      45.790   5.120  13.608  0.00  0.00    +0.000 A 
BRANCH   9  11
ATOM     11  O   UNL     1      47.856   4.676  14.875  0.00  0.00    +0.000 OA
BRANCH  11  12
ATOM     12  C   UNL     1      47.149   4.000  15.939  0.00  0.00    +0.000 C 
ATOM     13  C   UNL     1      47.184   4.619  17.355  0.00  0.00    +0.000 C 
ATOM     14  N   UNL     1      47.409   3.271  17.923  0.00  0.00    +0.000 NA
ATOM     15  C   UNL     1      47.922   2.834  16.606  0.00  0.00    +0.000 C 
ATOM     16  H   UNL     1      46.551   2.793  18.204  0.00  0.00    +0.000 HD
ENDBRANCH  11  12
ENDBRANCH   9  11
ENDBRANCH   1   4
BRANCH   1  17
ATOM     17  C   UNL     1      43.424   4.451  11.331  0.00  0.00    +0.000 C 
BRANCH  17  22
ATOM     18  C   UNL     1      46.447   2.450   7.722  0.00  0.00    +0.000 A 
ATOM     19  C   UNL     1      45.682   1.813   8.693  0.00  0.00    +0.000 A 
ATOM     20  C   UNL     1      44.803   2.567   9.472  0.00  0.00    +0.000 A 
ATOM     21  C   UNL     1      44.709   3.941   9.277  0.00  0.00    +0.000 A 
ATOM     22  N   UNL     1      43.784   4.730   9.933  0.00  0.00    +0.000 N 
ATOM     23  N   UNL     1      45.469   4.576   8.364  0.00  0.00    +0.000 NA
ATOM     24  C   UNL     1      46.329   3.829   7.616  0.00  0.00    +0.000 A 
ATOM     25  H   UNL     1      43.974   5.706   9.712  0.00  0.00    +0.000 HD
BRANCH  18  27
ATOM     26  N   UNL     1      48.455   2.414   6.365  0.00  0.00    +0.000 N 
ATOM     27  C   UNL     1      47.364   1.725   6.823  0.00  0.00    +0.000 C 
ATOM     28  O   UNL     1      47.181   0.552   6.530  0.00  0.00    +0.000 OA
ATOM     29  H   UNL     1      49.137   1.875   5.843  0.00  0.00    +0.000 HD
ATOM     30  H   UNL     1      48.769   3.275   6.783  0.00  0.00    +0.000 HD
ENDBRANCH  18  27
ENDBRANCH  17  22
ENDBRANCH   1  17
TORSDOF 6
ENDMDL
MODEL 2
REMARK VINA RESULT:    -8.970      2.483      3.324
REMARK INTER + INTRA:         -12.941
REMARK INTER:                 -12.027
REMARK INTRA:                  -0.914
REMARK UNBOUND:                -0.824
REMARK  Name = 
REMARK  6 active torsions:
REMARK  status: ('A' for Active; 'I' for Inactive)
REMARK    1  A    between atoms: C_2  and  C_4
REMARK    2  A    between atoms: N_8  and  C_9
REMARK    3  A    between atoms: C_9  and  C_10
REMARK    4  A    between atoms: C_10  and  C_13
REMARK    5  A    between atoms: C_18  and  O_19
REMARK    6  A    between atoms: O_19  and  C_20
REMARK                            x       y       z     vdW  Elec       q    Type
REMARK                         _______ _______ _______ _____ _____    ______ ____
ROOT
ATOM      1  C   UNL     1      43.358   5.605  12.057  0.00  0.00    +0.000 C 
ATOM      2  F   UNL     1      43.058   6.770  11.404  0.00  0.00    +0.000 F 
ATOM      3  F   UNL     1      42.421   5.497  13.045  0.00  0.00    +0.000 F 
ENDROOT
BRANCH   1   4
ATOM      4  C   UNL     1      44.763   5.626  12.632  0.00  0.00    +0.000 A 
ATOM      5  C   UNL     1      45.361   4.438  13.081  0.00  0.00    +0.000 A 
ATOM      6  C   UNL     1      46.650   4.466  13.597  0.00  0.00    +0.000 A 
ATOM      7  F   UNL     1      47.208   3.328  14.029  0.00  0.00    +0.000 F 
ATOM      8  C   UNL     1      47.368   5.652  13.672  0.00  0.00    +0.000 A 
ATOM      9  C   UNL     1      46.799   6.840  13.216  0.00  0.00    +0.000 A 
ATOM     10  C   UNL     1      45.494   6.834  12.713  0.00  0.00    +0.000 A 
BRANCH   9  11
ATOM     11  O   UNL     1      47.600   7.948  13.339  0.00  0.00    +0.000 OA
BRANCH  11  12
ATOM     12  C   UNL     1      48.810   8.047  12.553  0.00  0.00    +0.000 C 
ATOM     13  C   UNL     1      50.062   8.676  13.205  0.00  0.00    +0.000 C 
ATOM     14  N   UNL     1      50.312   9.434  11.958  0.00  0.00    +0.000 NA
ATOM     15  C   UNL     1      48.882   9.274  11.609  0.00  0.00    +0.000 C 
ATOM     16  H   UNL     1      50.943   8.963  11.308  0.00  0.00    +0.000 HD
ENDBRANCH  11  12
ENDBRANCH   9  11
ENDBRANCH   1   4
BRANCH   1  17
ATOM     17  C   UNL     1      43.169   4.434  11.055  0.00  0.00    +0.000 C 
BRANCH  17  22
ATOM     18  C   UNL     1      46.519   2.533   7.689  0.00  0.00    +0.000 A 
ATOM     19  C   UNL     1      45.668   1.870   8.566  0.00  0.00    +0.000 A 
ATOM     20  C   UNL     1      44.719   2.601   9.280  0.00  0.00    +0.000 A 
ATOM     21  C   UNL     1      44.641   3.981   9.116  0.00  0.00    +0.000 A 
ATOM     22  N   UNL     1      43.657   4.752   9.705  0.00  0.00    +0.000 N 
ATOM     23  N   UNL     1      45.481   4.641   8.296  0.00  0.00    +0.000 NA
ATOM     24  C   UNL     1      46.409   3.914   7.611  0.00  0.00    +0.000 A 
ATOM     25  H   UNL     1      43.865   5.734   9.530  0.00  0.00    +0.000 HD
BRANCH  18  27
ATOM     26  N   UNL     1      48.590   2.568   6.429  0.00  0.00    +0.000 N 
ATOM     27  C   UNL     1      47.517   1.833   6.859  0.00  0.00    +0.000 C 
ATOM     28  O   UNL     1      47.414   0.643   6.599  0.00  0.00    +0.000 OA
ATOM     29  H   UNL     1      49.325   2.052   5.959  0.00  0.00    +0.000 HD
ATOM     30  H   UNL     1      48.834   3.458   6.832  0.00  0.00    +0.000 HD
ENDBRANCH  18  27
ENDBRANCH  17  22
ENDBRANCH   1  17
TORSDOF 6
ENDMDL
MODEL 3
REMARK VINA RESULT:    -8.409      2.718      3.139
REMARK INTER + INTRA:         -12.183
REMARK INTER:                 -11.277
REMARK INTRA:                  -0.906
REMARK UNBOUND:                -0.824
REMARK  Name = 
REMARK  6 active torsions:
REMARK  status: ('A' for Active; 'I' for Inactive)
REMARK    1  A    between atoms: C_2  and  C_4
REMARK    2  A    between atoms: N_8  and  C_9
REMARK    3  A    between atoms: C_9  and  C_10
REMARK    4  A    between atoms: C_10  and  C_13
REMARK    5  A    between atoms: C_18  and  O_19
REMARK    6  A    between atoms: O_19  and  C_20
REMARK                            x       y       z     vdW  Elec       q    Type
REMARK                         _______ _______ _______ _____ _____    ______ ____
ROOT
ATOM      1  C   UNL     1      44.688   4.905  12.282  0.00  0.00    +0.000 C 
ATOM      2  F   UNL     1      44.100   4.723  13.504  0.00  0.00    +0.000 F 
ATOM      3  F   UNL     1      45.592   3.887  12.166  0.00  0.00    +0.000 F 
ENDROOT
BRANCH   1   4
ATOM      4  C   UNL     1      45.368   6.258  12.178  0.00  0.00    +0.000 A 
ATOM      5  C   UNL     1      44.642   7.434  12.420  0.00  0.00    +0.000 A 
ATOM      6  C   UNL     1      45.276   8.667  12.331  0.00  0.00    +0.000 A 
ATOM      7  F   UNL     1      44.572   9.784  12.558  0.00  0.00    +0.000 F 
ATOM      8  C   UNL     1      46.624   8.762  12.013  0.00  0.00    +0.000 A 
ATOM      9  C   UNL     1      47.367   7.604  11.785  0.00  0.00    +0.000 A 
ATOM     10  C   UNL     1      46.740   6.356  11.849  0.00  0.00    +0.000 A 
BRANCH   9  11
ATOM     11  O   UNL     1      48.688   7.818  11.479  0.00  0.00    +0.000 OA
BRANCH  11  12
ATOM     12  C   UNL     1      49.718   7.280  12.340  0.00  0.00    +0.000 C 
ATOM     13  C   UNL     1      49.559   7.445  13.868  0.00  0.00    +0.000 C 
ATOM     14  N   UNL     1      50.991   7.812  13.962  0.00  0.00    +0.000 NA
ATOM     15  C   UNL     1      50.956   8.192  12.532  0.00  0.00    +0.000 C 
ATOM     16  H   UNL     1      51.607   7.022  14.158  0.00  0.00    +0.000 HD
ENDBRANCH  11  12
ENDBRANCH   9  11
ENDBRANCH   1   4
BRANCH   1  17
ATOM     17  C   UNL     1      43.594   4.730  11.194  0.00  0.00    +0.000 C 
BRANCH  17  22
ATOM     18  C   UNL     1      46.520   2.544   7.613  0.00  0.00    +0.000 A 
ATOM     19  C   UNL     1      45.612   1.965   8.492  0.00  0.00    +0.000 A 
ATOM     20  C   UNL     1      44.803   2.788   9.277  0.00  0.00    +0.000 A 
ATOM     21  C   UNL     1      44.920   4.171   9.178  0.00  0.00    +0.000 A 
ATOM     22  N   UNL     1      44.078   5.044   9.841  0.00  0.00    +0.000 N 
ATOM     23  N   UNL     1      45.820   4.745   8.357  0.00  0.00    +0.000 NA
ATOM     24  C   UNL     1      46.609   3.929   7.602  0.00  0.00    +0.000 A 
ATOM     25  H   UNL     1      44.420   5.993   9.703  0.00  0.00    +0.000 HD
BRANCH  18  27
ATOM     26  N   UNL     1      48.397   2.417   6.084  0.00  0.00    +0.000 N 
ATOM     27  C   UNL     1      47.379   1.752   6.713  0.00  0.00    +0.000 C 
ATOM     28  O   UNL     1      47.215   0.549   6.564  0.00  0.00    +0.000 OA
ATOM     29  H   UNL     1      49.049   1.843   5.560  0.00  0.00    +0.000 HD
ATOM     30  H   UNL     1      48.715   3.326   6.378  0.00  0.00    +0.000 HD
ENDBRANCH  18  27
ENDBRANCH  17  22
ENDBRANCH   1  17
TORSDOF 6
ENDMDL
MODEL 4
REMARK VINA RESULT:    -8.373      2.213      7.970
REMARK INTER + INTRA:         -12.134
REMARK INTER:                 -11.483
REMARK INTRA:                  -0.651
REMARK UNBOUND:                -0.824
REMARK  Name = 
REMARK  6 active torsions:
REMARK  status: ('A' for Active; 'I' for Inactive)
REMARK    1  A    between atoms: C_2  and  C_4
REMARK    2  A    between atoms: N_8  and  C_9
REMARK    3  A    between atoms: C_9  and  C_10
REMARK    4  A    between atoms: C_10  and  C_13
REMARK    5  A    between atoms: C_18  and  O_19
REMARK    6  A    between atoms: O_19  and  C_20
REMARK                            x       y       z     vdW  Elec       q    Type
REMARK                         _______ _______ _______ _____ _____    ______ ____
ROOT
ATOM      1  C   UNL     1      45.780   6.222  11.339  0.00  0.00    +0.000 C 
ATOM      2  F   UNL     1      44.923   7.273  11.152  0.00  0.00    +0.000 F 
ATOM      3  F   UNL     1      46.992   6.665  10.891  0.00  0.00    +0.000 F 
ENDROOT
BRANCH   1   4
ATOM      4  C   UNL     1      45.332   4.987  10.578  0.00  0.00    +0.000 A 
ATOM      5  C   UNL     1      44.511   4.033  11.200  0.00  0.00    +0.000 A 
ATOM      6  C   UNL     1      44.099   2.911  10.493  0.00  0.00    +0.000 A 
ATOM      7  F   UNL     1      43.321   2.003  11.098  0.00  0.00    +0.000 F 
ATOM      8  C   UNL     1      44.477   2.714   9.172  0.00  0.00    +0.000 A 
ATOM      9  C   UNL     1      45.279   3.659   8.531  0.00  0.00    +0.000 A 
ATOM     10  C   UNL     1      45.720   4.783   9.234  0.00  0.00    +0.000 A 
BRANCH   9  11
ATOM     11  O   UNL     1      45.590   3.361   7.227  0.00  0.00    +0.000 OA
BRANCH  11  12
ATOM     12  C   UNL     1      46.971   3.160   6.849  0.00  0.00    +0.000 C 
ATOM     13  C   UNL     1      47.289   2.827   5.374  0.00  0.00    +0.000 C 
ATOM     14  N   UNL     1      48.245   1.792   5.829  0.00  0.00    +0.000 NA
ATOM     15  C   UNL     1      47.526   1.738   7.121  0.00  0.00    +0.000 C 
ATOM     16  H   UNL     1      49.206   2.127   5.912  0.00  0.00    +0.000 HD
ENDBRANCH  11  12
ENDBRANCH   9  11
ENDBRANCH   1   4
BRANCH   1  17
ATOM     17  C   UNL     1      45.877   5.949  12.865  0.00  0.00    +0.000 C 
BRANCH  17  22
ATOM     18  C   UNL     1      48.460   4.449  17.017  0.00  0.00    +0.000 A 
ATOM     19  C   UNL     1      47.419   3.820  16.344  0.00  0.00    +0.000 A 
ATOM     20  C   UNL     1      46.975   4.346  15.130  0.00  0.00    +0.000 A 
ATOM     21  C   UNL     1      47.570   5.493  14.613  0.00  0.00    +0.000 A 
ATOM     22  N   UNL     1      47.258   6.003  13.368  0.00  0.00    +0.000 N 
ATOM     23  N   UNL     1      48.556   6.131  15.271  0.00  0.00    +0.000 NA
ATOM     24  C   UNL     1      48.974   5.611  16.459  0.00  0.00    +0.000 A 
ATOM     25  H   UNL     1      47.736   6.895  13.252  0.00  0.00    +0.000 HD
BRANCH  18  27
ATOM     26  N   UNL     1      48.250   3.058  18.991  0.00  0.00    +0.000 N 
ATOM     27  C   UNL     1      49.024   3.935  18.279  0.00  0.00    +0.000 C 
ATOM     28  O   UNL     1      50.145   4.247  18.655  0.00  0.00    +0.000 OA
ATOM     29  H   UNL     1      48.690   2.623  19.794  0.00  0.00    +0.000 HD
ATOM     30  H   UNL     1      47.453   2.589  18.590  0.00  0.00    +0.000 HD
ENDBRANCH  18  27
ENDBRANCH  17  22
ENDBRANCH   1  17
TORSDOF 6
ENDMDL
MODEL 5
REMARK VINA RESULT:    -7.038      3.069      7.923
REMARK INTER + INTRA:         -10.332
REMARK INTER:                  -9.802
REMARK INTRA:                  -0.530
REMARK UNBOUND:                -0.824
REMARK  Name = 
REMARK  6 active torsions:
REMARK  status: ('A' for Active; 'I' for Inactive)
REMARK    1  A    between atoms: C_2  and  C_4
REMARK    2  A    between atoms: N_8  and  C_9
REMARK    3  A    between atoms: C_9  and  C_10
REMARK    4  A    between atoms: C_10  and  C_13
REMARK    5  A    between atoms: C_18  and  O_19
REMARK    6  A    between atoms: O_19  and  C_20
REMARK                            x       y       z     vdW  Elec       q    Type
REMARK                         _______ _______ _______ _____ _____    ______ ____
ROOT
ATOM      1  C   UNL     1      45.258   6.380  11.722  0.00  0.00    +0.000 C 
ATOM      2  F   UNL     1      44.504   6.506  12.858  0.00  0.00    +0.000 F 
ATOM      3  F   UNL     1      44.963   7.485  10.974  0.00  0.00    +0.000 F 
ENDROOT
BRANCH   1   4
ATOM      4  C   UNL     1      44.933   5.103  10.967  0.00  0.00    +0.000 A 
ATOM      5  C   UNL     1      44.149   4.107  11.569  0.00  0.00    +0.000 A 
ATOM      6  C   UNL     1      43.850   2.946  10.867  0.00  0.00    +0.000 A 
ATOM      7  F   UNL     1      43.107   1.998  11.453  0.00  0.00    +0.000 F 
ATOM      8  C   UNL     1      44.306   2.753   9.570  0.00  0.00    +0.000 A 
ATOM      9  C   UNL     1      45.072   3.739   8.948  0.00  0.00    +0.000 A 
ATOM     10  C   UNL     1      45.401   4.904   9.648  0.00  0.00    +0.000 A 
BRANCH   9  11
ATOM     11  O   UNL     1      45.467   3.440   7.667  0.00  0.00    +0.000 OA
BRANCH  11  12
ATOM     12  C   UNL     1      46.806   2.951   7.427  0.00  0.00    +0.000 C 
ATOM     13  C   UNL     1      47.271   2.766   5.965  0.00  0.00    +0.000 C 
ATOM     14  N   UNL     1      47.876   1.467   6.337  0.00  0.00    +0.000 NA
ATOM     15  C   UNL     1      46.967   1.411   7.503  0.00  0.00    +0.000 C 
ATOM     16  H   UNL     1      48.863   1.530   6.594  0.00  0.00    +0.000 HD
ENDBRANCH  11  12
ENDBRANCH   9  11
ENDBRANCH   1   4
BRANCH   1  17
ATOM     17  C   UNL     1      46.754   6.436  12.132  0.00  0.00    +0.000 C 
BRANCH  17  22
ATOM     18  C   UNL     1      50.601   7.217  15.412  0.00  0.00    +0.000 A 
ATOM     19  C   UNL     1      50.369   7.785  14.164  0.00  0.00    +0.000 A 
ATOM     20  C   UNL     1      49.159   7.537  13.516  0.00  0.00    +0.000 A 
ATOM     21  C   UNL     1      48.205   6.722  14.119  0.00  0.00    +0.000 A 
ATOM     22  N   UNL     1      46.945   6.524  13.588  0.00  0.00    +0.000 N 
ATOM     23  N   UNL     1      48.430   6.139  15.311  0.00  0.00    +0.000 NA
ATOM     24  C   UNL     1      49.620   6.383  15.929  0.00  0.00    +0.000 A 
ATOM     25  H   UNL     1      46.467   5.814  14.140  0.00  0.00    +0.000 HD
BRANCH  18  27
ATOM     26  N   UNL     1      52.456   8.666  15.991  0.00  0.00    +0.000 N 
ATOM     27  C   UNL     1      51.831   7.464  16.188  0.00  0.00    +0.000 C 
ATOM     28  O   UNL     1      52.252   6.651  16.999  0.00  0.00    +0.000 OA
ATOM     29  H   UNL     1      53.232   8.874  16.610  0.00  0.00    +0.000 HD
ATOM     30  H   UNL     1      52.005   9.445  15.538  0.00  0.00    +0.000 HD
ENDBRANCH  18  27
ENDBRANCH  17  22
ENDBRANCH   1  17
TORSDOF 6
ENDMDL
MODEL 6
REMARK VINA RESULT:    -6.966      2.802      8.126
REMARK INTER + INTRA:         -10.234
REMARK INTER:                  -9.753
REMARK INTRA:                  -0.482
REMARK UNBOUND:                -0.824
REMARK  Name = 
REMARK  6 active torsions:
REMARK  status: ('A' for Active; 'I' for Inactive)
REMARK    1  A    between atoms: C_2  and  C_4
REMARK    2  A    between atoms: N_8  and  C_9
REMARK    3  A    between atoms: C_9  and  C_10
REMARK    4  A    between atoms: C_10  and  C_13
REMARK    5  A    between atoms: C_18  and  O_19
REMARK    6  A    between atoms: O_19  and  C_20
REMARK                            x       y       z     vdW  Elec       q    Type
REMARK                         _______ _______ _______ _____ _____    ______ ____
ROOT
ATOM      1  C   UNL     1      46.758   4.358  13.701  0.00  0.00    +0.000 C 
ATOM      2  F   UNL     1      47.555   5.380  13.260  0.00  0.00    +0.000 F 
ATOM      3  F   UNL     1      47.522   3.231  13.578  0.00  0.00    +0.000 F 
ENDROOT
BRANCH   1   4
ATOM      4  C   UNL     1      45.481   4.247  12.888  0.00  0.00    +0.000 A 
ATOM      5  C   UNL     1      44.398   5.098  13.154  0.00  0.00    +0.000 A 
ATOM      6  C   UNL     1      43.236   4.995  12.398  0.00  0.00    +0.000 A 
ATOM      7  F   UNL     1      42.206   5.808  12.665  0.00  0.00    +0.000 F 
ATOM      8  C   UNL     1      43.126   4.065  11.373  0.00  0.00    +0.000 A 
ATOM      9  C   UNL     1      44.197   3.221  11.082  0.00  0.00    +0.000 A 
ATOM     10  C   UNL     1      45.366   3.297  11.846  0.00  0.00    +0.000 A 
BRANCH   9  11
ATOM     11  O   UNL     1      43.976   2.343  10.050  0.00  0.00    +0.000 OA
BRANCH  11  12
ATOM     12  C   UNL     1      44.471   2.655   8.728  0.00  0.00    +0.000 C 
ATOM     13  C   UNL     1      45.881   2.158   8.334  0.00  0.00    +0.000 C 
ATOM     14  N   UNL     1      46.159   3.478   7.724  0.00  0.00    +0.000 NA
ATOM     15  C   UNL     1      45.102   4.063   8.577  0.00  0.00    +0.000 C 
ATOM     16  H   UNL     1      45.948   3.523   6.726  0.00  0.00    +0.000 HD
ENDBRANCH  11  12
ENDBRANCH   9  11
ENDBRANCH   1   4
BRANCH   1  17
ATOM     17  C   UNL     1      46.459   4.600  15.205  0.00  0.00    +0.000 C 
BRANCH  17  22
ATOM     18  C   UNL     1      50.815   3.573  17.680  0.00  0.00    +0.000 A 
ATOM     19  C   UNL     1      50.177   4.791  17.476  0.00  0.00    +0.000 A 
ATOM     20  C   UNL     1      48.904   4.806  16.905  0.00  0.00    +0.000 A 
ATOM     21  C   UNL     1      48.295   3.609  16.539  0.00  0.00    +0.000 A 
ATOM     22  N   UNL     1      46.996   3.541  16.072  0.00  0.00    +0.000 N 
ATOM     23  N   UNL     1      48.916   2.426  16.700  0.00  0.00    +0.000 NA
ATOM     24  C   UNL     1      50.162   2.427  17.252  0.00  0.00    +0.000 A 
ATOM     25  H   UNL     1      46.808   2.586  15.772  0.00  0.00    +0.000 HD
BRANCH  18  27
ATOM     26  N   UNL     1      52.576   2.200  18.624  0.00  0.00    +0.000 N 
ATOM     27  C   UNL     1      52.139   3.462  18.321  0.00  0.00    +0.000 C 
ATOM     28  O   UNL     1      52.833   4.446  18.536  0.00  0.00    +0.000 OA
ATOM     29  H   UNL     1      53.531   2.125  18.957  0.00  0.00    +0.000 HD
ATOM     30  H   UNL     1      52.157   1.372  18.233  0.00  0.00    +0.000 HD
ENDBRANCH  18  27
ENDBRANCH  17  22
ENDBRANCH   1  17
TORSDOF 6
ENDMDL
MODEL 7
REMARK VINA RESULT:    -6.928      3.175      4.592
REMARK INTER + INTRA:         -10.183
REMARK INTER:                  -9.478
REMARK INTRA:                  -0.705
REMARK UNBOUND:                -0.824
REMARK  Name = 
REMARK  6 active torsions:
REMARK  status: ('A' for Active; 'I' for Inactive)
REMARK    1  A    between atoms: C_2  and  C_4
REMARK    2  A    between atoms: N_8  and  C_9
REMARK    3  A    between atoms: C_9  and  C_10
REMARK    4  A    between atoms: C_10  and  C_13
REMARK    5  A    between atoms: C_18  and  O_19
REMARK    6  A    between atoms: O_19  and  C_20
REMARK                            x       y       z     vdW  Elec       q    Type
REMARK                         _______ _______ _______ _____ _____    ______ ____
ROOT
ATOM      1  C   UNL     1      47.858   8.901  12.760  0.00  0.00    +0.000 C 
ATOM      2  F   UNL     1      48.509   8.204  11.778  0.00  0.00    +0.000 F 
ATOM      3  F   UNL     1      48.253  10.199  12.599  0.00  0.00    +0.000 F 
ENDROOT
BRANCH   1   4
ATOM      4  C   UNL     1      48.209   8.388  14.145  0.00  0.00    +0.000 A 
ATOM      5  C   UNL     1      48.358   9.285  15.214  0.00  0.00    +0.000 A 
ATOM      6  C   UNL     1      48.670   8.805  16.479  0.00  0.00    +0.000 A 
ATOM      7  F   UNL     1      48.817   9.671  17.491  0.00  0.00    +0.000 F 
ATOM      8  C   UNL     1      48.831   7.446  16.713  0.00  0.00    +0.000 A 
ATOM      9  C   UNL     1      48.671   6.537  15.668  0.00  0.00    +0.000 A 
ATOM     10  C   UNL     1      48.377   7.005  14.383  0.00  0.00    +0.000 A 
BRANCH   9  11
ATOM     11  O   UNL     1      48.853   5.221  16.015  0.00  0.00    +0.000 OA
BRANCH  11  12
ATOM     12  C   UNL     1      47.702   4.380  16.259  0.00  0.00    +0.000 C 
ATOM     13  C   UNL     1      47.055   4.407  17.662  0.00  0.00    +0.000 C 
ATOM     14  N   UNL     1      46.947   2.931  17.624  0.00  0.00    +0.000 NA
ATOM     15  C   UNL     1      48.028   2.907  16.615  0.00  0.00    +0.000 C 
ATOM     16  H   UNL     1      46.051   2.592  17.268  0.00  0.00    +0.000 HD
ENDBRANCH  11  12
ENDBRANCH   9  11
ENDBRANCH   1   4
BRANCH   1  17
ATOM     17  C   UNL     1      46.333   8.803  12.484  0.00  0.00    +0.000 C 
BRANCH  17  22
ATOM     18  C   UNL     1      44.332   4.194  11.526  0.00  0.00    +0.000 A 
ATOM     19  C   UNL     1      45.446   4.811  10.969  0.00  0.00    +0.000 A 
ATOM     20  C   UNL     1      45.899   6.016  11.508  0.00  0.00    +0.000 A 
ATOM     21  C   UNL     1      45.229   6.589  12.585  0.00  0.00    +0.000 A 
ATOM     22  N   UNL     1      45.685   7.718  13.236  0.00  0.00    +0.000 N 
ATOM     23  N   UNL     1      44.129   6.020  13.111  0.00  0.00    +0.000 NA
ATOM     24  C   UNL     1      43.693   4.847  12.570  0.00  0.00    +0.000 A 
ATOM     25  H   UNL     1      44.982   8.009  13.914  0.00  0.00    +0.000 HD
BRANCH  18  27
ATOM     26  N   UNL     1      44.408   2.363   9.939  0.00  0.00    +0.000 N 
ATOM     27  C   UNL     1      43.815   2.897  11.052  0.00  0.00    +0.000 C 
ATOM     28  O   UNL     1      42.924   2.306  11.646  0.00  0.00    +0.000 OA
ATOM     29  H   UNL     1      44.126   1.421   9.690  0.00  0.00    +0.000 HD
ATOM     30  H   UNL     1      45.295   2.687   9.589  0.00  0.00    +0.000 HD
ENDBRANCH  18  27
ENDBRANCH  17  22
ENDBRANCH   1  17
TORSDOF 6
ENDMDL
MODEL 8
REMARK VINA RESULT:    -6.896      3.554      7.289
REMARK INTER + INTRA:         -10.140
REMARK INTER:                  -9.121
REMARK INTRA:                  -1.018
REMARK UNBOUND:                -0.824
REMARK  Name = 
REMARK  6 active torsions:
REMARK  status: ('A' for Active; 'I' for Inactive)
REMARK    1  A    between atoms: C_2  and  C_4
REMARK    2  A    between atoms: N_8  and  C_9
REMARK    3  A    between atoms: C_9  and  C_10
REMARK    4  A    between atoms: C_10  and  C_13
REMARK    5  A    between atoms: C_18  and  O_19
REMARK    6  A    between atoms: O_19  and  C_20
REMARK                            x       y       z     vdW  Elec       q    Type
REMARK                         _______ _______ _______ _____ _____    ______ ____
ROOT
ATOM      1  C   UNL     1      49.120   8.118  12.297  0.00  0.00    +0.000 C 
ATOM      2  F   UNL     1      49.635   9.092  11.485  0.00  0.00    +0.000 F 
ATOM      3  F   UNL     1      49.783   6.975  11.948  0.00  0.00    +0.000 F 
ENDROOT
BRANCH   1   4
ATOM      4  C   UNL     1      47.622   7.962  12.111  0.00  0.00    +0.000 A 
ATOM      5  C   UNL     1      46.763   9.045  12.354  0.00  0.00    +0.000 A 
ATOM      6  C   UNL     1      45.394   8.895  12.172  0.00  0.00    +0.000 A 
ATOM      7  F   UNL     1      44.583   9.934  12.413  0.00  0.00    +0.000 F 
ATOM      8  C   UNL     1      44.853   7.690  11.746  0.00  0.00    +0.000 A 
ATOM      9  C   UNL     1      45.691   6.606  11.484  0.00  0.00    +0.000 A 
ATOM     10  C   UNL     1      47.069   6.733  11.682  0.00  0.00    +0.000 A 
BRANCH   9  11
ATOM     11  O   UNL     1      45.047   5.467  11.068  0.00  0.00    +0.000 OA
BRANCH  11  12
ATOM     12  C   UNL     1      44.452   4.585  12.046  0.00  0.00    +0.000 C 
ATOM     13  C   UNL     1      45.191   3.275  12.401  0.00  0.00    +0.000 C 
ATOM     14  N   UNL     1      43.901   2.550  12.349  0.00  0.00    +0.000 NA
ATOM     15  C   UNL     1      43.363   3.630  11.493  0.00  0.00    +0.000 C 
ATOM     16  H   UNL     1      43.433   2.476  13.254  0.00  0.00    +0.000 HD
ENDBRANCH  11  12
ENDBRANCH   9  11
ENDBRANCH   1   4
BRANCH   1  17
ATOM     17  C   UNL     1      49.480   8.478  13.764  0.00  0.00    +0.000 C 
BRANCH  17  22
ATOM     18  C   UNL     1      48.281   4.625  16.907  0.00  0.00    +0.000 A 
ATOM     19  C   UNL     1      47.576   5.140  15.826  0.00  0.00    +0.000 A 
ATOM     20  C   UNL     1      48.181   6.097  15.010  0.00  0.00    +0.000 A 
ATOM     21  C   UNL     1      49.474   6.529  15.292  0.00  0.00    +0.000 A 
ATOM     22  N   UNL     1      50.174   7.388  14.466  0.00  0.00    +0.000 N 
ATOM     23  N   UNL     1      50.155   6.064  16.356  0.00  0.00    +0.000 NA
ATOM     24  C   UNL     1      49.548   5.136  17.149  0.00  0.00    +0.000 A 
ATOM     25  H   UNL     1      51.046   7.643  14.927  0.00  0.00    +0.000 HD
BRANCH  18  27
ATOM     26  N   UNL     1      48.382   3.375  18.982  0.00  0.00    +0.000 N 
ATOM     27  C   UNL     1      47.737   3.577  17.792  0.00  0.00    +0.000 C 
ATOM     28  O   UNL     1      46.733   2.945  17.495  0.00  0.00    +0.000 OA
ATOM     29  H   UNL     1      47.935   2.737  19.631  0.00  0.00    +0.000 HD
ATOM     30  H   UNL     1      49.036   4.039  19.365  0.00  0.00    +0.000 HD
ENDBRANCH  18  27
ENDBRANCH  17  22
ENDBRANCH   1  17
TORSDOF 6
ENDMDL
MODEL 9
REMARK VINA RESULT:    -6.891      2.224      8.006
REMARK INTER + INTRA:         -10.132
REMARK INTER:                  -9.515
REMARK INTRA:                  -0.618
REMARK UNBOUND:                -0.824
REMARK  Name = 
REMARK  6 active torsions:
REMARK  status: ('A' for Active; 'I' for Inactive)
REMARK    1  A    between atoms: C_2  and  C_4
REMARK    2  A    between atoms: N_8  and  C_9
REMARK    3  A    between atoms: C_9  and  C_10
REMARK    4  A    between atoms: C_10  and  C_13
REMARK    5  A    between atoms: C_18  and  O_19
REMARK    6  A    between atoms: O_19  and  C_20
REMARK                            x       y       z     vdW  Elec       q    Type
REMARK                         _______ _______ _______ _____ _____    ______ ____
ROOT
ATOM      1  C   UNL     1      46.572   7.094  12.429  0.00  0.00    +0.000 C 
ATOM      2  F   UNL     1      46.071   8.030  13.293  0.00  0.00    +0.000 F 
ATOM      3  F   UNL     1      47.295   7.804  11.512  0.00  0.00    +0.000 F 
ENDROOT
BRANCH   1   4
ATOM      4  C   UNL     1      45.467   6.296  11.758  0.00  0.00    +0.000 A 
ATOM      5  C   UNL     1      44.191   6.230  12.338  0.00  0.00    +0.000 A 
ATOM      6  C   UNL     1      43.185   5.506  11.712  0.00  0.00    +0.000 A 
ATOM      7  F   UNL     1      41.972   5.444  12.278  0.00  0.00    +0.000 F 
ATOM      8  C   UNL     1      43.414   4.846  10.512  0.00  0.00    +0.000 A 
ATOM      9  C   UNL     1      44.671   4.913   9.911  0.00  0.00    +0.000 A 
ATOM     10  C   UNL     1      45.701   5.621  10.538  0.00  0.00    +0.000 A 
BRANCH   9  11
ATOM     11  O   UNL     1      44.782   4.224   8.728  0.00  0.00    +0.000 OA
BRANCH  11  12
ATOM     12  C   UNL     1      45.985   3.474   8.448  0.00  0.00    +0.000 C 
ATOM     13  C   UNL     1      46.339   3.176   6.974  0.00  0.00    +0.000 C 
ATOM     14  N   UNL     1      46.690   1.788   7.354  0.00  0.00    +0.000 NA
ATOM     15  C   UNL     1      45.839   1.935   8.556  0.00  0.00    +0.000 C 
ATOM     16  H   UNL     1      47.679   1.658   7.569  0.00  0.00    +0.000 HD
ENDBRANCH  11  12
ENDBRANCH   9  11
ENDBRANCH   1   4
BRANCH   1  17
ATOM     17  C   UNL     1      47.537   6.175  13.226  0.00  0.00    +0.000 C 
BRANCH  17  22
ATOM     18  C   UNL     1      48.716   4.520  17.920  0.00  0.00    +0.000 A 
ATOM     19  C   UNL     1      49.117   5.676  17.260  0.00  0.00    +0.000 A 
ATOM     20  C   UNL     1      48.534   5.999  16.034  0.00  0.00    +0.000 A 
ATOM     21  C   UNL     1      47.568   5.160  15.485  0.00  0.00    +0.000 A 
ATOM     22  N   UNL     1      46.871   5.472  14.333  0.00  0.00    +0.000 N 
ATOM     23  N   UNL     1      47.196   4.020  16.097  0.00  0.00    +0.000 NA
ATOM     24  C   UNL     1      47.780   3.714  17.290  0.00  0.00    +0.000 A 
ATOM     25  H   UNL     1      46.303   4.669  14.070  0.00  0.00    +0.000 HD
BRANCH  18  27
ATOM     26  N   UNL     1      48.352   3.599  20.133  0.00  0.00    +0.000 N 
ATOM     27  C   UNL     1      49.245   4.129  19.240  0.00  0.00    +0.000 C 
ATOM     28  O   UNL     1      50.433   4.236  19.513  0.00  0.00    +0.000 OA
ATOM     29  H   UNL     1      48.744   3.228  20.991  0.00  0.00    +0.000 HD
ATOM     30  H   UNL     1      47.444   3.263  19.857  0.00  0.00    +0.000 HD
ENDBRANCH  18  27
ENDBRANCH  17  22
ENDBRANCH   1  17
TORSDOF 6
ENDMDL
