MODEL 1
REMARK VINA RESULT:    -8.118      0.000      0.000
REMARK INTER + INTRA:         -12.707
REMARK INTER:                 -11.441
REMARK INTRA:                  -1.267
REMARK UNBOUND:                -1.267
REMARK  Name = 
REMARK  8 active torsions:
REMARK  status: ('A' for Active; 'I' for Inactive)
REMARK    1  A    between atoms: C_1  and  C_2
REMARK    2  A    between atoms: C_2  and  C_3
REMARK    3  A    between atoms: C_7  and  C_8
REMARK    4  A    between atoms: C_8  and  C_9
REMARK    5  A    between atoms: C_9  and  N_10
REMARK    6  A    between atoms: N_10  and  C_11
REMARK    7  A    between atoms: C_14  and  C_15
REMARK    8  A    between atoms: C_23  and  C_24
REMARK                            x       y       z     vdW  Elec       q    Type
REMARK                         _______ _______ _______ _____ _____    ______ ____
ROOT
ATOM      1  C   UNL     1      46.774   7.054  12.878  0.00  0.00    +0.000 A 
ATOM      2  C   UNL     1      46.197   8.016  12.038  0.00  0.00    +0.000 A 
ATOM      3  C   UNL     1      44.917   7.828  11.512  0.00  0.00    +0.000 A 
ATOM      4  C   UNL     1      44.192   6.669  11.798  0.00  0.00    +0.000 A 
ATOM      5  C   UNL     1      44.740   5.680  12.620  0.00  0.00    +0.000 A 
ATOM      6  C   UNL     1      46.018   5.906  13.163  0.00  0.00    +0.000 A 
ENDROOT
BRANCH   1   8
ATOM      7  C   UNL     1      49.215   7.218  12.292  0.00  0.00    +0.000 C 
ATOM      8  C   UNL     1      48.192   7.207  13.434  0.00  0.00    +0.000 C 
ATOM      9  C   UNL     1      48.320   8.412  14.323  0.00  0.00    +0.000 C 
ATOM     10  C   UNL     1      48.675   8.093  15.566  0.00  0.00    +0.000 C 
ATOM     11  C   UNL     1      48.807   6.635  15.507  0.00  0.00    +0.000 C 
ATOM     12  N   UNL     1      48.576   6.082  14.340  0.00  0.00    +0.000 NA
BRANCH  11  13
ATOM     13  C   UNL     1      49.194   5.858  16.754  0.00  0.00    +0.000 C 
ATOM     14  F   UNL     1      48.661   6.390  17.890  0.00  0.00    +0.000 F 
ATOM     15  F   UNL     1      48.772   4.563  16.706  0.00  0.00    +0.000 F 
ATOM     16  F   UNL     1      50.540   5.820  16.947  0.00  0.00    +0.000 F 
ENDBRANCH  11  13
ENDBRANCH   1   8
BRANCH   5  17
ATOM     17  C   UNL     1      43.971   4.390  12.869  0.00  0.00    +0.000 C 
BRANCH  17  18
ATOM     18  C   UNL     1      44.352   3.265  11.898  0.00  0.00    +0.000 C 
BRANCH  18  19
ATOM     19  N   UNL     1      43.730   3.381  10.577  0.00  0.00    +0.000 N 
ATOM     20  H   UNL     1      43.213   4.253  10.473  0.00  0.00    +0.000 HD
BRANCH  19  21
ATOM     21  C   UNL     1      44.620   3.185   9.495  0.00  0.00    +0.000 A 
ATOM     22  C   UNL     1      45.166   4.239   8.750  0.00  0.00    +0.000 A 
ATOM     23  C   UNL     1      46.097   3.999   7.742  0.00  0.00    +0.000 A 
ATOM     24  C   UNL     1      46.495   2.692   7.521  0.00  0.00    +0.000 A 
ATOM     25  N   UNL     1      46.029   1.628   8.229  0.00  0.00    +0.000 NA
ATOM     26  C   UNL     1      45.122   1.912   9.201  0.00  0.00    +0.000 A 
BRANCH  24  27
ATOM     27  C   UNL     1      47.523   2.411   6.471  0.00  0.00    +0.000 C 
ATOM     28  N   UNL     1      47.497   3.244   5.387  0.00  0.00    +0.000 N 
ATOM     29  O   UNL     1      48.335   1.497   6.558  0.00  0.00    +0.000 OA
ATOM     30  H   UNL     1      46.789   3.969   5.333  0.00  0.00    +0.000 HD
ATOM     31  H   UNL     1      48.134   3.083   4.619  0.00  0.00    +0.000 HD
ENDBRANCH  24  27
ENDBRANCH  19  21
ENDBRANCH  18  19
ENDBRANCH  17  18
ENDBRANCH   5  17
TORSDOF 7
ENDMDL
MODEL 2
REMARK VINA RESULT:    -7.952      2.548      3.242
REMARK INTER + INTRA:         -12.474
REMARK INTER:                 -11.167
REMARK INTRA:                  -1.307
REMARK UNBOUND:                -1.267
REMARK  Name = 
REMARK  8 active torsions:
REMARK  status: ('A' for Active; 'I' for Inactive)
REMARK    1  A    between atoms: C_1  and  C_2
REMARK    2  A    between atoms: C_2  and  C_3
REMARK    3  A    between atoms: C_7  and  C_8
REMARK    4  A    between atoms: C_8  and  C_9
REMARK    5  A    between atoms: C_9  and  N_10
REMARK    6  A    between atoms: N_10  and  C_11
REMARK    7  A    between atoms: C_14  and  C_15
REMARK    8  A    between atoms: C_23  and  C_24
REMARK                            x       y       z     vdW  Elec       q    Type
REMARK                         _______ _______ _______ _____ _____    ______ ____
ROOT
ATOM      1  C   UNL     1      46.979   6.893  12.902  0.00  0.00    +0.000 A 
ATOM      2  C   UNL     1      47.509   5.842  13.662  0.00  0.00    +0.000 A 
ATOM      3  C   UNL     1      46.748   4.701  13.929  0.00  0.00    +0.000 A 
ATOM      4  C   UNL     1      45.436   4.594  13.460  0.00  0.00    +0.000 A 
ATOM      5  C   UNL     1      44.868   5.628  12.711  0.00  0.00    +0.000 A 
ATOM      6  C   UNL     1      45.665   6.753  12.429  0.00  0.00    +0.000 A 
ENDROOT
BRANCH   1   8
ATOM      7  C   UNL     1      46.817   9.315  12.240  0.00  0.00    +0.000 C 
ATOM      8  C   UNL     1      47.768   8.176  12.628  0.00  0.00    +0.000 C 
ATOM      9  C   UNL     1      48.655   8.547  13.784  0.00  0.00    +0.000 C 
ATOM     10  C   UNL     1      49.944   8.577  13.448  0.00  0.00    +0.000 C 
ATOM     11  C   UNL     1      49.920   8.234  12.023  0.00  0.00    +0.000 C 
ATOM     12  N   UNL     1      48.736   8.024  11.500  0.00  0.00    +0.000 NA
BRANCH  11  13
ATOM     13  C   UNL     1      51.222   8.144  11.244  0.00  0.00    +0.000 C 
ATOM     14  F   UNL     1      51.421   9.220  10.431  0.00  0.00    +0.000 F 
ATOM     15  F   UNL     1      52.309   8.080  12.063  0.00  0.00    +0.000 F 
ATOM     16  F   UNL     1      51.273   7.047  10.441  0.00  0.00    +0.000 F 
ENDBRANCH  11  13
ENDBRANCH   1   8
BRANCH   5  17
ATOM     17  C   UNL     1      43.416   5.531  12.266  0.00  0.00    +0.000 C 
BRANCH  17  18
ATOM     18  C   UNL     1      43.259   4.998  10.836  0.00  0.00    +0.000 C 
BRANCH  18  19
ATOM     19  N   UNL     1      43.649   3.595  10.676  0.00  0.00    +0.000 N 
ATOM     20  H   UNL     1      42.842   2.978  10.617  0.00  0.00    +0.000 HD
BRANCH  19  21
ATOM     21  C   UNL     1      44.549   3.359   9.611  0.00  0.00    +0.000 A 
ATOM     22  C   UNL     1      45.200   4.387   8.914  0.00  0.00    +0.000 A 
ATOM     23  C   UNL     1      46.136   4.103   7.922  0.00  0.00    +0.000 A 
ATOM     24  C   UNL     1      46.431   2.775   7.668  0.00  0.00    +0.000 A 
ATOM     25  N   UNL     1      45.861   1.731   8.329  0.00  0.00    +0.000 NA
ATOM     26  C   UNL     1      44.953   2.059   9.287  0.00  0.00    +0.000 A 
BRANCH  24  27
ATOM     27  C   UNL     1      47.461   2.442   6.635  0.00  0.00    +0.000 C 
ATOM     28  N   UNL     1      47.328   3.097   5.442  0.00  0.00    +0.000 N 
ATOM     29  O   UNL     1      48.363   1.635   6.826  0.00  0.00    +0.000 OA
ATOM     30  H   UNL     1      46.549   3.733   5.308  0.00  0.00    +0.000 HD
ATOM     31  H   UNL     1      47.962   2.886   4.684  0.00  0.00    +0.000 HD
ENDBRANCH  24  27
ENDBRANCH  19  21
ENDBRANCH  18  19
ENDBRANCH  17  18
ENDBRANCH   5  17
TORSDOF 7
ENDMDL
MODEL 3
REMARK VINA RESULT:    -7.361      1.623      2.494
REMARK INTER + INTRA:         -11.640
REMARK INTER:                 -10.570
REMARK INTRA:                  -1.069
REMARK UNBOUND:                -1.267
REMARK  Name = 
REMARK  8 active torsions:
REMARK  status: ('A' for Active; 'I' for Inactive)
REMARK    1  A    between atoms: C_1  and  C_2
REMARK    2  A    between atoms: C_2  and  C_3
REMARK    3  A    between atoms: C_7  and  C_8
REMARK    4  A    between atoms: C_8  and  C_9
REMARK    5  A    between atoms: C_9  and  N_10
REMARK    6  A    between atoms: N_10  and  C_11
REMARK    7  A    between atoms: C_14  and  C_15
REMARK    8  A    between atoms: C_23  and  C_24
REMARK                            x       y       z     vdW  Elec       q    Type
REMARK                         _______ _______ _______ _____ _____    ______ ____
ROOT
ATOM      1  C   UNL     1      47.995   6.260  14.474  0.00  0.00    +0.000 A 
ATOM      2  C   UNL     1      48.260   7.296  13.569  0.00  0.00    +0.000 A 
ATOM      3  C   UNL     1      47.582   7.369  12.349  0.00  0.00    +0.000 A 
ATOM      4  C   UNL     1      46.640   6.399  11.999  0.00  0.00    +0.000 A 
ATOM      5  C   UNL     1      46.359   5.341  12.869  0.00  0.00    +0.000 A 
ATOM      6  C   UNL     1      47.032   5.307  14.105  0.00  0.00    +0.000 A 
ENDROOT
BRANCH   1   8
ATOM      7  C   UNL     1      49.969   7.056  15.815  0.00  0.00    +0.000 C 
ATOM      8  C   UNL     1      48.751   6.124  15.798  0.00  0.00    +0.000 C 
ATOM      9  C   UNL     1      47.853   6.343  16.983  0.00  0.00    +0.000 C 
ATOM     10  C   UNL     1      47.787   5.276  17.777  0.00  0.00    +0.000 C 
ATOM     11  C   UNL     1      48.680   4.319  17.117  0.00  0.00    +0.000 C 
ATOM     12  N   UNL     1      49.269   4.740  16.023  0.00  0.00    +0.000 NA
BRANCH  11  13
ATOM     13  C   UNL     1      48.880   2.935  17.711  0.00  0.00    +0.000 C 
ATOM     14  F   UNL     1      48.527   1.939  16.850  0.00  0.00    +0.000 F 
ATOM     15  F   UNL     1      50.179   2.703  18.050  0.00  0.00    +0.000 F 
ATOM     16  F   UNL     1      48.143   2.741  18.838  0.00  0.00    +0.000 F 
ENDBRANCH  11  13
ENDBRANCH   1   8
BRANCH   5  17
ATOM     17  C   UNL     1      45.383   4.252  12.448  0.00  0.00    +0.000 C 
BRANCH  17  18
ATOM     18  C   UNL     1      44.180   4.792  11.665  0.00  0.00    +0.000 C 
BRANCH  18  19
ATOM     19  N   UNL     1      43.678   3.877  10.637  0.00  0.00    +0.000 N 
ATOM     20  H   UNL     1      42.846   4.239  10.175  0.00  0.00    +0.000 HD
BRANCH  19  21
ATOM     21  C   UNL     1      44.651   3.474   9.692  0.00  0.00    +0.000 A 
ATOM     22  C   UNL     1      44.958   2.132   9.431  0.00  0.00    +0.000 A 
ATOM     23  C   UNL     1      45.869   1.783   8.437  0.00  0.00    +0.000 A 
ATOM     24  C   UNL     1      46.438   2.800   7.689  0.00  0.00    +0.000 A 
ATOM     25  N   UNL     1      46.159   4.119   7.869  0.00  0.00    +0.000 NA
ATOM     26  C   UNL     1      45.265   4.409   8.851  0.00  0.00    +0.000 A 
BRANCH  24  27
ATOM     27  C   UNL     1      47.390   2.451   6.589  0.00  0.00    +0.000 C 
ATOM     28  N   UNL     1      47.272   3.201   5.452  0.00  0.00    +0.000 N 
ATOM     29  O   UNL     1      48.219   1.553   6.682  0.00  0.00    +0.000 OA
ATOM     30  H   UNL     1      46.551   3.914   5.398  0.00  0.00    +0.000 HD
ATOM     31  H   UNL     1      47.853   2.989   4.653  0.00  0.00    +0.000 HD
ENDBRANCH  24  27
ENDBRANCH  19  21
ENDBRANCH  18  19
ENDBRANCH  17  18
ENDBRANCH   5  17
TORSDOF 7
ENDMDL
MODEL 4
REMARK VINA RESULT:    -6.963      2.985      5.059
REMARK INTER + INTRA:         -11.080
REMARK INTER:                  -9.634
REMARK INTRA:                  -1.446
REMARK UNBOUND:                -1.267
REMARK  Name = 
REMARK  8 active torsions:
REMARK  status: ('A' for Active; 'I' for Inactive)
REMARK    1  A    between atoms: C_1  and  C_2
REMARK    2  A    between atoms: C_2  and  C_3
REMARK    3  A    between atoms: C_7  and  C_8
REMARK    4  A    between atoms: C_8  and  C_9
REMARK    5  A    between atoms: C_9  and  N_10
REMARK    6  A    between atoms: N_10  and  C_11
REMARK    7  A    between atoms: C_14  and  C_15
REMARK    8  A    between atoms: C_23  and  C_24
REMARK                            x       y       z     vdW  Elec       q    Type
REMARK                         _______ _______ _______ _____ _____    ______ ____
ROOT
ATOM      1  C   UNL     1      50.224   7.065  15.682  0.00  0.00    +0.000 A 
ATOM      2  C   UNL     1      51.364   7.859  15.503  0.00  0.00    +0.000 A 
ATOM      3  C   UNL     1      51.557   8.574  14.318  0.00  0.00    +0.000 A 
ATOM      4  C   UNL     1      50.626   8.496  13.280  0.00  0.00    +0.000 A 
ATOM      5  C   UNL     1      49.483   7.702  13.416  0.00  0.00    +0.000 A 
ATOM      6  C   UNL     1      49.296   7.017  14.630  0.00  0.00    +0.000 A 
ENDROOT
BRANCH   1   8
ATOM      7  C   UNL     1      51.138   6.477  17.951  0.00  0.00    +0.000 C 
ATOM      8  C   UNL     1      50.004   6.234  16.949  0.00  0.00    +0.000 C 
ATOM      9  C   UNL     1      48.649   6.480  17.553  0.00  0.00    +0.000 C 
ATOM     10  C   UNL     1      47.906   5.376  17.604  0.00  0.00    +0.000 C 
ATOM     11  C   UNL     1      48.792   4.356  17.035  0.00  0.00    +0.000 C 
ATOM     12  N   UNL     1      49.984   4.765  16.674  0.00  0.00    +0.000 NA
BRANCH  11  13
ATOM     13  C   UNL     1      48.307   2.922  16.898  0.00  0.00    +0.000 C 
ATOM     14  F   UNL     1      47.784   2.662  15.666  0.00  0.00    +0.000 F 
ATOM     15  F   UNL     1      49.310   2.020  17.085  0.00  0.00    +0.000 F 
ATOM     16  F   UNL     1      47.333   2.614  17.797  0.00  0.00    +0.000 F 
ENDBRANCH  11  13
ENDBRANCH   1   8
BRANCH   5  17
ATOM     17  C   UNL     1      48.511   7.570  12.252  0.00  0.00    +0.000 C 
BRANCH  17  18
ATOM     18  C   UNL     1      47.203   8.341  12.468  0.00  0.00    +0.000 C 
BRANCH  18  19
ATOM     19  N   UNL     1      46.233   7.644  13.316  0.00  0.00    +0.000 N 
ATOM     20  H   UNL     1      45.460   8.248  13.589  0.00  0.00    +0.000 HD
BRANCH  19  21
ATOM     21  C   UNL     1      45.761   6.424  12.778  0.00  0.00    +0.000 A 
ATOM     22  C   UNL     1      45.910   5.191  13.427  0.00  0.00    +0.000 A 
ATOM     23  C   UNL     1      45.361   4.027  12.893  0.00  0.00    +0.000 A 
ATOM     24  C   UNL     1      44.633   4.129  11.721  0.00  0.00    +0.000 A 
ATOM     25  N   UNL     1      44.423   5.299  11.058  0.00  0.00    +0.000 NA
ATOM     26  C   UNL     1      44.979   6.406  11.617  0.00  0.00    +0.000 A 
BRANCH  24  27
ATOM     27  C   UNL     1      44.000   2.901  11.147  0.00  0.00    +0.000 C 
ATOM     28  N   UNL     1      44.665   2.335  10.094  0.00  0.00    +0.000 N 
ATOM     29  O   UNL     1      42.953   2.427  11.573  0.00  0.00    +0.000 OA
ATOM     30  H   UNL     1      45.511   2.775   9.746  0.00  0.00    +0.000 HD
ATOM     31  H   UNL     1      44.269   1.530   9.629  0.00  0.00    +0.000 HD
ENDBRANCH  24  27
ENDBRANCH  19  21
ENDBRANCH  18  19
ENDBRANCH  17  18
ENDBRANCH   5  17
TORSDOF 7
ENDMDL
MODEL 5
REMARK VINA RESULT:    -6.945      4.248      7.907
REMARK INTER + INTRA:         -11.054
REMARK INTER:                  -9.783
REMARK INTRA:                  -1.271
REMARK UNBOUND:                -1.267
REMARK  Name = 
REMARK  8 active torsions:
REMARK  status: ('A' for Active; 'I' for Inactive)
REMARK    1  A    between atoms: C_1  and  C_2
REMARK    2  A    between atoms: C_2  and  C_3
REMARK    3  A    between atoms: C_7  and  C_8
REMARK    4  A    between atoms: C_8  and  C_9
REMARK    5  A    between atoms: C_9  and  N_10
REMARK    6  A    between atoms: N_10  and  C_11
REMARK    7  A    between atoms: C_14  and  C_15
REMARK    8  A    between atoms: C_23  and  C_24
REMARK                            x       y       z     vdW  Elec       q    Type
REMARK                         _______ _______ _______ _____ _____    ______ ____
ROOT
ATOM      1  C   UNL     1      45.633   6.846  11.992  0.00  0.00    +0.000 A 
ATOM      2  C   UNL     1      44.845   8.004  12.047  0.00  0.00    +0.000 A 
ATOM      3  C   UNL     1      45.437   9.268  12.108  0.00  0.00    +0.000 A 
ATOM      4  C   UNL     1      46.827   9.402  12.134  0.00  0.00    +0.000 A 
ATOM      5  C   UNL     1      47.647   8.270  12.096  0.00  0.00    +0.000 A 
ATOM      6  C   UNL     1      47.027   7.010  12.003  0.00  0.00    +0.000 A 
ENDROOT
BRANCH   1   8
ATOM      7  C   UNL     1      45.209   4.756  13.327  0.00  0.00    +0.000 C 
ATOM      8  C   UNL     1      45.018   5.445  11.970  0.00  0.00    +0.000 C 
ATOM      9  C   UNL     1      43.576   5.471  11.545  0.00  0.00    +0.000 C 
ATOM     10  C   UNL     1      43.358   4.766  10.436  0.00  0.00    +0.000 C 
ATOM     11  C   UNL     1      44.687   4.236  10.117  0.00  0.00    +0.000 C 
ATOM     12  N   UNL     1      45.651   4.557  10.948  0.00  0.00    +0.000 NA
BRANCH  11  13
ATOM     13  C   UNL     1      44.881   3.367   8.886  0.00  0.00    +0.000 C 
ATOM     14  F   UNL     1      44.531   4.006   7.734  0.00  0.00    +0.000 F 
ATOM     15  F   UNL     1      46.178   2.981   8.727  0.00  0.00    +0.000 F 
ATOM     16  F   UNL     1      44.138   2.228   8.930  0.00  0.00    +0.000 F 
ENDBRANCH  11  13
ENDBRANCH   1   8
BRANCH   5  17
ATOM     17  C   UNL     1      49.157   8.425  12.197  0.00  0.00    +0.000 C 
BRANCH  17  18
ATOM     18  C   UNL     1      49.771   7.618  13.348  0.00  0.00    +0.000 C 
BRANCH  18  19
ATOM     19  N   UNL     1      49.262   7.987  14.672  0.00  0.00    +0.000 N 
ATOM     20  H   UNL     1      48.492   8.652  14.614  0.00  0.00    +0.000 HD
BRANCH  19  21
ATOM     21  C   UNL     1      48.923   6.886  15.493  0.00  0.00    +0.000 A 
ATOM     22  C   UNL     1      49.045   6.905  16.889  0.00  0.00    +0.000 A 
ATOM     23  C   UNL     1      48.627   5.823  17.661  0.00  0.00    +0.000 A 
ATOM     24  C   UNL     1      48.056   4.743  17.012  0.00  0.00    +0.000 A 
ATOM     25  N   UNL     1      47.879   4.674  15.665  0.00  0.00    +0.000 NA
ATOM     26  C   UNL     1      48.303   5.753  14.955  0.00  0.00    +0.000 A 
BRANCH  24  27
ATOM     27  C   UNL     1      47.563   3.584  17.821  0.00  0.00    +0.000 C 
ATOM     28  N   UNL     1      48.293   3.298  18.942  0.00  0.00    +0.000 N 
ATOM     29  O   UNL     1      46.580   2.922  17.510  0.00  0.00    +0.000 OA
ATOM     30  H   UNL     1      49.120   3.847  19.150  0.00  0.00    +0.000 HD
ATOM     31  H   UNL     1      48.043   2.500  19.509  0.00  0.00    +0.000 HD
ENDBRANCH  24  27
ENDBRANCH  19  21
ENDBRANCH  18  19
ENDBRANCH  17  18
ENDBRANCH   5  17
TORSDOF 7
ENDMDL
MODEL 6
REMARK VINA RESULT:    -6.936      2.619      3.221
REMARK INTER + INTRA:         -11.041
REMARK INTER:                 -10.001
REMARK INTRA:                  -1.040
REMARK UNBOUND:                -1.267
REMARK  Name = 
REMARK  8 active torsions:
REMARK  status: ('A' for Active; 'I' for Inactive)
REMARK    1  A    between atoms: C_1  and  C_2
REMARK    2  A    between atoms: C_2  and  C_3
REMARK    3  A    between atoms: C_7  and  C_8
REMARK    4  A    between atoms: C_8  and  C_9
REMARK    5  A    between atoms: C_9  and  N_10
REMARK    6  A    between atoms: N_10  and  C_11
REMARK    7  A    between atoms: C_14  and  C_15
REMARK    8  A    between atoms: C_23  and  C_24
REMARK                            x       y       z     vdW  Elec       q    Type
REMARK                         _______ _______ _______ _____ _____    ______ ____
ROOT
ATOM      1  C   UNL     1      46.463   7.364  12.502  0.00  0.00    +0.000 A 
ATOM      2  C   UNL     1      45.831   8.366  11.754  0.00  0.00    +0.000 A 
ATOM      3  C   UNL     1      44.500   8.223  11.351  0.00  0.00    +0.000 A 
ATOM      4  C   UNL     1      43.780   7.070  11.670  0.00  0.00    +0.000 A 
ATOM      5  C   UNL     1      44.382   6.042  12.401  0.00  0.00    +0.000 A 
ATOM      6  C   UNL     1      45.712   6.223  12.822  0.00  0.00    +0.000 A 
ENDROOT
BRANCH   1   8
ATOM      7  C   UNL     1      48.132   6.870  14.318  0.00  0.00    +0.000 C 
ATOM      8  C   UNL     1      47.932   7.468  12.920  0.00  0.00    +0.000 C 
ATOM      9  C   UNL     1      48.851   6.852  11.903  0.00  0.00    +0.000 C 
ATOM     10  C   UNL     1      49.714   7.732  11.397  0.00  0.00    +0.000 C 
ATOM     11  C   UNL     1      49.378   8.969  12.108  0.00  0.00    +0.000 C 
ATOM     12  N   UNL     1      48.410   8.883  12.989  0.00  0.00    +0.000 NA
BRANCH  11  13
ATOM     13  C   UNL     1      50.139  10.248  11.805  0.00  0.00    +0.000 C 
ATOM     14  F   UNL     1      49.490  11.362  12.247  0.00  0.00    +0.000 F 
ATOM     15  F   UNL     1      51.369  10.267  12.392  0.00  0.00    +0.000 F 
ATOM     16  F   UNL     1      50.342  10.431  10.472  0.00  0.00    +0.000 F 
ENDBRANCH  11  13
ENDBRANCH   1   8
BRANCH   5  17
ATOM     17  C   UNL     1      43.610   4.760  12.682  0.00  0.00    +0.000 C 
BRANCH  17  18
ATOM     18  C   UNL     1      43.750   3.716  11.567  0.00  0.00    +0.000 C 
BRANCH  18  19
ATOM     19  N   UNL     1      43.654   4.272  10.215  0.00  0.00    +0.000 N 
ATOM     20  H   UNL     1      43.680   5.290  10.217  0.00  0.00    +0.000 HD
BRANCH  19  21
ATOM     21  C   UNL     1      44.593   3.741   9.300  0.00  0.00    +0.000 A 
ATOM     22  C   UNL     1      45.406   4.541   8.484  0.00  0.00    +0.000 A 
ATOM     23  C   UNL     1      46.370   3.974   7.654  0.00  0.00    +0.000 A 
ATOM     24  C   UNL     1      46.526   2.599   7.682  0.00  0.00    +0.000 A 
ATOM     25  N   UNL     1      45.794   1.769   8.474  0.00  0.00    +0.000 NA
ATOM     26  C   UNL     1      44.866   2.369   9.265  0.00  0.00    +0.000 A 
BRANCH  24  27
ATOM     27  C   UNL     1      47.581   1.968   6.830  0.00  0.00    +0.000 C 
ATOM     28  N   UNL     1      48.311   2.833   6.063  0.00  0.00    +0.000 N 
ATOM     29  O   UNL     1      47.784   0.760   6.802  0.00  0.00    +0.000 OA
ATOM     30  H   UNL     1      48.093   3.824   6.086  0.00  0.00    +0.000 HD
ATOM     31  H   UNL     1      49.009   2.470   5.429  0.00  0.00    +0.000 HD
ENDBRANCH  24  27
ENDBRANCH  19  21
ENDBRANCH  18  19
ENDBRANCH  17  18
ENDBRANCH   5  17
TORSDOF 7
ENDMDL
MODEL 7
REMARK VINA RESULT:    -6.390      4.225      7.970
REMARK INTER + INTRA:         -10.272
REMARK INTER:                  -8.778
REMARK INTRA:                  -1.493
REMARK UNBOUND:                -1.267
REMARK  Name = 
REMARK  8 active torsions:
REMARK  status: ('A' for Active; 'I' for Inactive)
REMARK    1  A    between atoms: C_1  and  C_2
REMARK    2  A    between atoms: C_2  and  C_3
REMARK    3  A    between atoms: C_7  and  C_8
REMARK    4  A    between atoms: C_8  and  C_9
REMARK    5  A    between atoms: C_9  and  N_10
REMARK    6  A    between atoms: N_10  and  C_11
REMARK    7  A    between atoms: C_14  and  C_15
REMARK    8  A    between atoms: C_23  and  C_24
REMARK                            x       y       z     vdW  Elec       q    Type
REMARK                         _______ _______ _______ _____ _____    ______ ____
ROOT
ATOM      1  C   UNL     1      46.792   6.604  13.284  0.00  0.00    +0.000 A 
ATOM      2  C   UNL     1      46.309   7.773  12.682  0.00  0.00    +0.000 A 
ATOM      3  C   UNL     1      46.905   9.009  12.945  0.00  0.00    +0.000 A 
ATOM      4  C   UNL     1      47.983   9.107  13.828  0.00  0.00    +0.000 A 
ATOM      5  C   UNL     1      48.483   7.964  14.460  0.00  0.00    +0.000 A 
ATOM      6  C   UNL     1      47.886   6.727  14.155  0.00  0.00    +0.000 A 
ENDROOT
BRANCH   1   8
ATOM      7  C   UNL     1      46.756   4.186  13.979  0.00  0.00    +0.000 C 
ATOM      8  C   UNL     1      46.135   5.240  13.054  0.00  0.00    +0.000 C 
ATOM      9  C   UNL     1      44.640   5.307  13.193  0.00  0.00    +0.000 C 
ATOM     10  C   UNL     1      44.008   4.959  12.072  0.00  0.00    +0.000 C 
ATOM     11  C   UNL     1      45.109   4.632  11.162  0.00  0.00    +0.000 C 
ATOM     12  N   UNL     1      46.319   4.744  11.656  0.00  0.00    +0.000 NA
BRANCH  11  13
ATOM     13  C   UNL     1      44.811   4.191   9.739  0.00  0.00    +0.000 C 
ATOM     14  F   UNL     1      43.509   4.395   9.390  0.00  0.00    +0.000 F 
ATOM     15  F   UNL     1      45.561   4.865   8.823  0.00  0.00    +0.000 F 
ATOM     16  F   UNL     1      45.054   2.867   9.542  0.00  0.00    +0.000 F 
ENDBRANCH  11  13
ENDBRANCH   1   8
BRANCH   5  17
ATOM     17  C   UNL     1      49.611   8.092  15.473  0.00  0.00    +0.000 C 
BRANCH  17  18
ATOM     18  C   UNL     1      49.112   8.351  16.901  0.00  0.00    +0.000 C 
BRANCH  18  19
ATOM     19  N   UNL     1      49.830   7.594  17.929  0.00  0.00    +0.000 N 
ATOM     20  H   UNL     1      49.520   7.835  18.869  0.00  0.00    +0.000 HD
BRANCH  19  21
ATOM     21  C   UNL     1      49.819   6.193  17.734  0.00  0.00    +0.000 A 
ATOM     22  C   UNL     1      48.640   5.446  17.600  0.00  0.00    +0.000 A 
ATOM     23  C   UNL     1      48.681   4.079  17.334  0.00  0.00    +0.000 A 
ATOM     24  C   UNL     1      49.921   3.486  17.170  0.00  0.00    +0.000 A 
ATOM     25  N   UNL     1      51.101   4.158  17.254  0.00  0.00    +0.000 NA
ATOM     26  C   UNL     1      51.009   5.489  17.517  0.00  0.00    +0.000 A 
BRANCH  24  27
ATOM     27  C   UNL     1      49.993   2.027  16.844  0.00  0.00    +0.000 C 
ATOM     28  N   UNL     1      50.880   1.303  17.591  0.00  0.00    +0.000 N 
ATOM     29  O   UNL     1      49.316   1.504  15.967  0.00  0.00    +0.000 OA
ATOM     30  H   UNL     1      51.449   1.776  18.286  0.00  0.00    +0.000 HD
ATOM     31  H   UNL     1      51.013   0.321  17.393  0.00  0.00    +0.000 HD
ENDBRANCH  24  27
ENDBRANCH  19  21
ENDBRANCH  18  19
ENDBRANCH  17  18
ENDBRANCH   5  17
TORSDOF 7
ENDMDL
MODEL 8
REMARK VINA RESULT:    -6.144      4.324      8.028
REMARK INTER + INTRA:          -9.925
REMARK INTER:                  -7.950
REMARK INTRA:                  -1.974
REMARK UNBOUND:                -1.267
REMARK  Name = 
REMARK  8 active torsions:
REMARK  status: ('A' for Active; 'I' for Inactive)
REMARK    1  A    between atoms: C_1  and  C_2
REMARK    2  A    between atoms: C_2  and  C_3
REMARK    3  A    between atoms: C_7  and  C_8
REMARK    4  A    between atoms: C_8  and  C_9
REMARK    5  A    between atoms: C_9  and  N_10
REMARK    6  A    between atoms: N_10  and  C_11
REMARK    7  A    between atoms: C_14  and  C_15
REMARK    8  A    between atoms: C_23  and  C_24
REMARK                            x       y       z     vdW  Elec       q    Type
REMARK                         _______ _______ _______ _____ _____    ______ ____
ROOT
ATOM      1  C   UNL     1      47.006   7.889  12.227  0.00  0.00    +0.000 A 
ATOM      2  C   UNL     1      46.263   9.072  12.332  0.00  0.00    +0.000 A 
ATOM      3  C   UNL     1      46.863  10.314  12.103  0.00  0.00    +0.000 A 
ATOM      4  C   UNL     1      48.219  10.401  11.782  0.00  0.00    +0.000 A 
ATOM      5  C   UNL     1      48.997   9.243  11.683  0.00  0.00    +0.000 A 
ATOM      6  C   UNL     1      48.363   8.004  11.888  0.00  0.00    +0.000 A 
ENDROOT
BRANCH   1   8
ATOM      7  C   UNL     1      47.164   5.813  13.639  0.00  0.00    +0.000 C 
ATOM      8  C   UNL     1      46.393   6.516  12.515  0.00  0.00    +0.000 C 
ATOM      9  C   UNL     1      44.921   6.609  12.808  0.00  0.00    +0.000 C 
ATOM     10  C   UNL     1      44.184   5.920  11.938  0.00  0.00    +0.000 C 
ATOM     11  C   UNL     1      45.189   5.334  11.047  0.00  0.00    +0.000 C 
ATOM     12  N   UNL     1      46.441   5.607  11.330  0.00  0.00    +0.000 NA
BRANCH  11  13
ATOM     13  C   UNL     1      44.753   4.464   9.880  0.00  0.00    +0.000 C 
ATOM     14  F   UNL     1      43.420   4.573   9.616  0.00  0.00    +0.000 F 
ATOM     15  F   UNL     1      45.398   4.790   8.725  0.00  0.00    +0.000 F 
ATOM     16  F   UNL     1      44.989   3.142  10.099  0.00  0.00    +0.000 F 
ENDBRANCH  11  13
ENDBRANCH   1   8
BRANCH   5  17
ATOM     17  C   UNL     1      50.489   9.355  11.403  0.00  0.00    +0.000 C 
BRANCH  17  18
ATOM     18  C   UNL     1      51.359   8.880  12.574  0.00  0.00    +0.000 C 
BRANCH  18  19
ATOM     19  N   UNL     1      51.068   9.551  13.843  0.00  0.00    +0.000 N 
ATOM     20  H   UNL     1      50.557  10.422  13.707  0.00  0.00    +0.000 HD
BRANCH  19  21
ATOM     21  C   UNL     1      50.429   8.730  14.802  0.00  0.00    +0.000 A 
ATOM     22  C   UNL     1      49.233   9.086  15.441  0.00  0.00    +0.000 A 
ATOM     23  C   UNL     1      48.602   8.211  16.322  0.00  0.00    +0.000 A 
ATOM     24  C   UNL     1      49.171   6.965  16.522  0.00  0.00    +0.000 A 
ATOM     25  N   UNL     1      50.311   6.545  15.909  0.00  0.00    +0.000 NA
ATOM     26  C   UNL     1      50.891   7.435  15.060  0.00  0.00    +0.000 A 
BRANCH  24  27
ATOM     27  C   UNL     1      48.492   5.992  17.433  0.00  0.00    +0.000 C 
ATOM     28  N   UNL     1      47.543   6.526  18.260  0.00  0.00    +0.000 N 
ATOM     29  O   UNL     1      48.762   4.797  17.455  0.00  0.00    +0.000 OA
ATOM     30  H   UNL     1      47.370   7.525  18.239  0.00  0.00    +0.000 HD
ATOM     31  H   UNL     1      47.078   5.933  18.933  0.00  0.00    +0.000 HD
ENDBRANCH  24  27
ENDBRANCH  19  21
ENDBRANCH  18  19
ENDBRANCH  17  18
ENDBRANCH   5  17
TORSDOF 7
ENDMDL
MODEL 9
REMARK VINA RESULT:    -5.649      3.021      4.874
REMARK INTER + INTRA:          -9.228
REMARK INTER:                  -7.994
REMARK INTRA:                  -1.233
REMARK UNBOUND:                -1.267
REMARK  Name = 
REMARK  8 active torsions:
REMARK  status: ('A' for Active; 'I' for Inactive)
REMARK    1  A    between atoms: C_1  and  C_2
REMARK    2  A    between atoms: C_2  and  C_3
REMARK    3  A    between atoms: C_7  and  C_8
REMARK    4  A    between atoms: C_8  and  C_9
REMARK    5  A    between atoms: C_9  and  N_10
REMARK    6  A    between atoms: N_10  and  C_11
REMARK    7  A    between atoms: C_14  and  C_15
REMARK    8  A    between atoms: C_23  and  C_24
REMARK                            x       y       z     vdW  Elec       q    Type
REMARK                         _______ _______ _______ _____ _____    ______ ____
ROOT
ATOM      1  C   UNL     1      50.777   8.182  14.210  0.00  0.00    +0.000 A 
ATOM      2  C   UNL     1      51.779   8.497  13.283  0.00  0.00    +0.000 A 
ATOM      3  C   UNL     1      51.450   8.976  12.012  0.00  0.00    +0.000 A 
ATOM      4  C   UNL     1      50.115   9.133  11.634  0.00  0.00    +0.000 A 
ATOM      5  C   UNL     1      49.087   8.815  12.527  0.00  0.00    +0.000 A 
ATOM      6  C   UNL     1      49.444   8.364  13.811  0.00  0.00    +0.000 A 
ENDROOT
BRANCH   1   8
ATOM      7  C   UNL     1      52.581   7.220  15.677  0.00  0.00    +0.000 C 
ATOM      8  C   UNL     1      51.101   7.612  15.594  0.00  0.00    +0.000 C 
ATOM      9  C   UNL     1      50.700   8.552  16.696  0.00  0.00    +0.000 C 
ATOM     10  C   UNL     1      49.796   8.020  17.517  0.00  0.00    +0.000 C 
ATOM     11  C   UNL     1      49.598   6.678  16.961  0.00  0.00    +0.000 C 
ATOM     12  N   UNL     1      50.315   6.379  15.904  0.00  0.00    +0.000 NA
BRANCH  11  13
ATOM     13  C   UNL     1      48.609   5.726  17.614  0.00  0.00    +0.000 C 
ATOM     14  F   UNL     1      49.204   4.880  18.502  0.00  0.00    +0.000 F 
ATOM     15  F   UNL     1      47.640   6.387  18.308  0.00  0.00    +0.000 F 
ATOM     16  F   UNL     1      47.970   4.938  16.708  0.00  0.00    +0.000 F 
ENDBRANCH  11  13
ENDBRANCH   1   8
BRANCH   5  17
ATOM     17  C   UNL     1      47.636   8.923  12.080  0.00  0.00    +0.000 C 
BRANCH  17  18
ATOM     18  C   UNL     1      46.635   8.671  13.216  0.00  0.00    +0.000 C 
BRANCH  18  19
ATOM     19  N   UNL     1      45.274   8.383  12.757  0.00  0.00    +0.000 N 
ATOM     20  H   UNL     1      45.004   8.967  11.968  0.00  0.00    +0.000 HD
BRANCH  19  21
ATOM     21  C   UNL     1      45.029   7.016  12.485  0.00  0.00    +0.000 A 
ATOM     22  C   UNL     1      45.586   5.972  13.237  0.00  0.00    +0.000 A 
ATOM     23  C   UNL     1      45.255   4.644  12.979  0.00  0.00    +0.000 A 
ATOM     24  C   UNL     1      44.333   4.386  11.980  0.00  0.00    +0.000 A 
ATOM     25  N   UNL     1      43.730   5.353  11.236  0.00  0.00    +0.000 NA
ATOM     26  C   UNL     1      44.087   6.633  11.524  0.00  0.00    +0.000 A 
BRANCH  24  27
ATOM     27  C   UNL     1      43.929   2.972  11.707  0.00  0.00    +0.000 C 
ATOM     28  N   UNL     1      44.198   2.518  10.446  0.00  0.00    +0.000 N 
ATOM     29  O   UNL     1      43.388   2.258  12.543  0.00  0.00    +0.000 OA
ATOM     30  H   UNL     1      44.617   3.147   9.769  0.00  0.00    +0.000 HD
ATOM     31  H   UNL     1      43.911   1.586  10.179  0.00  0.00    +0.000 HD
ENDBRANCH  24  27
ENDBRANCH  19  21
ENDBRANCH  18  19
ENDBRANCH  17  18
ENDBRANCH   5  17
TORSDOF 7
ENDMDL
