MODEL 1
REMARK VINA RESULT:    -7.801      0.000      0.000
REMARK INTER + INTRA:         -10.608
REMARK INTER:                 -10.081
REMARK INTRA:                  -0.527
REMARK UNBOUND:                -0.527
REMARK  Name = 
REMARK  6 active torsions:
REMARK  status: ('A' for Active; 'I' for Inactive)
REMARK    1  A    between atoms: C_1  and  C_2
REMARK    2  A    between atoms: C_2  and  C_3
REMARK    3  A    between atoms: C_6  and  C_7
REMARK    4  A    between atoms: C_7  and  O_8
REMARK    5  A    between atoms: O_8  and  C_9
REMARK    6  A    between atoms: C_12  and  C_13
REMARK                            x       y       z     vdW  Elec       q    Type
REMARK                         _______ _______ _______ _____ _____    ______ ____
ROOT
ATOM      1  C   UNL     1      45.204   5.487  11.906  0.00  0.00    +0.000 A 
ATOM      2  C   UNL     1      44.601   4.643  12.837  0.00  0.00    +0.000 A 
ATOM      3  N   UNL     1      45.240   4.185  13.951  0.00  0.00    +0.000 NA
ATOM      4  C   UNL     1      46.525   4.622  14.082  0.00  0.00    +0.000 A 
ATOM      5  C   UNL     1      47.124   5.468  13.161  0.00  0.00    +0.000 A 
ATOM      6  N   UNL     1      46.476   5.921  12.058  0.00  0.00    +0.000 NA
ENDROOT
BRANCH   4   7
ATOM      7  C   UNL     1      47.320   4.158  15.254  0.00  0.00    +0.000 C 
ATOM      8  N   UNL     1      47.470   5.043  16.285  0.00  0.00    +0.000 N 
ATOM      9  O   UNL     1      47.813   3.039  15.297  0.00  0.00    +0.000 OA
ATOM     10  H   UNL     1      47.049   5.964  16.242  0.00  0.00    +0.000 HD
ATOM     11  H   UNL     1      47.988   4.758  17.102  0.00  0.00    +0.000 HD
ENDBRANCH   4   7
BRANCH   1  12
ATOM     12  O   UNL     1      44.480   5.873  10.796  0.00  0.00    +0.000 OA
BRANCH  12  13
ATOM     13  C   UNL     1      43.769   4.771  10.212  0.00  0.00    +0.000 C 
BRANCH  13  17
ATOM     14  C   UNL     1      46.390   2.320   7.766  0.00  0.00    +0.000 A 
ATOM     15  C   UNL     1      46.379   3.712   7.613  0.00  0.00    +0.000 A 
ATOM     16  C   UNL     1      45.521   4.511   8.378  0.00  0.00    +0.000 A 
ATOM     17  C   UNL     1      44.652   3.934   9.310  0.00  0.00    +0.000 A 
ATOM     18  C   UNL     1      44.674   2.538   9.470  0.00  0.00    +0.000 A 
ATOM     19  C   UNL     1      45.531   1.740   8.706  0.00  0.00    +0.000 A 
BRANCH  14  21
ATOM     20  C   UNL     1      47.879   2.204   5.728  0.00  0.00    +0.000 C 
ATOM     21  C   UNL     1      47.318   1.469   6.935  0.00  0.00    +0.000 C 
ENDBRANCH  14  21
ENDBRANCH  13  17
ENDBRANCH  12  13
ENDBRANCH   1  12
TORSDOF 5
ENDMDL
MODEL 2
REMARK VINA RESULT:    -7.561      1.287      1.915
REMARK INTER + INTRA:         -10.298
REMARK INTER:                  -9.774
REMARK INTRA:                  -0.524
REMARK UNBOUND:                -0.527
REMARK  Name = 
REMARK  6 active torsions:
REMARK  status: ('A' for Active; 'I' for Inactive)
REMARK    1  A    between atoms: C_1  and  C_2
REMARK    2  A    between atoms: C_2  and  C_3
REMARK    3  A    between atoms: C_6  and  C_7
REMARK    4  A    between atoms: C_7  and  O_8
REMARK    5  A    between atoms: O_8  and  C_9
REMARK    6  A    between atoms: C_12  and  C_13
REMARK                            x       y       z     vdW  Elec       q    Type
REMARK                         _______ _______ _______ _____ _____    ______ ____
ROOT
ATOM      1  C   UNL     1      44.790   4.235  12.319  0.00  0.00    +0.000 A 
ATOM      2  C   UNL     1      44.937   5.618  12.406  0.00  0.00    +0.000 A 
ATOM      3  N   UNL     1      45.945   6.219  13.099  0.00  0.00    +0.000 NA
ATOM      4  C   UNL     1      46.804   5.351  13.707  0.00  0.00    +0.000 A 
ATOM      5  C   UNL     1      46.664   3.975  13.614  0.00  0.00    +0.000 A 
ATOM      6  N   UNL     1      45.659   3.389  12.917  0.00  0.00    +0.000 NA
ENDROOT
BRANCH   4   7
ATOM      7  C   UNL     1      47.928   5.907  14.512  0.00  0.00    +0.000 C 
ATOM      8  N   UNL     1      47.890   5.683  15.860  0.00  0.00    +0.000 N 
ATOM      9  O   UNL     1      48.846   6.531  13.995  0.00  0.00    +0.000 OA
ATOM     10  H   UNL     1      47.129   5.156  16.275  0.00  0.00    +0.000 HD
ATOM     11  H   UNL     1      48.642   6.031  16.435  0.00  0.00    +0.000 HD
ENDBRANCH   4   7
BRANCH   1  12
ATOM     12  O   UNL     1      43.718   3.727  11.614  0.00  0.00    +0.000 OA
BRANCH  12  13
ATOM     13  C   UNL     1      43.676   4.228  10.269  0.00  0.00    +0.000 C 
BRANCH  13  17
ATOM     14  C   UNL     1      46.587   2.431   7.594  0.00  0.00    +0.000 A 
ATOM     15  C   UNL     1      45.815   1.626   8.443  0.00  0.00    +0.000 A 
ATOM     16  C   UNL     1      44.892   2.194   9.326  0.00  0.00    +0.000 A 
ATOM     17  C   UNL     1      44.722   3.582   9.384  0.00  0.00    +0.000 A 
ATOM     18  C   UNL     1      45.489   4.386   8.524  0.00  0.00    +0.000 A 
ATOM     19  C   UNL     1      46.411   3.818   7.640  0.00  0.00    +0.000 A 
BRANCH  14  21
ATOM     20  C   UNL     1      47.613   2.486   5.286  0.00  0.00    +0.000 C 
ATOM     21  C   UNL     1      47.580   1.807   6.646  0.00  0.00    +0.000 C 
ENDBRANCH  14  21
ENDBRANCH  13  17
ENDBRANCH  12  13
ENDBRANCH   1  12
TORSDOF 5
ENDMDL
MODEL 3
REMARK VINA RESULT:    -7.481      3.177      6.198
REMARK INTER + INTRA:         -10.194
REMARK INTER:                  -9.736
REMARK INTRA:                  -0.459
REMARK UNBOUND:                -0.527
REMARK  Name = 
REMARK  6 active torsions:
REMARK  status: ('A' for Active; 'I' for Inactive)
REMARK    1  A    between atoms: C_1  and  C_2
REMARK    2  A    between atoms: C_2  and  C_3
REMARK    3  A    between atoms: C_6  and  C_7
REMARK    4  A    between atoms: C_7  and  O_8
REMARK    5  A    between atoms: O_8  and  C_9
REMARK    6  A    between atoms: C_12  and  C_13
REMARK                            x       y       z     vdW  Elec       q    Type
REMARK                         _______ _______ _______ _____ _____    ______ ____
ROOT
ATOM      1  C   UNL     1      44.553   3.902   9.060  0.00  0.00    +0.000 A 
ATOM      2  C   UNL     1      44.591   2.537   9.339  0.00  0.00    +0.000 A 
ATOM      3  N   UNL     1      45.468   1.680   8.745  0.00  0.00    +0.000 NA
ATOM      4  C   UNL     1      46.311   2.268   7.848  0.00  0.00    +0.000 A 
ATOM      5  C   UNL     1      46.280   3.627   7.576  0.00  0.00    +0.000 A 
ATOM      6  N   UNL     1      45.405   4.472   8.176  0.00  0.00    +0.000 NA
ENDROOT
BRANCH   4   7
ATOM      7  C   UNL     1      47.293   1.412   7.125  0.00  0.00    +0.000 C 
ATOM      8  N   UNL     1      48.419   2.029   6.655  0.00  0.00    +0.000 N 
ATOM      9  O   UNL     1      47.108   0.214   6.961  0.00  0.00    +0.000 OA
ATOM     10  H   UNL     1      48.567   3.021   6.806  0.00  0.00    +0.000 HD
ATOM     11  H   UNL     1      49.114   1.478   6.175  0.00  0.00    +0.000 HD
ENDBRANCH   4   7
BRANCH   1  12
ATOM     12  O   UNL     1      43.607   4.681   9.695  0.00  0.00    +0.000 OA
BRANCH  12  13
ATOM     13  C   UNL     1      43.590   4.452  11.112  0.00  0.00    +0.000 C 
BRANCH  13  17
ATOM     14  C   UNL     1      47.060   6.296  12.963  0.00  0.00    +0.000 A 
ATOM     15  C   UNL     1      46.624   5.031  13.380  0.00  0.00    +0.000 A 
ATOM     16  C   UNL     1      45.494   4.437  12.810  0.00  0.00    +0.000 A 
ATOM     17  C   UNL     1      44.770   5.097  11.810  0.00  0.00    +0.000 A 
ATOM     18  C   UNL     1      45.216   6.360  11.384  0.00  0.00    +0.000 A 
ATOM     19  C   UNL     1      46.347   6.953  11.955  0.00  0.00    +0.000 A 
BRANCH  14  21
ATOM     20  C   UNL     1      49.357   7.272  12.569  0.00  0.00    +0.000 C 
ATOM     21  C   UNL     1      48.280   6.927  13.586  0.00  0.00    +0.000 C 
ENDBRANCH  14  21
ENDBRANCH  13  17
ENDBRANCH  12  13
ENDBRANCH   1  12
TORSDOF 5
ENDMDL
MODEL 4
REMARK VINA RESULT:    -6.705      1.984      2.400
REMARK INTER + INTRA:          -9.191
REMARK INTER:                  -8.647
REMARK INTRA:                  -0.544
REMARK UNBOUND:                -0.527
REMARK  Name = 
REMARK  6 active torsions:
REMARK  status: ('A' for Active; 'I' for Inactive)
REMARK    1  A    between atoms: C_1  and  C_2
REMARK    2  A    between atoms: C_2  and  C_3
REMARK    3  A    between atoms: C_6  and  C_7
REMARK    4  A    between atoms: C_7  and  O_8
REMARK    5  A    between atoms: O_8  and  C_9
REMARK    6  A    between atoms: C_12  and  C_13
REMARK                            x       y       z     vdW  Elec       q    Type
REMARK                         _______ _______ _______ _____ _____    ______ ____
ROOT
ATOM      1  C   UNL     1      45.619   5.400  12.265  0.00  0.00    +0.000 A 
ATOM      2  C   UNL     1      46.637   4.880  13.062  0.00  0.00    +0.000 A 
ATOM      3  N   UNL     1      47.776   5.566  13.359  0.00  0.00    +0.000 NA
ATOM      4  C   UNL     1      47.841   6.813  12.808  0.00  0.00    +0.000 A 
ATOM      5  C   UNL     1      46.825   7.335  12.022  0.00  0.00    +0.000 A 
ATOM      6  N   UNL     1      45.694   6.644  11.737  0.00  0.00    +0.000 NA
ENDROOT
BRANCH   4   7
ATOM      7  C   UNL     1      49.058   7.638  13.052  0.00  0.00    +0.000 C 
ATOM      8  N   UNL     1      49.939   7.173  13.988  0.00  0.00    +0.000 N 
ATOM      9  O   UNL     1      49.264   8.680  12.444  0.00  0.00    +0.000 OA
ATOM     10  H   UNL     1      49.763   6.303  14.478  0.00  0.00    +0.000 HD
ATOM     11  H   UNL     1      50.783   7.697  14.167  0.00  0.00    +0.000 HD
ENDBRANCH   4   7
BRANCH   1  12
ATOM     12  O   UNL     1      44.517   4.612  12.001  0.00  0.00    +0.000 OA
BRANCH  12  13
ATOM     13  C   UNL     1      44.021   4.815  10.669  0.00  0.00    +0.000 C 
BRANCH  13  17
ATOM     14  C   UNL     1      46.191   2.285   7.885  0.00  0.00    +0.000 A 
ATOM     15  C   UNL     1      46.280   3.680   7.788  0.00  0.00    +0.000 A 
ATOM     16  C   UNL     1      45.566   4.506   8.663  0.00  0.00    +0.000 A 
ATOM     17  C   UNL     1      44.745   3.955   9.652  0.00  0.00    +0.000 A 
ATOM     18  C   UNL     1      44.666   2.556   9.754  0.00  0.00    +0.000 A 
ATOM     19  C   UNL     1      45.380   1.730   8.880  0.00  0.00    +0.000 A 
BRANCH  14  21
ATOM     20  C   UNL     1      47.951   2.179   6.074  0.00  0.00    +0.000 C 
ATOM     21  C   UNL     1      46.964   1.404   6.935  0.00  0.00    +0.000 C 
ENDBRANCH  14  21
ENDBRANCH  13  17
ENDBRANCH  12  13
ENDBRANCH   1  12
TORSDOF 5
ENDMDL
MODEL 5
REMARK VINA RESULT:    -6.272      2.047      3.325
REMARK INTER + INTRA:          -8.632
REMARK INTER:                  -8.232
REMARK INTRA:                  -0.399
REMARK UNBOUND:                -0.527
REMARK  Name = 
REMARK  6 active torsions:
REMARK  status: ('A' for Active; 'I' for Inactive)
REMARK    1  A    between atoms: C_1  and  C_2
REMARK    2  A    between atoms: C_2  and  C_3
REMARK    3  A    between atoms: C_6  and  C_7
REMARK    4  A    between atoms: C_7  and  O_8
REMARK    5  A    between atoms: O_8  and  C_9
REMARK    6  A    between atoms: C_12  and  C_13
REMARK                            x       y       z     vdW  Elec       q    Type
REMARK                         _______ _______ _______ _____ _____    ______ ____
ROOT
ATOM      1  C   UNL     1      47.234   5.182  14.716  0.00  0.00    +0.000 A 
ATOM      2  C   UNL     1      48.295   5.896  15.271  0.00  0.00    +0.000 A 
ATOM      3  N   UNL     1      48.957   5.494  16.392  0.00  0.00    +0.000 NA
ATOM      4  C   UNL     1      48.496   4.330  16.933  0.00  0.00    +0.000 A 
ATOM      5  C   UNL     1      47.446   3.614  16.377  0.00  0.00    +0.000 A 
ATOM      6  N   UNL     1      46.797   4.022  15.258  0.00  0.00    +0.000 NA
ENDROOT
BRANCH   4   7
ATOM      7  C   UNL     1      49.137   3.817  18.176  0.00  0.00    +0.000 C 
ATOM      8  N   UNL     1      48.327   3.160  19.060  0.00  0.00    +0.000 N 
ATOM      9  O   UNL     1      50.331   3.970  18.397  0.00  0.00    +0.000 OA
ATOM     10  H   UNL     1      47.341   3.030  18.861  0.00  0.00    +0.000 HD
ATOM     11  H   UNL     1      48.730   2.784  19.905  0.00  0.00    +0.000 HD
ENDBRANCH   4   7
BRANCH   1  12
ATOM     12  O   UNL     1      46.611   5.689  13.594  0.00  0.00    +0.000 OA
BRANCH  12  13
ATOM     13  C   UNL     1      45.381   5.004  13.310  0.00  0.00    +0.000 C 
BRANCH  13  17
ATOM     14  C   UNL     1      45.124   3.877   9.124  0.00  0.00    +0.000 A 
ATOM     15  C   UNL     1      45.536   5.166   9.485  0.00  0.00    +0.000 A 
ATOM     16  C   UNL     1      45.599   5.549  10.828  0.00  0.00    +0.000 A 
ATOM     17  C   UNL     1      45.248   4.652  11.842  0.00  0.00    +0.000 A 
ATOM     18  C   UNL     1      44.846   3.355  11.479  0.00  0.00    +0.000 A 
ATOM     19  C   UNL     1      44.784   2.972  10.135  0.00  0.00    +0.000 A 
BRANCH  14  21
ATOM     20  C   UNL     1      46.419   3.125   7.089  0.00  0.00    +0.000 C 
ATOM     21  C   UNL     1      45.058   3.475   7.671  0.00  0.00    +0.000 C 
ENDBRANCH  14  21
ENDBRANCH  13  17
ENDBRANCH  12  13
ENDBRANCH   1  12
TORSDOF 5
ENDMDL
MODEL 6
REMARK VINA RESULT:    -6.135      3.253      7.773
REMARK INTER + INTRA:          -8.455
REMARK INTER:                  -8.052
REMARK INTRA:                  -0.403
REMARK UNBOUND:                -0.527
REMARK  Name = 
REMARK  6 active torsions:
REMARK  status: ('A' for Active; 'I' for Inactive)
REMARK    1  A    between atoms: C_1  and  C_2
REMARK    2  A    between atoms: C_2  and  C_3
REMARK    3  A    between atoms: C_6  and  C_7
REMARK    4  A    between atoms: C_7  and  O_8
REMARK    5  A    between atoms: O_8  and  C_9
REMARK    6  A    between atoms: C_12  and  C_13
REMARK                            x       y       z     vdW  Elec       q    Type
REMARK                         _______ _______ _______ _____ _____    ______ ____
ROOT
ATOM      1  C   UNL     1      46.632   4.742  13.934  0.00  0.00    +0.000 A 
ATOM      2  C   UNL     1      45.924   5.780  13.330  0.00  0.00    +0.000 A 
ATOM      3  N   UNL     1      45.033   5.584  12.318  0.00  0.00    +0.000 NA
ATOM      4  C   UNL     1      44.888   4.282  11.939  0.00  0.00    +0.000 A 
ATOM      5  C   UNL     1      45.585   3.248  12.544  0.00  0.00    +0.000 A 
ATOM      6  N   UNL     1      46.467   3.454  13.555  0.00  0.00    +0.000 NA
ENDROOT
BRANCH   4   7
ATOM      7  C   UNL     1      43.955   3.963  10.823  0.00  0.00    +0.000 C 
ATOM      8  N   UNL     1      43.937   4.832   9.768  0.00  0.00    +0.000 N 
ATOM      9  O   UNL     1      43.239   2.971  10.843  0.00  0.00    +0.000 OA
ATOM     10  H   UNL     1      44.542   5.646   9.757  0.00  0.00    +0.000 HD
ATOM     11  H   UNL     1      43.329   4.640   8.985  0.00  0.00    +0.000 HD
ENDBRANCH   4   7
BRANCH   1  12
ATOM     12  O   UNL     1      47.533   5.049  14.933  0.00  0.00    +0.000 OA
BRANCH  12  13
ATOM     13  C   UNL     1      47.322   4.248  16.107  0.00  0.00    +0.000 C 
BRANCH  13  17
ATOM     14  C   UNL     1      51.138   2.885  17.669  0.00  0.00    +0.000 A 
ATOM     15  C   UNL     1      50.234   1.970  17.115  0.00  0.00    +0.000 A 
ATOM     16  C   UNL     1      48.991   2.392  16.631  0.00  0.00    +0.000 A 
ATOM     17  C   UNL     1      48.624   3.741  16.694  0.00  0.00    +0.000 A 
ATOM     18  C   UNL     1      49.538   4.659  17.238  0.00  0.00    +0.000 A 
ATOM     19  C   UNL     1      50.780   4.236  17.721  0.00  0.00    +0.000 A 
BRANCH  14  21
ATOM     20  C   UNL     1      52.939   1.115  17.553  0.00  0.00    +0.000 C 
ATOM     21  C   UNL     1      52.475   2.417  18.189  0.00  0.00    +0.000 C 
ENDBRANCH  14  21
ENDBRANCH  13  17
ENDBRANCH  12  13
ENDBRANCH   1  12
TORSDOF 5
ENDMDL
MODEL 7
REMARK VINA RESULT:    -6.048      2.877      5.070
REMARK INTER + INTRA:          -8.343
REMARK INTER:                  -7.924
REMARK INTRA:                  -0.420
REMARK UNBOUND:                -0.527
REMARK  Name = 
REMARK  6 active torsions:
REMARK  status: ('A' for Active; 'I' for Inactive)
REMARK    1  A    between atoms: C_1  and  C_2
REMARK    2  A    between atoms: C_2  and  C_3
REMARK    3  A    between atoms: C_6  and  C_7
REMARK    4  A    between atoms: C_7  and  O_8
REMARK    5  A    between atoms: O_8  and  C_9
REMARK    6  A    between atoms: C_12  and  C_13
REMARK                            x       y       z     vdW  Elec       q    Type
REMARK                         _______ _______ _______ _____ _____    ______ ____
ROOT
ATOM      1  C   UNL     1      47.966   3.689  16.121  0.00  0.00    +0.000 A 
ATOM      2  C   UNL     1      48.270   2.349  15.887  0.00  0.00    +0.000 A 
ATOM      3  N   UNL     1      49.382   1.739  16.385  0.00  0.00    +0.000 NA
ATOM      4  C   UNL     1      50.182   2.551  17.135  0.00  0.00    +0.000 A 
ATOM      5  C   UNL     1      49.877   3.882  17.375  0.00  0.00    +0.000 A 
ATOM      6  N   UNL     1      48.764   4.478  16.878  0.00  0.00    +0.000 NA
ENDROOT
BRANCH   4   7
ATOM      7  C   UNL     1      51.437   1.987  17.705  0.00  0.00    +0.000 C 
ATOM      8  N   UNL     1      51.471   0.635  17.902  0.00  0.00    +0.000 N 
ATOM      9  O   UNL     1      52.396   2.696  17.982  0.00  0.00    +0.000 OA
ATOM     10  H   UNL     1      50.674   0.056  17.660  0.00  0.00    +0.000 HD
ATOM     11  H   UNL     1      52.311   0.215  18.272  0.00  0.00    +0.000 HD
ENDBRANCH   4   7
BRANCH   1  12
ATOM     12  O   UNL     1      46.828   4.220  15.548  0.00  0.00    +0.000 OA
BRANCH  12  13
ATOM     13  C   UNL     1      47.141   5.183  14.530  0.00  0.00    +0.000 C 
BRANCH  13  17
ATOM     14  C   UNL     1      44.974   4.469  10.835  0.00  0.00    +0.000 A 
ATOM     15  C   UNL     1      45.069   3.462  11.805  0.00  0.00    +0.000 A 
ATOM     16  C   UNL     1      45.785   3.670  12.988  0.00  0.00    +0.000 A 
ATOM     17  C   UNL     1      46.426   4.891  13.227  0.00  0.00    +0.000 A 
ATOM     18  C   UNL     1      46.318   5.904  12.259  0.00  0.00    +0.000 A 
ATOM     19  C   UNL     1      45.602   5.695  11.076  0.00  0.00    +0.000 A 
BRANCH  14  21
ATOM     20  C   UNL     1      44.937   3.340   8.575  0.00  0.00    +0.000 C 
ATOM     21  C   UNL     1      44.199   4.231   9.563  0.00  0.00    +0.000 C 
ENDBRANCH  14  21
ENDBRANCH  13  17
ENDBRANCH  12  13
ENDBRANCH   1  12
TORSDOF 5
ENDMDL
MODEL 8
REMARK VINA RESULT:    -5.749      2.219      3.704
REMARK INTER + INTRA:          -7.957
REMARK INTER:                  -7.588
REMARK INTRA:                  -0.369
REMARK UNBOUND:                -0.527
REMARK  Name = 
REMARK  6 active torsions:
REMARK  status: ('A' for Active; 'I' for Inactive)
REMARK    1  A    between atoms: C_1  and  C_2
REMARK    2  A    between atoms: C_2  and  C_3
REMARK    3  A    between atoms: C_6  and  C_7
REMARK    4  A    between atoms: C_7  and  O_8
REMARK    5  A    between atoms: O_8  and  C_9
REMARK    6  A    between atoms: C_12  and  C_13
REMARK                            x       y       z     vdW  Elec       q    Type
REMARK                         _______ _______ _______ _____ _____    ______ ____
ROOT
ATOM      1  C   UNL     1      47.153   4.600  15.139  0.00  0.00    +0.000 A 
ATOM      2  C   UNL     1      47.358   4.019  16.389  0.00  0.00    +0.000 A 
ATOM      3  N   UNL     1      48.258   4.497  17.295  0.00  0.00    +0.000 NA
ATOM      4  C   UNL     1      48.947   5.597  16.877  0.00  0.00    +0.000 A 
ATOM      5  C   UNL     1      48.737   6.182  15.637  0.00  0.00    +0.000 A 
ATOM      6  N   UNL     1      47.836   5.699  14.745  0.00  0.00    +0.000 NA
ENDROOT
BRANCH   4   7
ATOM      7  C   UNL     1      49.973   6.184  17.784  0.00  0.00    +0.000 C 
ATOM      8  N   UNL     1      49.512   6.877  18.869  0.00  0.00    +0.000 N 
ATOM      9  O   UNL     1      51.171   6.052  17.574  0.00  0.00    +0.000 OA
ATOM     10  H   UNL     1      48.516   6.971  19.038  0.00  0.00    +0.000 HD
ATOM     11  H   UNL     1      50.178   7.274  19.514  0.00  0.00    +0.000 HD
ENDBRANCH   4   7
BRANCH   1  12
ATOM     12  O   UNL     1      46.238   4.022  14.283  0.00  0.00    +0.000 OA
BRANCH  12  13
ATOM     13  C   UNL     1      45.536   5.006  13.508  0.00  0.00    +0.000 C 
BRANCH  13  17
ATOM     14  C   UNL     1      45.074   3.985   9.312  0.00  0.00    +0.000 A 
ATOM     15  C   UNL     1      44.806   3.033  10.305  0.00  0.00    +0.000 A 
ATOM     16  C   UNL     1      44.975   3.342  11.659  0.00  0.00    +0.000 A 
ATOM     17  C   UNL     1      45.419   4.609  12.050  0.00  0.00    +0.000 A 
ATOM     18  C   UNL     1      45.676   5.566  11.054  0.00  0.00    +0.000 A 
ATOM     19  C   UNL     1      45.507   5.258   9.700  0.00  0.00    +0.000 A 
BRANCH  14  21
ATOM     20  C   UNL     1      46.194   3.283   7.158  0.00  0.00    +0.000 C 
ATOM     21  C   UNL     1      44.890   3.641   7.855  0.00  0.00    +0.000 C 
ENDBRANCH  14  21
ENDBRANCH  13  17
ENDBRANCH  12  13
ENDBRANCH   1  12
TORSDOF 5
ENDMDL
MODEL 9
REMARK VINA RESULT:    -5.394      4.026      6.377
REMARK INTER + INTRA:          -7.497
REMARK INTER:                  -7.101
REMARK INTRA:                  -0.396
REMARK UNBOUND:                -0.527
REMARK  Name = 
REMARK  6 active torsions:
REMARK  status: ('A' for Active; 'I' for Inactive)
REMARK    1  A    between atoms: C_1  and  C_2
REMARK    2  A    between atoms: C_2  and  C_3
REMARK    3  A    between atoms: C_6  and  C_7
REMARK    4  A    between atoms: C_7  and  O_8
REMARK    5  A    between atoms: O_8  and  C_9
REMARK    6  A    between atoms: C_12  and  C_13
REMARK                            x       y       z     vdW  Elec       q    Type
REMARK                         _______ _______ _______ _____ _____    ______ ____
ROOT
ATOM      1  C   UNL     1      46.150   5.817  12.793  0.00  0.00    +0.000 A 
ATOM      2  C   UNL     1      46.119   4.559  13.391  0.00  0.00    +0.000 A 
ATOM      3  N   UNL     1      45.430   3.504  12.872  0.00  0.00    +0.000 NA
ATOM      4  C   UNL     1      44.767   3.780  11.712  0.00  0.00    +0.000 A 
ATOM      5  C   UNL     1      44.803   5.029  11.112  0.00  0.00    +0.000 A 
ATOM      6  N   UNL     1      45.497   6.071  11.635  0.00  0.00    +0.000 NA
ENDROOT
BRANCH   4   7
ATOM      7  C   UNL     1      43.962   2.700  11.076  0.00  0.00    +0.000 C 
ATOM      8  N   UNL     1      44.434   2.192   9.899  0.00  0.00    +0.000 N 
ATOM      9  O   UNL     1      42.928   2.282  11.582  0.00  0.00    +0.000 OA
ATOM     10  H   UNL     1      45.297   2.539   9.494  0.00  0.00    +0.000 HD
ATOM     11  H   UNL     1      43.924   1.448   9.447  0.00  0.00    +0.000 HD
ENDBRANCH   4   7
BRANCH   1  12
ATOM     12  O   UNL     1      46.856   6.828  13.413  0.00  0.00    +0.000 OA
BRANCH  12  13
ATOM     13  C   UNL     1      46.838   8.041  12.646  0.00  0.00    +0.000 C 
BRANCH  13  17
ATOM     14  C   UNL     1      50.734   9.227  11.138  0.00  0.00    +0.000 A 
ATOM     15  C   UNL     1      50.485   7.891  11.479  0.00  0.00    +0.000 A 
ATOM     16  C   UNL     1      49.243   7.501  11.989  0.00  0.00    +0.000 A 
ATOM     17  C   UNL     1      48.222   8.440  12.173  0.00  0.00    +0.000 A 
ATOM     18  C   UNL     1      48.470   9.777  11.819  0.00  0.00    +0.000 A 
ATOM     19  C   UNL     1      49.712  10.166  11.308  0.00  0.00    +0.000 A 
BRANCH  14  21
ATOM     20  C   UNL     1      51.989  10.761   9.570  0.00  0.00    +0.000 C 
ATOM     21  C   UNL     1      52.079   9.636  10.590  0.00  0.00    +0.000 C 
ENDBRANCH  14  21
ENDBRANCH  13  17
ENDBRANCH  12  13
ENDBRANCH   1  12
TORSDOF 5
ENDMDL
