MODEL 1
REMARK VINA RESULT:    -8.508      0.000      0.000
REMARK INTER + INTRA:         -11.037
REMARK INTER:                 -10.498
REMARK INTRA:                  -0.539
REMARK UNBOUND:                -0.539
REMARK  Name = 
REMARK  5 active torsions:
REMARK  status: ('A' for Active; 'I' for Inactive)
REMARK    1  A    between atoms: C_1  and  C_2
REMARK    2  A    between atoms: N_6  and  C_7
REMARK    3  A    between atoms: C_7  and  C_8
REMARK    4  A    between atoms: C_12  and  C_13
REMARK    5  A    between atoms: C_17  and  C_18
REMARK                            x       y       z     vdW  Elec       q    Type
REMARK                         _______ _______ _______ _____ _____    ______ ____
ROOT
ATOM      1  C   UNL     1      44.347   4.647  11.338  0.00  0.00    +0.000 A 
ATOM      2  C   UNL     1      43.844   5.871  10.903  0.00  0.00    +0.000 A 
ATOM      3  C   UNL     1      44.317   7.043  11.484  0.00  0.00    +0.000 A 
ATOM      4  C   UNL     1      45.273   6.970  12.487  0.00  0.00    +0.000 A 
ATOM      5  C   UNL     1      45.744   5.719  12.885  0.00  0.00    +0.000 A 
ATOM      6  N   UNL     1      45.284   4.567  12.322  0.00  0.00    +0.000 NA
ENDROOT
BRANCH   5   7
ATOM      7  C   UNL     1      46.764   5.572  13.931  0.00  0.00    +0.000 A 
ATOM      8  C   UNL     1      47.816   6.479  14.060  0.00  0.00    +0.000 A 
ATOM      9  N   UNL     1      48.787   6.407  15.007  0.00  0.00    +0.000 NA
ATOM     10  C   UNL     1      48.704   5.382  15.889  0.00  0.00    +0.000 A 
ATOM     11  C   UNL     1      47.718   4.412  15.858  0.00  0.00    +0.000 A 
ATOM     12  C   UNL     1      46.746   4.516  14.858  0.00  0.00    +0.000 A 
BRANCH  11  13
ATOM     13  C   UNL     1      47.623   3.289  16.827  0.00  0.00    +0.000 C 
ATOM     14  N   UNL     1      48.732   2.525  17.065  0.00  0.00    +0.000 N 
ATOM     15  O   UNL     1      46.574   3.043  17.404  0.00  0.00    +0.000 OA
ATOM     16  H   UNL     1      49.638   2.641  16.642  0.00  0.00    +0.000 HD
ATOM     17  H   UNL     1      48.623   1.770  17.733  0.00  0.00    +0.000 HD
ENDBRANCH  11  13
ENDBRANCH   5   7
BRANCH   1  18
ATOM     18  C   UNL     1      43.874   3.346  10.700  0.00  0.00    +0.000 C 
BRANCH  18  24
ATOM     19  C   UNL     1      47.525   2.568   5.379  0.00  0.00    +0.000 C 
ATOM     20  C   UNL     1      46.789   2.555   6.672  0.00  0.00    +0.000 A 
ATOM     21  C   UNL     1      46.192   3.669   7.215  0.00  0.00    +0.000 A 
ATOM     22  N   UNL     1      45.539   3.674   8.398  0.00  0.00    +0.000 NA
ATOM     23  C   UNL     1      45.498   2.513   9.074  0.00  0.00    +0.000 A 
ATOM     24  N   UNL     1      44.954   2.453  10.335  0.00  0.00    +0.000 N 
ATOM     25  N   UNL     1      46.032   1.375   8.621  0.00  0.00    +0.000 NA
ATOM     26  C   UNL     1      46.665   1.416   7.434  0.00  0.00    +0.000 A 
ATOM     27  H   UNL     1      44.861   1.487  10.615  0.00  0.00    +0.000 HD
ENDBRANCH  18  24
ENDBRANCH   1  18
TORSDOF 4
ENDMDL
MODEL 2
REMARK VINA RESULT:    -8.282      3.189      4.893
REMARK INTER + INTRA:         -10.758
REMARK INTER:                 -10.050
REMARK INTRA:                  -0.708
REMARK UNBOUND:                -0.539
REMARK  Name = 
REMARK  5 active torsions:
REMARK  status: ('A' for Active; 'I' for Inactive)
REMARK    1  A    between atoms: C_1  and  C_2
REMARK    2  A    between atoms: N_6  and  C_7
REMARK    3  A    between atoms: C_7  and  C_8
REMARK    4  A    between atoms: C_12  and  C_13
REMARK    5  A    between atoms: C_17  and  C_18
REMARK                            x       y       z     vdW  Elec       q    Type
REMARK                         _______ _______ _______ _____ _____    ______ ____
ROOT
ATOM      1  C   UNL     1      44.863   4.025  11.763  0.00  0.00    +0.000 A 
ATOM      2  C   UNL     1      45.627   3.316  12.688  0.00  0.00    +0.000 A 
ATOM      3  C   UNL     1      46.507   4.008  13.513  0.00  0.00    +0.000 A 
ATOM      4  C   UNL     1      46.611   5.387  13.396  0.00  0.00    +0.000 A 
ATOM      5  C   UNL     1      45.823   6.048  12.454  0.00  0.00    +0.000 A 
ATOM      6  N   UNL     1      44.961   5.377  11.641  0.00  0.00    +0.000 NA
ENDROOT
BRANCH   5   7
ATOM      7  C   UNL     1      45.876   7.507  12.287  0.00  0.00    +0.000 A 
ATOM      8  C   UNL     1      47.022   8.237  12.598  0.00  0.00    +0.000 A 
ATOM      9  N   UNL     1      47.141   9.584  12.461  0.00  0.00    +0.000 NA
ATOM     10  C   UNL     1      46.064  10.244  11.972  0.00  0.00    +0.000 A 
ATOM     11  C   UNL     1      44.867   9.636  11.640  0.00  0.00    +0.000 A 
ATOM     12  C   UNL     1      44.783   8.250  11.810  0.00  0.00    +0.000 A 
BRANCH  11  13
ATOM     13  C   UNL     1      43.686  10.358  11.101  0.00  0.00    +0.000 C 
ATOM     14  N   UNL     1      42.817  10.951  11.975  0.00  0.00    +0.000 N 
ATOM     15  O   UNL     1      43.483  10.424   9.896  0.00  0.00    +0.000 OA
ATOM     16  H   UNL     1      42.891  10.954  12.979  0.00  0.00    +0.000 HD
ATOM     17  H   UNL     1      42.026  11.434  11.564  0.00  0.00    +0.000 HD
ENDBRANCH  11  13
ENDBRANCH   5   7
BRANCH   1  18
ATOM     18  C   UNL     1      43.866   3.300  10.866  0.00  0.00    +0.000 C 
BRANCH  18  24
ATOM     19  C   UNL     1      47.866   1.890   5.939  0.00  0.00    +0.000 C 
ATOM     20  C   UNL     1      46.860   2.369   6.927  0.00  0.00    +0.000 A 
ATOM     21  C   UNL     1      46.456   1.631   8.016  0.00  0.00    +0.000 A 
ATOM     22  N   UNL     1      45.530   2.046   8.906  0.00  0.00    +0.000 NA
ATOM     23  C   UNL     1      44.971   3.248   8.686  0.00  0.00    +0.000 A 
ATOM     24  N   UNL     1      43.941   3.700   9.477  0.00  0.00    +0.000 N 
ATOM     25  N   UNL     1      45.310   4.046   7.669  0.00  0.00    +0.000 NA
ATOM     26  C   UNL     1      46.244   3.594   6.811  0.00  0.00    +0.000 A 
ATOM     27  H   UNL     1      43.763   4.673   9.272  0.00  0.00    +0.000 HD
ENDBRANCH  18  24
ENDBRANCH   1  18
TORSDOF 4
ENDMDL
MODEL 3
REMARK VINA RESULT:    -8.210      3.189      4.349
REMARK INTER + INTRA:         -10.669
REMARK INTER:                 -10.017
REMARK INTRA:                  -0.652
REMARK UNBOUND:                -0.539
REMARK  Name = 
REMARK  5 active torsions:
REMARK  status: ('A' for Active; 'I' for Inactive)
REMARK    1  A    between atoms: C_1  and  C_2
REMARK    2  A    between atoms: N_6  and  C_7
REMARK    3  A    between atoms: C_7  and  C_8
REMARK    4  A    between atoms: C_12  and  C_13
REMARK    5  A    between atoms: C_17  and  C_18
REMARK                            x       y       z     vdW  Elec       q    Type
REMARK                         _______ _______ _______ _____ _____    ______ ____
ROOT
ATOM      1  C   UNL     1      44.770   4.981  11.883  0.00  0.00    +0.000 A 
ATOM      2  C   UNL     1      45.014   4.122  12.953  0.00  0.00    +0.000 A 
ATOM      3  C   UNL     1      46.067   4.401  13.819  0.00  0.00    +0.000 A 
ATOM      4  C   UNL     1      46.855   5.522  13.597  0.00  0.00    +0.000 A 
ATOM      5  C   UNL     1      46.567   6.348  12.511  0.00  0.00    +0.000 A 
ATOM      6  N   UNL     1      45.539   6.081  11.658  0.00  0.00    +0.000 NA
ENDROOT
BRANCH   5   7
ATOM      7  C   UNL     1      47.354   7.555  12.226  0.00  0.00    +0.000 A 
ATOM      8  C   UNL     1      46.789   8.829  12.296  0.00  0.00    +0.000 A 
ATOM      9  N   UNL     1      47.459   9.986  12.053  0.00  0.00    +0.000 NA
ATOM     10  C   UNL     1      48.772   9.875  11.736  0.00  0.00    +0.000 A 
ATOM     11  C   UNL     1      49.442   8.670  11.622  0.00  0.00    +0.000 A 
ATOM     12  C   UNL     1      48.711   7.503  11.867  0.00  0.00    +0.000 A 
BRANCH  11  13
ATOM     13  C   UNL     1      50.882   8.547  11.277  0.00  0.00    +0.000 C 
ATOM     14  N   UNL     1      51.408   7.302  11.070  0.00  0.00    +0.000 N 
ATOM     15  O   UNL     1      51.594   9.537  11.182  0.00  0.00    +0.000 OA
ATOM     16  H   UNL     1      50.913   6.428  11.127  0.00  0.00    +0.000 HD
ATOM     17  H   UNL     1      52.394   7.264  10.837  0.00  0.00    +0.000 HD
ENDBRANCH  11  13
ENDBRANCH   5   7
BRANCH   1  18
ATOM     18  C   UNL     1      43.605   4.722  10.935  0.00  0.00    +0.000 C 
BRANCH  18  24
ATOM     19  C   UNL     1      47.287   1.268   6.839  0.00  0.00    +0.000 C 
ATOM     20  C   UNL     1      46.431   2.212   7.608  0.00  0.00    +0.000 A 
ATOM     21  C   UNL     1      45.681   1.838   8.699  0.00  0.00    +0.000 A 
ATOM     22  N   UNL     1      44.885   2.682   9.392  0.00  0.00    +0.000 NA
ATOM     23  C   UNL     1      44.826   3.953   8.961  0.00  0.00    +0.000 A 
ATOM     24  N   UNL     1      43.957   4.850   9.537  0.00  0.00    +0.000 N 
ATOM     25  N   UNL     1      45.530   4.416   7.924  0.00  0.00    +0.000 NA
ATOM     26  C   UNL     1      46.316   3.542   7.269  0.00  0.00    +0.000 A 
ATOM     27  H   UNL     1      44.166   5.780   9.202  0.00  0.00    +0.000 HD
ENDBRANCH  18  24
ENDBRANCH   1  18
TORSDOF 4
ENDMDL
MODEL 4
REMARK VINA RESULT:    -7.853      1.930      2.290
REMARK INTER + INTRA:         -10.229
REMARK INTER:                  -9.562
REMARK INTRA:                  -0.667
REMARK UNBOUND:                -0.539
REMARK  Name = 
REMARK  5 active torsions:
REMARK  status: ('A' for Active; 'I' for Inactive)
REMARK    1  A    between atoms: C_1  and  C_2
REMARK    2  A    between atoms: N_6  and  C_7
REMARK    3  A    between atoms: C_7  and  C_8
REMARK    4  A    between atoms: C_12  and  C_13
REMARK    5  A    between atoms: C_17  and  C_18
REMARK                            x       y       z     vdW  Elec       q    Type
REMARK                         _______ _______ _______ _____ _____    ______ ____
ROOT
ATOM      1  C   UNL     1      43.914   3.973  11.126  0.00  0.00    +0.000 A 
ATOM      2  C   UNL     1      42.756   4.422  11.756  0.00  0.00    +0.000 A 
ATOM      3  C   UNL     1      42.842   5.474  12.663  0.00  0.00    +0.000 A 
ATOM      4  C   UNL     1      44.077   6.048  12.927  0.00  0.00    +0.000 A 
ATOM      5  C   UNL     1      45.206   5.561  12.269  0.00  0.00    +0.000 A 
ATOM      6  N   UNL     1      45.130   4.531  11.381  0.00  0.00    +0.000 NA
ENDROOT
BRANCH   5   7
ATOM      7  C   UNL     1      46.540   6.132  12.493  0.00  0.00    +0.000 A 
ATOM      8  C   UNL     1      47.227   6.805  11.483  0.00  0.00    +0.000 A 
ATOM      9  N   UNL     1      48.458   7.362  11.623  0.00  0.00    +0.000 NA
ATOM     10  C   UNL     1      49.038   7.259  12.843  0.00  0.00    +0.000 A 
ATOM     11  C   UNL     1      48.466   6.607  13.920  0.00  0.00    +0.000 A 
ATOM     12  C   UNL     1      47.204   6.035  13.727  0.00  0.00    +0.000 A 
BRANCH  11  13
ATOM     13  C   UNL     1      49.099   6.496  15.260  0.00  0.00    +0.000 C 
ATOM     14  N   UNL     1      48.345   6.058  16.313  0.00  0.00    +0.000 N 
ATOM     15  O   UNL     1      50.273   6.792  15.428  0.00  0.00    +0.000 OA
ATOM     16  H   UNL     1      47.375   5.793  16.283  0.00  0.00    +0.000 HD
ATOM     17  H   UNL     1      48.817   5.996  17.209  0.00  0.00    +0.000 HD
ENDBRANCH  11  13
ENDBRANCH   5   7
BRANCH   1  18
ATOM     18  C   UNL     1      43.851   2.845  10.104  0.00  0.00    +0.000 C 
BRANCH  18  24
ATOM     19  C   UNL     1      47.797   2.404   4.957  0.00  0.00    +0.000 C 
ATOM     20  C   UNL     1      47.034   2.354   6.234  0.00  0.00    +0.000 A 
ATOM     21  C   UNL     1      46.161   3.340   6.634  0.00  0.00    +0.000 A 
ATOM     22  N   UNL     1      45.479   3.315   7.800  0.00  0.00    +0.000 NA
ATOM     23  C   UNL     1      45.695   2.263   8.608  0.00  0.00    +0.000 A 
ATOM     24  N   UNL     1      45.129   2.211   9.860  0.00  0.00    +0.000 N 
ATOM     25  N   UNL     1      46.507   1.248   8.299  0.00  0.00    +0.000 NA
ATOM     26  C   UNL     1      47.160   1.311   7.123  0.00  0.00    +0.000 A 
ATOM     27  H   UNL     1      45.263   1.289  10.250  0.00  0.00    +0.000 HD
ENDBRANCH  18  24
ENDBRANCH   1  18
TORSDOF 4
ENDMDL
MODEL 5
REMARK VINA RESULT:    -7.810      1.407      2.153
REMARK INTER + INTRA:         -10.176
REMARK INTER:                  -9.516
REMARK INTRA:                  -0.660
REMARK UNBOUND:                -0.539
REMARK  Name = 
REMARK  5 active torsions:
REMARK  status: ('A' for Active; 'I' for Inactive)
REMARK    1  A    between atoms: C_1  and  C_2
REMARK    2  A    between atoms: N_6  and  C_7
REMARK    3  A    between atoms: C_7  and  C_8
REMARK    4  A    between atoms: C_12  and  C_13
REMARK    5  A    between atoms: C_17  and  C_18
REMARK                            x       y       z     vdW  Elec       q    Type
REMARK                         _______ _______ _______ _____ _____    ______ ____
ROOT
ATOM      1  C   UNL     1      44.858   5.381  11.653  0.00  0.00    +0.000 A 
ATOM      2  C   UNL     1      45.054   6.733  11.379  0.00  0.00    +0.000 A 
ATOM      3  C   UNL     1      45.939   7.463  12.165  0.00  0.00    +0.000 A 
ATOM      4  C   UNL     1      46.603   6.834  13.208  0.00  0.00    +0.000 A 
ATOM      5  C   UNL     1      46.371   5.478  13.441  0.00  0.00    +0.000 A 
ATOM      6  N   UNL     1      45.504   4.757  12.676  0.00  0.00    +0.000 NA
ENDROOT
BRANCH   5   7
ATOM      7  C   UNL     1      47.050   4.750  14.520  0.00  0.00    +0.000 A 
ATOM      8  C   UNL     1      47.266   3.374  14.450  0.00  0.00    +0.000 A 
ATOM      9  N   UNL     1      47.892   2.640  15.407  0.00  0.00    +0.000 NA
ATOM     10  C   UNL     1      48.344   3.313  16.493  0.00  0.00    +0.000 A 
ATOM     11  C   UNL     1      48.179   4.673  16.685  0.00  0.00    +0.000 A 
ATOM     12  C   UNL     1      47.517   5.387  15.682  0.00  0.00    +0.000 A 
BRANCH  11  13
ATOM     13  C   UNL     1      48.677   5.413  17.874  0.00  0.00    +0.000 C 
ATOM     14  N   UNL     1      49.665   6.344  17.707  0.00  0.00    +0.000 N 
ATOM     15  O   UNL     1      48.219   5.197  18.987  0.00  0.00    +0.000 OA
ATOM     16  H   UNL     1      50.109   6.594  16.840  0.00  0.00    +0.000 HD
ATOM     17  H   UNL     1      49.974   6.826  18.544  0.00  0.00    +0.000 HD
ENDBRANCH  11  13
ENDBRANCH   5   7
BRANCH   1  18
ATOM     18  C   UNL     1      43.919   4.545  10.792  0.00  0.00    +0.000 C 
BRANCH  18  24
ATOM     19  C   UNL     1      47.578   1.343   6.477  0.00  0.00    +0.000 C 
ATOM     20  C   UNL     1      46.704   2.226   7.296  0.00  0.00    +0.000 A 
ATOM     21  C   UNL     1      46.064   1.808   8.441  0.00  0.00    +0.000 A 
ATOM     22  N   UNL     1      45.251   2.594   9.180  0.00  0.00    +0.000 NA
ATOM     23  C   UNL     1      45.059   3.850   8.743  0.00  0.00    +0.000 A 
ATOM     24  N   UNL     1      44.162   4.682   9.371  0.00  0.00    +0.000 N 
ATOM     25  N   UNL     1      45.650   4.353   7.656  0.00  0.00    +0.000 NA
ATOM     26  C   UNL     1      46.458   3.536   6.955  0.00  0.00    +0.000 A 
ATOM     27  H   UNL     1      44.270   5.621   9.015  0.00  0.00    +0.000 HD
ENDBRANCH  18  24
ENDBRANCH   1  18
TORSDOF 4
ENDMDL
MODEL 6
REMARK VINA RESULT:    -7.507      2.620      3.774
REMARK INTER + INTRA:          -9.802
REMARK INTER:                  -9.224
REMARK INTRA:                  -0.577
REMARK UNBOUND:                -0.539
REMARK  Name = 
REMARK  5 active torsions:
REMARK  status: ('A' for Active; 'I' for Inactive)
REMARK    1  A    between atoms: C_1  and  C_2
REMARK    2  A    between atoms: N_6  and  C_7
REMARK    3  A    between atoms: C_7  and  C_8
REMARK    4  A    between atoms: C_12  and  C_13
REMARK    5  A    between atoms: C_17  and  C_18
REMARK                            x       y       z     vdW  Elec       q    Type
REMARK                         _______ _______ _______ _____ _____    ______ ____
ROOT
ATOM      1  C   UNL     1      45.086   4.715  11.827  0.00  0.00    +0.000 A 
ATOM      2  C   UNL     1      45.389   3.604  12.612  0.00  0.00    +0.000 A 
ATOM      3  C   UNL     1      46.444   3.680  13.515  0.00  0.00    +0.000 A 
ATOM      4  C   UNL     1      47.176   4.855  13.612  0.00  0.00    +0.000 A 
ATOM      5  C   UNL     1      46.831   5.938  12.803  0.00  0.00    +0.000 A 
ATOM      6  N   UNL     1      45.801   5.870  11.915  0.00  0.00    +0.000 NA
ENDROOT
BRANCH   5   7
ATOM      7  C   UNL     1      47.557   7.213  12.865  0.00  0.00    +0.000 A 
ATOM      8  C   UNL     1      48.075   7.816  11.719  0.00  0.00    +0.000 A 
ATOM      9  N   UNL     1      48.749   8.996  11.704  0.00  0.00    +0.000 NA
ATOM     10  C   UNL     1      48.906   9.624  12.894  0.00  0.00    +0.000 A 
ATOM     11  C   UNL     1      48.450   9.123  14.100  0.00  0.00    +0.000 A 
ATOM     12  C   UNL     1      47.774   7.899  14.072  0.00  0.00    +0.000 A 
BRANCH  11  13
ATOM     13  C   UNL     1      48.618   9.812  15.405  0.00  0.00    +0.000 C 
ATOM     14  N   UNL     1      48.765  11.172  15.422  0.00  0.00    +0.000 N 
ATOM     15  O   UNL     1      48.630   9.182  16.453  0.00  0.00    +0.000 OA
ATOM     16  H   UNL     1      48.773  11.780  14.620  0.00  0.00    +0.000 HD
ATOM     17  H   UNL     1      48.876  11.601  16.334  0.00  0.00    +0.000 HD
ENDBRANCH  11  13
ENDBRANCH   5   7
BRANCH   1  18
ATOM     18  C   UNL     1      43.917   4.675  10.850  0.00  0.00    +0.000 C 
BRANCH  18  24
ATOM     19  C   UNL     1      47.509   1.379   6.549  0.00  0.00    +0.000 C 
ATOM     20  C   UNL     1      46.685   2.301   7.378  0.00  0.00    +0.000 A 
ATOM     21  C   UNL     1      45.894   1.879   8.422  0.00  0.00    +0.000 A 
ATOM     22  N   UNL     1      45.126   2.704   9.168  0.00  0.00    +0.000 NA
ATOM     23  C   UNL     1      45.140   4.007   8.841  0.00  0.00    +0.000 A 
ATOM     24  N   UNL     1      44.305   4.898   9.473  0.00  0.00    +0.000 N 
ATOM     25  N   UNL     1      45.889   4.515   7.858  0.00  0.00    +0.000 NA
ATOM     26  C   UNL     1      46.644   3.657   7.147  0.00  0.00    +0.000 A 
ATOM     27  H   UNL     1      44.567   5.840   9.219  0.00  0.00    +0.000 HD
ENDBRANCH  18  24
ENDBRANCH   1  18
TORSDOF 4
ENDMDL
MODEL 7
REMARK VINA RESULT:    -7.308      2.836      7.605
REMARK INTER + INTRA:          -9.556
REMARK INTER:                  -8.938
REMARK INTRA:                  -0.618
REMARK UNBOUND:                -0.539
REMARK  Name = 
REMARK  5 active torsions:
REMARK  status: ('A' for Active; 'I' for Inactive)
REMARK    1  A    between atoms: C_1  and  C_2
REMARK    2  A    between atoms: N_6  and  C_7
REMARK    3  A    between atoms: C_7  and  C_8
REMARK    4  A    between atoms: C_12  and  C_13
REMARK    5  A    between atoms: C_17  and  C_18
REMARK                            x       y       z     vdW  Elec       q    Type
REMARK                         _______ _______ _______ _____ _____    ______ ____
ROOT
ATOM      1  C   UNL     1      48.275   6.845  14.407  0.00  0.00    +0.000 A 
ATOM      2  C   UNL     1      49.083   7.611  13.570  0.00  0.00    +0.000 A 
ATOM      3  C   UNL     1      48.720   7.768  12.236  0.00  0.00    +0.000 A 
ATOM      4  C   UNL     1      47.568   7.155  11.766  0.00  0.00    +0.000 A 
ATOM      5  C   UNL     1      46.794   6.399  12.646  0.00  0.00    +0.000 A 
ATOM      6  N   UNL     1      47.144   6.239  13.953  0.00  0.00    +0.000 NA
ENDROOT
BRANCH   5   7
ATOM      7  C   UNL     1      45.557   5.734  12.216  0.00  0.00    +0.000 A 
ATOM      8  C   UNL     1      44.364   5.881  12.924  0.00  0.00    +0.000 A 
ATOM      9  N   UNL     1      43.185   5.301  12.579  0.00  0.00    +0.000 NA
ATOM     10  C   UNL     1      43.184   4.543  11.456  0.00  0.00    +0.000 A 
ATOM     11  C   UNL     1      44.303   4.310  10.677  0.00  0.00    +0.000 A 
ATOM     12  C   UNL     1      45.499   4.914  11.077  0.00  0.00    +0.000 A 
BRANCH  11  13
ATOM     13  C   UNL     1      44.303   3.481   9.444  0.00  0.00    +0.000 C 
ATOM     14  N   UNL     1      44.216   4.103   8.229  0.00  0.00    +0.000 N 
ATOM     15  O   UNL     1      44.375   2.262   9.505  0.00  0.00    +0.000 OA
ATOM     16  H   UNL     1      44.150   5.094   8.070  0.00  0.00    +0.000 HD
ATOM     17  H   UNL     1      44.220   3.499   7.414  0.00  0.00    +0.000 HD
ENDBRANCH  11  13
ENDBRANCH   5   7
BRANCH   1  18
ATOM     18  C   UNL     1      48.627   6.680  15.881  0.00  0.00    +0.000 C 
BRANCH  18  24
ATOM     19  C   UNL     1      51.598   1.190  17.697  0.00  0.00    +0.000 C 
ATOM     20  C   UNL     1      50.723   2.333  17.318  0.00  0.00    +0.000 A 
ATOM     21  C   UNL     1      51.148   3.642  17.310  0.00  0.00    +0.000 A 
ATOM     22  N   UNL     1      50.357   4.689  16.988  0.00  0.00    +0.000 NA
ATOM     23  C   UNL     1      49.079   4.413  16.677  0.00  0.00    +0.000 A 
ATOM     24  N   UNL     1      48.178   5.425  16.446  0.00  0.00    +0.000 N 
ATOM     25  N   UNL     1      48.579   3.174  16.639  0.00  0.00    +0.000 NA
ATOM     26  C   UNL     1      49.406   2.161  16.959  0.00  0.00    +0.000 A 
ATOM     27  H   UNL     1      47.325   5.035  16.071  0.00  0.00    +0.000 HD
ENDBRANCH  18  24
ENDBRANCH   1  18
TORSDOF 4
ENDMDL
MODEL 8
REMARK VINA RESULT:    -6.868      2.826      8.037
REMARK INTER + INTRA:          -9.014
REMARK INTER:                  -8.447
REMARK INTRA:                  -0.567
REMARK UNBOUND:                -0.539
REMARK  Name = 
REMARK  5 active torsions:
REMARK  status: ('A' for Active; 'I' for Inactive)
REMARK    1  A    between atoms: C_1  and  C_2
REMARK    2  A    between atoms: N_6  and  C_7
REMARK    3  A    between atoms: C_7  and  C_8
REMARK    4  A    between atoms: C_12  and  C_13
REMARK    5  A    between atoms: C_17  and  C_18
REMARK                            x       y       z     vdW  Elec       q    Type
REMARK                         _______ _______ _______ _____ _____    ______ ____
ROOT
ATOM      1  C   UNL     1      47.271   7.658  13.654  0.00  0.00    +0.000 A 
ATOM      2  C   UNL     1      46.865   8.889  13.142  0.00  0.00    +0.000 A 
ATOM      3  C   UNL     1      45.793   8.935  12.257  0.00  0.00    +0.000 A 
ATOM      4  C   UNL     1      45.155   7.757  11.897  0.00  0.00    +0.000 A 
ATOM      5  C   UNL     1      45.600   6.551  12.438  0.00  0.00    +0.000 A 
ATOM      6  N   UNL     1      46.650   6.498  13.304  0.00  0.00    +0.000 NA
ENDROOT
BRANCH   5   7
ATOM      7  C   UNL     1      44.961   5.271  12.108  0.00  0.00    +0.000 A 
ATOM      8  C   UNL     1      44.173   4.587  13.033  0.00  0.00    +0.000 A 
ATOM      9  N   UNL     1      43.548   3.405  12.792  0.00  0.00    +0.000 NA
ATOM     10  C   UNL     1      43.702   2.875  11.555  0.00  0.00    +0.000 A 
ATOM     11  C   UNL     1      44.469   3.448  10.557  0.00  0.00    +0.000 A 
ATOM     12  C   UNL     1      45.106   4.658  10.852  0.00  0.00    +0.000 A 
BRANCH  11  13
ATOM     13  C   UNL     1      44.636   2.870   9.198  0.00  0.00    +0.000 C 
ATOM     14  N   UNL     1      44.308   3.631   8.110  0.00  0.00    +0.000 N 
ATOM     15  O   UNL     1      45.056   1.732   9.046  0.00  0.00    +0.000 OA
ATOM     16  H   UNL     1      43.954   4.573   8.126  0.00  0.00    +0.000 HD
ATOM     17  H   UNL     1      44.439   3.198   7.203  0.00  0.00    +0.000 HD
ENDBRANCH  11  13
ENDBRANCH   5   7
BRANCH   1  18
ATOM     18  C   UNL     1      48.421   7.576  14.650  0.00  0.00    +0.000 C 
BRANCH  18  24
ATOM     19  C   UNL     1      49.908   5.154  20.497  0.00  0.00    +0.000 C 
ATOM     20  C   UNL     1      49.602   5.496  19.081  0.00  0.00    +0.000 A 
ATOM     21  C   UNL     1      48.882   6.609  18.709  0.00  0.00    +0.000 A 
ATOM     22  N   UNL     1      48.581   6.919  17.429  0.00  0.00    +0.000 NA
ATOM     23  C   UNL     1      49.004   6.065  16.482  0.00  0.00    +0.000 A 
ATOM     24  N   UNL     1      48.647   6.242  15.166  0.00  0.00    +0.000 N 
ATOM     25  N   UNL     1      49.724   4.970  16.741  0.00  0.00    +0.000 NA
ATOM     26  C   UNL     1      50.009   4.706  18.030  0.00  0.00    +0.000 A 
ATOM     27  H   UNL     1      49.183   5.613  14.585  0.00  0.00    +0.000 HD
ENDBRANCH  18  24
ENDBRANCH   1  18
TORSDOF 4
ENDMDL
MODEL 9
REMARK VINA RESULT:    -6.813      1.538      2.394
REMARK INTER + INTRA:          -8.946
REMARK INTER:                  -8.473
REMARK INTRA:                  -0.473
REMARK UNBOUND:                -0.539
REMARK  Name = 
REMARK  5 active torsions:
REMARK  status: ('A' for Active; 'I' for Inactive)
REMARK    1  A    between atoms: C_1  and  C_2
REMARK    2  A    between atoms: N_6  and  C_7
REMARK    3  A    between atoms: C_7  and  C_8
REMARK    4  A    between atoms: C_12  and  C_13
REMARK    5  A    between atoms: C_17  and  C_18
REMARK                            x       y       z     vdW  Elec       q    Type
REMARK                         _______ _______ _______ _____ _____    ______ ____
ROOT
ATOM      1  C   UNL     1      45.526   6.281  12.337  0.00  0.00    +0.000 A 
ATOM      2  C   UNL     1      46.179   7.030  11.361  0.00  0.00    +0.000 A 
ATOM      3  C   UNL     1      47.490   7.438  11.583  0.00  0.00    +0.000 A 
ATOM      4  C   UNL     1      48.118   7.098  12.773  0.00  0.00    +0.000 A 
ATOM      5  C   UNL     1      47.419   6.346  13.717  0.00  0.00    +0.000 A 
ATOM      6  N   UNL     1      46.135   5.944  13.507  0.00  0.00    +0.000 NA
ENDROOT
BRANCH   5   7
ATOM      7  C   UNL     1      48.029   5.942  14.991  0.00  0.00    +0.000 A 
ATOM      8  C   UNL     1      49.130   6.615  15.521  0.00  0.00    +0.000 A 
ATOM      9  N   UNL     1      49.737   6.299  16.694  0.00  0.00    +0.000 NA
ATOM     10  C   UNL     1      49.213   5.263  17.392  0.00  0.00    +0.000 A 
ATOM     11  C   UNL     1      48.134   4.509  16.968  0.00  0.00    +0.000 A 
ATOM     12  C   UNL     1      47.548   4.860  15.747  0.00  0.00    +0.000 A 
BRANCH  11  13
ATOM     13  C   UNL     1      47.556   3.375  17.734  0.00  0.00    +0.000 C 
ATOM     14  N   UNL     1      48.208   2.930  18.850  0.00  0.00    +0.000 N 
ATOM     15  O   UNL     1      46.516   2.839  17.377  0.00  0.00    +0.000 OA
ATOM     16  H   UNL     1      49.067   3.298  19.226  0.00  0.00    +0.000 HD
ATOM     17  H   UNL     1      47.779   2.155  19.343  0.00  0.00    +0.000 HD
ENDBRANCH  11  13
ENDBRANCH   5   7
BRANCH   1  18
ATOM     18  C   UNL     1      44.101   5.790  12.111  0.00  0.00    +0.000 C 
BRANCH  18  24
ATOM     19  C   UNL     1      46.007   1.140   7.987  0.00  0.00    +0.000 C 
ATOM     20  C   UNL     1      45.472   2.301   8.749  0.00  0.00    +0.000 A 
ATOM     21  C   UNL     1      45.301   2.298  10.115  0.00  0.00    +0.000 A 
ATOM     22  N   UNL     1      44.797   3.338  10.814  0.00  0.00    +0.000 NA
ATOM     23  C   UNL     1      44.432   4.423  10.111  0.00  0.00    +0.000 A 
ATOM     24  N   UNL     1      43.807   5.481  10.727  0.00  0.00    +0.000 N 
ATOM     25  N   UNL     1      44.576   4.529   8.787  0.00  0.00    +0.000 NA
ATOM     26  C   UNL     1      45.091   3.471   8.133  0.00  0.00    +0.000 A 
ATOM     27  H   UNL     1      43.759   6.261  10.086  0.00  0.00    +0.000 HD
ENDBRANCH  18  24
ENDBRANCH   1  18
TORSDOF 4
ENDMDL
