MODEL 1
REMARK VINA RESULT:    -7.158      0.000      0.000
REMARK INTER + INTRA:          -9.708
REMARK INTER:                  -9.041
REMARK INTRA:                  -0.668
REMARK UNBOUND:                -0.668
REMARK  Name = 
REMARK  5 active torsions:
REMARK  status: ('A' for Active; 'I' for Inactive)
REMARK    1  A    between atoms: N_1  and  C_2
REMARK    2  A    between atoms: C_2  and  C_3
REMARK    3  A    between atoms: C_6  and  C_7
REMARK    4  A    between atoms: C_7  and  N_8
REMARK    5  A    between atoms: C_13  and  C_14
REMARK                            x       y       z     vdW  Elec       q    Type
REMARK                         _______ _______ _______ _____ _____    ______ ____
ROOT
ATOM      1  N   UNL     1      44.564   5.029  10.597  0.00  0.00    +0.000 N 
ATOM      2  C   UNL     1      43.831   4.054  11.233  0.00  0.00    +0.000 A 
ATOM      3  C   UNL     1      44.114   2.847  10.635  0.00  0.00    +0.000 A 
ATOM      4  C   UNL     1      44.982   3.108   9.546  0.00  0.00    +0.000 A 
ATOM      5  C   UNL     1      45.576   2.316   8.554  0.00  0.00    +0.000 A 
ATOM      6  C   UNL     1      46.349   2.962   7.591  0.00  0.00    +0.000 A 
ATOM      7  C   UNL     1      46.553   4.337   7.701  0.00  0.00    +0.000 A 
ATOM      8  N   UNL     1      46.027   5.144   8.660  0.00  0.00    +0.000 NA
ATOM      9  C   UNL     1      45.245   4.479   9.538  0.00  0.00    +0.000 A 
ENDROOT
BRANCH   6  10
ATOM     10  C   UNL     1      46.943   2.228   6.454  0.00  0.00    +0.000 C 
ATOM     11  N   UNL     1      47.302   2.962   5.355  0.00  0.00    +0.000 N 
ATOM     12  O   UNL     1      47.140   1.026   6.503  0.00  0.00    +0.000 OA
ATOM     13  H   UNL     1      47.334   3.972   5.345  0.00  0.00    +0.000 HD
ATOM     14  H   UNL     1      47.794   2.467   4.620  0.00  0.00    +0.000 HD
ENDBRANCH   6  10
BRANCH   1  15
ATOM     15  C   UNL     1      44.682   6.399  11.064  0.00  0.00    +0.000 C 
BRANCH  15  19
ATOM     16  C   UNL     1      47.683   8.473  12.164  0.00  0.00    +0.000 C 
ATOM     17  C   UNL     1      47.777   7.003  11.716  0.00  0.00    +0.000 C 
ATOM     18  C   UNL     1      46.819   6.088  12.485  0.00  0.00    +0.000 C 
ATOM     19  C   UNL     1      45.355   6.567  12.442  0.00  0.00    +0.000 C 
ATOM     20  C   UNL     1      45.278   8.041  12.886  0.00  0.00    +0.000 C 
ATOM     21  C   UNL     1      46.218   8.942  12.082  0.00  0.00    +0.000 C 
BRANCH  16  22
ATOM     22  C   UNL     1      48.313   8.660  13.561  0.00  0.00    +0.000 C 
BRANCH  22  23
ATOM     23  N   UNL     1      48.112  10.006  14.085  0.00  0.00    +0.000 NA
ATOM     24  H   UNL     1      48.707  10.139  14.903  0.00  0.00    +0.000 HD
ATOM     25  H   UNL     1      47.158  10.102  14.427  0.00  0.00    +0.000 HD
ENDBRANCH  22  23
ENDBRANCH  16  22
ENDBRANCH  15  19
ENDBRANCH   1  15
TORSDOF 5
ENDMDL
MODEL 2
REMARK VINA RESULT:    -5.888      4.643      6.134
REMARK INTER + INTRA:          -8.105
REMARK INTER:                  -7.664
REMARK INTRA:                  -0.441
REMARK UNBOUND:                -0.668
REMARK  Name = 
REMARK  5 active torsions:
REMARK  status: ('A' for Active; 'I' for Inactive)
REMARK    1  A    between atoms: N_1  and  C_2
REMARK    2  A    between atoms: C_2  and  C_3
REMARK    3  A    between atoms: C_6  and  C_7
REMARK    4  A    between atoms: C_7  and  N_8
REMARK    5  A    between atoms: C_13  and  C_14
REMARK                            x       y       z     vdW  Elec       q    Type
REMARK                         _______ _______ _______ _____ _____    ______ ____
ROOT
ATOM      1  N   UNL     1      47.513   5.382  14.526  0.00  0.00    +0.000 N 
ATOM      2  C   UNL     1      47.984   6.608  14.115  0.00  0.00    +0.000 A 
ATOM      3  C   UNL     1      47.357   6.934  12.935  0.00  0.00    +0.000 A 
ATOM      4  C   UNL     1      46.541   5.834  12.571  0.00  0.00    +0.000 A 
ATOM      5  C   UNL     1      45.710   5.549  11.480  0.00  0.00    +0.000 A 
ATOM      6  C   UNL     1      45.096   4.298  11.448  0.00  0.00    +0.000 A 
ATOM      7  C   UNL     1      45.277   3.429  12.523  0.00  0.00    +0.000 A 
ATOM      8  N   UNL     1      46.046   3.670  13.618  0.00  0.00    +0.000 NA
ATOM      9  C   UNL     1      46.660   4.873  13.577  0.00  0.00    +0.000 A 
ENDROOT
BRANCH   6  10
ATOM     10  C   UNL     1      44.272   3.868  10.298  0.00  0.00    +0.000 C 
ATOM     11  N   UNL     1      44.126   4.758   9.267  0.00  0.00    +0.000 N 
ATOM     12  O   UNL     1      43.774   2.757  10.249  0.00  0.00    +0.000 OA
ATOM     13  H   UNL     1      44.670   5.605   9.179  0.00  0.00    +0.000 HD
ATOM     14  H   UNL     1      43.640   4.422   8.444  0.00  0.00    +0.000 HD
ENDBRANCH   6  10
BRANCH   1  15
ATOM     15  C   UNL     1      47.792   4.791  15.822  0.00  0.00    +0.000 C 
BRANCH  15  19
ATOM     16  C   UNL     1      48.650   4.592  19.529  0.00  0.00    +0.000 C 
ATOM     17  C   UNL     1      47.666   5.615  18.932  0.00  0.00    +0.000 C 
ATOM     18  C   UNL     1      48.272   6.414  17.775  0.00  0.00    +0.000 C 
ATOM     19  C   UNL     1      48.858   5.525  16.662  0.00  0.00    +0.000 C 
ATOM     20  C   UNL     1      49.836   4.503  17.276  0.00  0.00    +0.000 C 
ATOM     21  C   UNL     1      49.199   3.692  18.406  0.00  0.00    +0.000 C 
BRANCH  16  22
ATOM     22  C   UNL     1      49.753   5.306  20.341  0.00  0.00    +0.000 C 
BRANCH  22  23
ATOM     23  N   UNL     1      50.797   4.389  20.784  0.00  0.00    +0.000 NA
ATOM     24  H   UNL     1      51.112   3.833  19.989  0.00  0.00    +0.000 HD
ATOM     25  H   UNL     1      50.408   3.720  21.445  0.00  0.00    +0.000 HD
ENDBRANCH  22  23
ENDBRANCH  16  22
ENDBRANCH  15  19
ENDBRANCH   1  15
TORSDOF 5
ENDMDL
MODEL 3
REMARK VINA RESULT:    -5.865      4.885      8.239
REMARK INTER + INTRA:          -8.075
REMARK INTER:                  -7.597
REMARK INTRA:                  -0.478
REMARK UNBOUND:                -0.668
REMARK  Name = 
REMARK  5 active torsions:
REMARK  status: ('A' for Active; 'I' for Inactive)
REMARK    1  A    between atoms: N_1  and  C_2
REMARK    2  A    between atoms: C_2  and  C_3
REMARK    3  A    between atoms: C_6  and  C_7
REMARK    4  A    between atoms: C_7  and  N_8
REMARK    5  A    between atoms: C_13  and  C_14
REMARK                            x       y       z     vdW  Elec       q    Type
REMARK                         _______ _______ _______ _____ _____    ______ ____
ROOT
ATOM      1  N   UNL     1      48.113   6.600  14.206  0.00  0.00    +0.000 N 
ATOM      2  C   UNL     1      48.668   7.851  14.343  0.00  0.00    +0.000 A 
ATOM      3  C   UNL     1      49.298   7.908  15.566  0.00  0.00    +0.000 A 
ATOM      4  C   UNL     1      49.046   6.681  16.228  0.00  0.00    +0.000 A 
ATOM      5  C   UNL     1      49.376   6.163  17.488  0.00  0.00    +0.000 A 
ATOM      6  C   UNL     1      48.887   4.898  17.811  0.00  0.00    +0.000 A 
ATOM      7  C   UNL     1      48.165   4.188  16.852  0.00  0.00    +0.000 A 
ATOM      8  N   UNL     1      47.847   4.633  15.608  0.00  0.00    +0.000 NA
ATOM      9  C   UNL     1      48.299   5.882  15.363  0.00  0.00    +0.000 A 
ENDROOT
BRANCH   6  10
ATOM     10  C   UNL     1      49.104   4.302  19.146  0.00  0.00    +0.000 C 
ATOM     11  N   UNL     1      48.401   3.165  19.444  0.00  0.00    +0.000 N 
ATOM     12  O   UNL     1      49.901   4.777  19.937  0.00  0.00    +0.000 OA
ATOM     13  H   UNL     1      47.883   2.633  18.759  0.00  0.00    +0.000 HD
ATOM     14  H   UNL     1      48.626   2.710  20.322  0.00  0.00    +0.000 HD
ENDBRANCH   6  10
BRANCH   1  15
ATOM     15  C   UNL     1      47.532   6.093  12.976  0.00  0.00    +0.000 C 
BRANCH  15  19
ATOM     16  C   UNL     1      44.961   4.198  10.898  0.00  0.00    +0.000 C 
ATOM     17  C   UNL     1      45.648   5.496  10.434  0.00  0.00    +0.000 C 
ATOM     18  C   UNL     1      45.515   6.633  11.451  0.00  0.00    +0.000 C 
ATOM     19  C   UNL     1      46.001   6.246  12.862  0.00  0.00    +0.000 C 
ATOM     20  C   UNL     1      45.309   4.943  13.310  0.00  0.00    +0.000 C 
ATOM     21  C   UNL     1      45.484   3.812  12.294  0.00  0.00    +0.000 C 
BRANCH  16  22
ATOM     22  C   UNL     1      43.424   4.341  10.833  0.00  0.00    +0.000 C 
BRANCH  22  23
ATOM     23  N   UNL     1      42.736   3.216  11.457  0.00  0.00    +0.000 NA
ATOM     24  H   UNL     1      41.973   2.914  10.851  0.00  0.00    +0.000 HD
ATOM     25  H   UNL     1      42.290   3.524  12.320  0.00  0.00    +0.000 HD
ENDBRANCH  22  23
ENDBRANCH  16  22
ENDBRANCH  15  19
ENDBRANCH   1  15
TORSDOF 5
ENDMDL
MODEL 4
REMARK VINA RESULT:    -5.518      1.697      2.060
REMARK INTER + INTRA:          -7.637
REMARK INTER:                  -6.981
REMARK INTRA:                  -0.656
REMARK UNBOUND:                -0.668
REMARK  Name = 
REMARK  5 active torsions:
REMARK  status: ('A' for Active; 'I' for Inactive)
REMARK    1  A    between atoms: N_1  and  C_2
REMARK    2  A    between atoms: C_2  and  C_3
REMARK    3  A    between atoms: C_6  and  C_7
REMARK    4  A    between atoms: C_7  and  N_8
REMARK    5  A    between atoms: C_13  and  C_14
REMARK                            x       y       z     vdW  Elec       q    Type
REMARK                         _______ _______ _______ _____ _____    ______ ____
ROOT
ATOM      1  N   UNL     1      44.799   6.261  11.993  0.00  0.00    +0.000 N 
ATOM      2  C   UNL     1      44.078   5.517  12.899  0.00  0.00    +0.000 A 
ATOM      3  C   UNL     1      44.025   4.220  12.441  0.00  0.00    +0.000 A 
ATOM      4  C   UNL     1      44.661   4.192  11.175  0.00  0.00    +0.000 A 
ATOM      5  C   UNL     1      44.885   3.198  10.214  0.00  0.00    +0.000 A 
ATOM      6  C   UNL     1      45.519   3.577   9.032  0.00  0.00    +0.000 A 
ATOM      7  C   UNL     1      45.959   4.893   8.894  0.00  0.00    +0.000 A 
ATOM      8  N   UNL     1      45.795   5.885   9.809  0.00  0.00    +0.000 NA
ATOM      9  C   UNL     1      45.131   5.480  10.913  0.00  0.00    +0.000 A 
ENDROOT
BRANCH   6  10
ATOM     10  C   UNL     1      45.721   2.624   7.921  0.00  0.00    +0.000 C 
ATOM     11  N   UNL     1      45.990   1.323   8.254  0.00  0.00    +0.000 N 
ATOM     12  O   UNL     1      45.618   2.969   6.756  0.00  0.00    +0.000 OA
ATOM     13  H   UNL     1      45.896   0.956   9.191  0.00  0.00    +0.000 HD
ATOM     14  H   UNL     1      46.033   0.658   7.490  0.00  0.00    +0.000 HD
ENDBRANCH   6  10
BRANCH   1  15
ATOM     15  C   UNL     1      45.235   7.627  12.220  0.00  0.00    +0.000 C 
BRANCH  15  19
ATOM     16  C   UNL     1      48.865   8.697  11.779  0.00  0.00    +0.000 C 
ATOM     17  C   UNL     1      48.396   7.231  11.755  0.00  0.00    +0.000 C 
ATOM     18  C   UNL     1      47.577   6.850  12.991  0.00  0.00    +0.000 C 
ATOM     19  C   UNL     1      46.381   7.789  13.240  0.00  0.00    +0.000 C 
ATOM     20  C   UNL     1      46.865   9.253  13.256  0.00  0.00    +0.000 C 
ATOM     21  C   UNL     1      47.651   9.620  11.996  0.00  0.00    +0.000 C 
BRANCH  16  22
ATOM     22  C   UNL     1      49.985   8.895  12.824  0.00  0.00    +0.000 C 
BRANCH  22  23
ATOM     23  N   UNL     1      51.026   7.880  12.721  0.00  0.00    +0.000 NA
ATOM     24  H   UNL     1      51.053   7.525  11.765  0.00  0.00    +0.000 HD
ATOM     25  H   UNL     1      50.782   7.078  13.300  0.00  0.00    +0.000 HD
ENDBRANCH  22  23
ENDBRANCH  16  22
ENDBRANCH  15  19
ENDBRANCH   1  15
TORSDOF 5
ENDMDL
MODEL 5
REMARK VINA RESULT:    -5.420      4.019      6.752
REMARK INTER + INTRA:          -7.513
REMARK INTER:                  -7.014
REMARK INTRA:                  -0.499
REMARK UNBOUND:                -0.668
REMARK  Name = 
REMARK  5 active torsions:
REMARK  status: ('A' for Active; 'I' for Inactive)
REMARK    1  A    between atoms: N_1  and  C_2
REMARK    2  A    between atoms: C_2  and  C_3
REMARK    3  A    between atoms: C_6  and  C_7
REMARK    4  A    between atoms: C_7  and  N_8
REMARK    5  A    between atoms: C_13  and  C_14
REMARK                            x       y       z     vdW  Elec       q    Type
REMARK                         _______ _______ _______ _____ _____    ______ ____
ROOT
ATOM      1  N   UNL     1      46.050   8.437  12.474  0.00  0.00    +0.000 N 
ATOM      2  C   UNL     1      45.669   9.720  12.159  0.00  0.00    +0.000 A 
ATOM      3  C   UNL     1      46.778  10.398  11.707  0.00  0.00    +0.000 A 
ATOM      4  C   UNL     1      47.887   9.525  11.832  0.00  0.00    +0.000 A 
ATOM      5  C   UNL     1      49.261   9.644  11.583  0.00  0.00    +0.000 A 
ATOM      6  C   UNL     1      50.068   8.550  11.891  0.00  0.00    +0.000 A 
ATOM      7  C   UNL     1      49.469   7.379  12.356  0.00  0.00    +0.000 A 
ATOM      8  N   UNL     1      48.141   7.203  12.584  0.00  0.00    +0.000 NA
ATOM      9  C   UNL     1      47.410   8.307  12.320  0.00  0.00    +0.000 A 
ENDROOT
BRANCH   6  10
ATOM     10  C   UNL     1      51.538   8.607  11.748  0.00  0.00    +0.000 C 
ATOM     11  N   UNL     1      52.151   7.532  11.163  0.00  0.00    +0.000 N 
ATOM     12  O   UNL     1      52.177   9.583  12.103  0.00  0.00    +0.000 OA
ATOM     13  H   UNL     1      51.651   6.795  10.686  0.00  0.00    +0.000 HD
ATOM     14  H   UNL     1      53.145   7.619  10.983  0.00  0.00    +0.000 HD
ENDBRANCH   6  10
BRANCH   1  15
ATOM     15  C   UNL     1      45.127   7.366  12.802  0.00  0.00    +0.000 C 
BRANCH  15  19
ATOM     16  C   UNL     1      44.184   3.691  12.444  0.00  0.00    +0.000 C 
ATOM     17  C   UNL     1      45.583   4.251  12.125  0.00  0.00    +0.000 C 
ATOM     18  C   UNL     1      45.541   5.426  11.144  0.00  0.00    +0.000 C 
ATOM     19  C   UNL     1      44.601   6.561  11.594  0.00  0.00    +0.000 C 
ATOM     20  C   UNL     1      43.207   5.984  11.916  0.00  0.00    +0.000 C 
ATOM     21  C   UNL     1      43.271   4.835  12.923  0.00  0.00    +0.000 C 
BRANCH  16  22
ATOM     22  C   UNL     1      43.617   2.916  11.234  0.00  0.00    +0.000 C 
BRANCH  22  23
ATOM     23  N   UNL     1      42.884   1.721  11.635  0.00  0.00    +0.000 NA
ATOM     24  H   UNL     1      42.940   1.619  12.649  0.00  0.00    +0.000 HD
ATOM     25  H   UNL     1      43.341   0.894  11.255  0.00  0.00    +0.000 HD
ENDBRANCH  22  23
ENDBRANCH  16  22
ENDBRANCH  15  19
ENDBRANCH   1  15
TORSDOF 5
ENDMDL
MODEL 6
REMARK VINA RESULT:    -5.289      2.972      4.532
REMARK INTER + INTRA:          -7.348
REMARK INTER:                  -6.812
REMARK INTRA:                  -0.535
REMARK UNBOUND:                -0.668
REMARK  Name = 
REMARK  5 active torsions:
REMARK  status: ('A' for Active; 'I' for Inactive)
REMARK    1  A    between atoms: N_1  and  C_2
REMARK    2  A    between atoms: C_2  and  C_3
REMARK    3  A    between atoms: C_6  and  C_7
REMARK    4  A    between atoms: C_7  and  N_8
REMARK    5  A    between atoms: C_13  and  C_14
REMARK                            x       y       z     vdW  Elec       q    Type
REMARK                         _______ _______ _______ _____ _____    ______ ____
ROOT
ATOM      1  N   UNL     1      47.536   6.277  13.940  0.00  0.00    +0.000 N 
ATOM      2  C   UNL     1      47.639   5.331  14.933  0.00  0.00    +0.000 A 
ATOM      3  C   UNL     1      46.936   4.217  14.538  0.00  0.00    +0.000 A 
ATOM      4  C   UNL     1      46.314   4.525  13.303  0.00  0.00    +0.000 A 
ATOM      5  C   UNL     1      45.454   3.834  12.439  0.00  0.00    +0.000 A 
ATOM      6  C   UNL     1      44.997   4.510  11.309  0.00  0.00    +0.000 A 
ATOM      7  C   UNL     1      45.467   5.798  11.057  0.00  0.00    +0.000 A 
ATOM      8  N   UNL     1      46.326   6.498  11.844  0.00  0.00    +0.000 NA
ATOM      9  C   UNL     1      46.698   5.820  12.951  0.00  0.00    +0.000 A 
ENDROOT
BRANCH   6  10
ATOM     10  C   UNL     1      44.017   3.900  10.385  0.00  0.00    +0.000 C 
ATOM     11  N   UNL     1      43.943   4.421   9.121  0.00  0.00    +0.000 N 
ATOM     12  O   UNL     1      43.329   2.951  10.718  0.00  0.00    +0.000 OA
ATOM     13  H   UNL     1      44.618   5.072   8.744  0.00  0.00    +0.000 HD
ATOM     14  H   UNL     1      43.339   3.938   8.466  0.00  0.00    +0.000 HD
ENDBRANCH   6  10
BRANCH   1  15
ATOM     15  C   UNL     1      48.299   7.512  13.903  0.00  0.00    +0.000 C 
BRANCH  15  19
ATOM     16  C   UNL     1      50.425  10.217  12.265  0.00  0.00    +0.000 C 
ATOM     17  C   UNL     1      49.352   9.403  11.519  0.00  0.00    +0.000 C 
ATOM     18  C   UNL     1      49.545   7.891  11.670  0.00  0.00    +0.000 C 
ATOM     19  C   UNL     1      49.637   7.433  13.138  0.00  0.00    +0.000 C 
ATOM     20  C   UNL     1      50.710   8.261  13.873  0.00  0.00    +0.000 C 
ATOM     21  C   UNL     1      50.478   9.767  13.737  0.00  0.00    +0.000 C 
BRANCH  16  22
ATOM     22  C   UNL     1      51.786  10.120  11.541  0.00  0.00    +0.000 C 
BRANCH  22  23
ATOM     23  N   UNL     1      52.852  10.794  12.273  0.00  0.00    +0.000 NA
ATOM     24  H   UNL     1      52.786  11.799  12.109  0.00  0.00    +0.000 HD
ATOM     25  H   UNL     1      53.756  10.518  11.893  0.00  0.00    +0.000 HD
ENDBRANCH  22  23
ENDBRANCH  16  22
ENDBRANCH  15  19
ENDBRANCH   1  15
TORSDOF 5
ENDMDL
MODEL 7
REMARK VINA RESULT:    -5.186      3.091      4.653
REMARK INTER + INTRA:          -7.218
REMARK INTER:                  -6.631
REMARK INTRA:                  -0.587
REMARK UNBOUND:                -0.668
REMARK  Name = 
REMARK  5 active torsions:
REMARK  status: ('A' for Active; 'I' for Inactive)
REMARK    1  A    between atoms: N_1  and  C_2
REMARK    2  A    between atoms: C_2  and  C_3
REMARK    3  A    between atoms: C_6  and  C_7
REMARK    4  A    between atoms: C_7  and  N_8
REMARK    5  A    between atoms: C_13  and  C_14
REMARK                            x       y       z     vdW  Elec       q    Type
REMARK                         _______ _______ _______ _____ _____    ______ ____
ROOT
ATOM      1  N   UNL     1      46.021   8.214  12.667  0.00  0.00    +0.000 N 
ATOM      2  C   UNL     1      45.204   9.079  11.976  0.00  0.00    +0.000 A 
ATOM      3  C   UNL     1      44.241   8.336  11.333  0.00  0.00    +0.000 A 
ATOM      4  C   UNL     1      44.531   6.970  11.572  0.00  0.00    +0.000 A 
ATOM      5  C   UNL     1      43.955   5.760  11.161  0.00  0.00    +0.000 A 
ATOM      6  C   UNL     1      44.576   4.581  11.570  0.00  0.00    +0.000 A 
ATOM      7  C   UNL     1      45.682   4.659  12.416  0.00  0.00    +0.000 A 
ATOM      8  N   UNL     1      46.257   5.804  12.867  0.00  0.00    +0.000 NA
ATOM      9  C   UNL     1      45.651   6.918  12.402  0.00  0.00    +0.000 A 
ENDROOT
BRANCH   6  10
ATOM     10  C   UNL     1      44.099   3.257  11.117  0.00  0.00    +0.000 C 
ATOM     11  N   UNL     1      44.971   2.497  10.384  0.00  0.00    +0.000 N 
ATOM     12  O   UNL     1      42.992   2.842  11.412  0.00  0.00    +0.000 OA
ATOM     13  H   UNL     1      45.951   2.715  10.280  0.00  0.00    +0.000 HD
ATOM     14  H   UNL     1      44.671   1.554  10.159  0.00  0.00    +0.000 HD
ENDBRANCH   6  10
BRANCH   1  15
ATOM     15  C   UNL     1      47.034   8.631  13.620  0.00  0.00    +0.000 C 
BRANCH  15  19
ATOM     16  C   UNL     1      50.745   7.879  13.191  0.00  0.00    +0.000 C 
ATOM     17  C   UNL     1      50.153   8.596  14.418  0.00  0.00    +0.000 C 
ATOM     18  C   UNL     1      49.297   9.808  14.040  0.00  0.00    +0.000 C 
ATOM     19  C   UNL     1      48.183   9.474  13.029  0.00  0.00    +0.000 C 
ATOM     20  C   UNL     1      48.790   8.751  11.809  0.00  0.00    +0.000 C 
ATOM     21  C   UNL     1      49.612   7.525  12.209  0.00  0.00    +0.000 C 
BRANCH  16  22
ATOM     22  C   UNL     1      51.871   8.723  12.555  0.00  0.00    +0.000 C 
BRANCH  22  23
ATOM     23  N   UNL     1      53.105   7.965  12.387  0.00  0.00    +0.000 NA
ATOM     24  H   UNL     1      53.182   7.282  13.140  0.00  0.00    +0.000 HD
ATOM     25  H   UNL     1      53.905   8.585  12.501  0.00  0.00    +0.000 HD
ENDBRANCH  22  23
ENDBRANCH  16  22
ENDBRANCH  15  19
ENDBRANCH   1  15
TORSDOF 5
ENDMDL
MODEL 8
REMARK VINA RESULT:    -5.004      3.748      5.957
REMARK INTER + INTRA:          -6.987
REMARK INTER:                  -6.532
REMARK INTRA:                  -0.455
REMARK UNBOUND:                -0.668
REMARK  Name = 
REMARK  5 active torsions:
REMARK  status: ('A' for Active; 'I' for Inactive)
REMARK    1  A    between atoms: N_1  and  C_2
REMARK    2  A    between atoms: C_2  and  C_3
REMARK    3  A    between atoms: C_6  and  C_7
REMARK    4  A    between atoms: C_7  and  N_8
REMARK    5  A    between atoms: C_13  and  C_14
REMARK                            x       y       z     vdW  Elec       q    Type
REMARK                         _______ _______ _______ _____ _____    ______ ____
ROOT
ATOM      1  N   UNL     1      48.040   6.375  13.848  0.00  0.00    +0.000 N 
ATOM      2  C   UNL     1      48.729   7.169  12.960  0.00  0.00    +0.000 A 
ATOM      3  C   UNL     1      47.967   7.297  11.821  0.00  0.00    +0.000 A 
ATOM      4  C   UNL     1      46.817   6.488  11.989  0.00  0.00    +0.000 A 
ATOM      5  C   UNL     1      45.714   6.174  11.183  0.00  0.00    +0.000 A 
ATOM      6  C   UNL     1      44.784   5.268  11.689  0.00  0.00    +0.000 A 
ATOM      7  C   UNL     1      44.954   4.778  12.983  0.00  0.00    +0.000 A 
ATOM      8  N   UNL     1      45.987   5.075  13.815  0.00  0.00    +0.000 NA
ATOM      9  C   UNL     1      46.886   5.916  13.260  0.00  0.00    +0.000 A 
ENDROOT
BRANCH   6  10
ATOM     10  C   UNL     1      43.635   4.805  10.883  0.00  0.00    +0.000 C 
ATOM     11  N   UNL     1      42.402   4.831  11.479  0.00  0.00    +0.000 N 
ATOM     12  O   UNL     1      43.769   4.449   9.724  0.00  0.00    +0.000 OA
ATOM     13  H   UNL     1      42.217   5.293  12.358  0.00  0.00    +0.000 HD
ATOM     14  H   UNL     1      41.609   4.603  10.890  0.00  0.00    +0.000 HD
ENDBRANCH   6  10
BRANCH   1  15
ATOM     15  C   UNL     1      48.429   6.167  15.231  0.00  0.00    +0.000 C 
BRANCH  15  19
ATOM     16  C   UNL     1      49.900   6.592  18.721  0.00  0.00    +0.000 C 
ATOM     17  C   UNL     1      48.586   7.249  18.260  0.00  0.00    +0.000 C 
ATOM     18  C   UNL     1      48.748   8.055  16.968  0.00  0.00    +0.000 C 
ATOM     19  C   UNL     1      49.370   7.241  15.817  0.00  0.00    +0.000 C 
ATOM     20  C   UNL     1      50.681   6.584  16.295  0.00  0.00    +0.000 C 
ATOM     21  C   UNL     1      50.487   5.757  17.568  0.00  0.00    +0.000 C 
BRANCH  16  22
ATOM     22  C   UNL     1      50.877   7.653  19.273  0.00  0.00    +0.000 C 
BRANCH  22  23
ATOM     23  N   UNL     1      50.270   8.479  20.310  0.00  0.00    +0.000 NA
ATOM     24  H   UNL     1      50.350   9.461  20.045  0.00  0.00    +0.000 HD
ATOM     25  H   UNL     1      50.801   8.389  21.174  0.00  0.00    +0.000 HD
ENDBRANCH  22  23
ENDBRANCH  16  22
ENDBRANCH  15  19
ENDBRANCH   1  15
TORSDOF 5
ENDMDL
MODEL 9
REMARK VINA RESULT:    -4.744      5.660      8.556
REMARK INTER + INTRA:          -6.659
REMARK INTER:                  -6.370
REMARK INTRA:                  -0.289
REMARK UNBOUND:                -0.668
REMARK  Name = 
REMARK  5 active torsions:
REMARK  status: ('A' for Active; 'I' for Inactive)
REMARK    1  A    between atoms: N_1  and  C_2
REMARK    2  A    between atoms: C_2  and  C_3
REMARK    3  A    between atoms: C_6  and  C_7
REMARK    4  A    between atoms: C_7  and  N_8
REMARK    5  A    between atoms: C_13  and  C_14
REMARK                            x       y       z     vdW  Elec       q    Type
REMARK                         _______ _______ _______ _____ _____    ______ ____
ROOT
ATOM      1  N   UNL     1      47.923   4.993  15.933  0.00  0.00    +0.000 N 
ATOM      2  C   UNL     1      47.150   4.001  16.489  0.00  0.00    +0.000 A 
ATOM      3  C   UNL     1      47.836   3.474  17.560  0.00  0.00    +0.000 A 
ATOM      4  C   UNL     1      49.102   4.109  17.605  0.00  0.00    +0.000 A 
ATOM      5  C   UNL     1      50.235   3.978  18.419  0.00  0.00    +0.000 A 
ATOM      6  C   UNL     1      51.344   4.763  18.110  0.00  0.00    +0.000 A 
ATOM      7  C   UNL     1      51.250   5.682  17.065  0.00  0.00    +0.000 A 
ATOM      8  N   UNL     1      50.165   5.870  16.268  0.00  0.00    +0.000 NA
ATOM      9  C   UNL     1      49.137   5.050  16.575  0.00  0.00    +0.000 A 
ENDROOT
BRANCH   6  10
ATOM     10  C   UNL     1      52.616   4.635  18.851  0.00  0.00    +0.000 C 
ATOM     11  N   UNL     1      52.653   3.725  19.874  0.00  0.00    +0.000 N 
ATOM     12  O   UNL     1      53.602   5.283  18.546  0.00  0.00    +0.000 OA
ATOM     13  H   UNL     1      51.931   3.038  20.037  0.00  0.00    +0.000 HD
ATOM     14  H   UNL     1      53.554   3.575  20.315  0.00  0.00    +0.000 HD
ENDBRANCH   6  10
BRANCH   1  15
ATOM     15  C   UNL     1      47.462   5.910  14.906  0.00  0.00    +0.000 C 
BRANCH  15  19
ATOM     16  C   UNL     1      44.743   5.966  12.237  0.00  0.00    +0.000 C 
ATOM     17  C   UNL     1      44.919   4.825  13.256  0.00  0.00    +0.000 C 
ATOM     18  C   UNL     1      46.341   4.255  13.268  0.00  0.00    +0.000 C 
ATOM     19  C   UNL     1      47.425   5.330  13.477  0.00  0.00    +0.000 C 
ATOM     20  C   UNL     1      47.232   6.467  12.454  0.00  0.00    +0.000 C 
ATOM     21  C   UNL     1      45.815   7.043  12.484  0.00  0.00    +0.000 C 
BRANCH  16  22
ATOM     22  C   UNL     1      44.745   5.414  10.794  0.00  0.00    +0.000 C 
BRANCH  22  23
ATOM     23  N   UNL     1      43.401   5.316  10.237  0.00  0.00    +0.000 NA
ATOM     24  H   UNL     1      42.787   5.967  10.727  0.00  0.00    +0.000 HD
ATOM     25  H   UNL     1      43.018   4.391  10.425  0.00  0.00    +0.000 HD
ENDBRANCH  22  23
ENDBRANCH  16  22
ENDBRANCH  15  19
ENDBRANCH   1  15
TORSDOF 5
ENDMDL
