MODEL 1
REMARK VINA RESULT:    -7.756      0.000      0.000
REMARK INTER + INTRA:         -11.296
REMARK INTER:                 -10.476
REMARK INTRA:                  -0.820
REMARK UNBOUND:                -0.820
REMARK  Name = 
REMARK  6 active torsions:
REMARK  status: ('A' for Active; 'I' for Inactive)
REMARK    1  A    between atoms: C_2  and  C_19
REMARK    2  A    between atoms: N_3  and  C_4
REMARK    3  A    between atoms: C_4  and  C_5
REMARK    4  A    between atoms: C_8  and  O_9
REMARK    5  A    between atoms: O_9  and  C_10
REMARK    6  A    between atoms: C_10  and  C_11
REMARK                            x       y       z     vdW  Elec       q    Type
REMARK                         _______ _______ _______ _____ _____    ______ ____
ROOT
ATOM      1  O   UNL     1      48.463   8.189  16.656  0.00  0.00    +0.000 OA
ATOM      2  C   UNL     1      48.675   7.029  16.350  0.00  0.00    +0.000 C 
ATOM      3  N   UNL     1      48.308   6.452  15.154  0.00  0.00    +0.000 N 
ATOM      4  H   UNL     1      48.735   5.579  14.897  0.00  0.00    +0.000 HD
ENDROOT
BRANCH   2   5
ATOM      5  C   UNL     1      49.559   6.146  17.107  0.00  0.00    +0.000 A 
ATOM      6  C   UNL     1      50.741   6.588  17.680  0.00  0.00    +0.000 A 
ATOM      7  S   UNL     1      51.818   5.284  17.977  0.00  0.00    +0.000 S 
ATOM      8  C   UNL     1      50.657   4.137  17.480  0.00  0.00    +0.000 A 
ATOM      9  N   UNL     1      50.947   2.818  17.322  0.00  0.00    +0.000 NA
ATOM     10  C   UNL     1      49.933   2.090  16.983  0.00  0.00    +0.000 A 
ATOM     11  N   UNL     1      48.644   2.547  16.844  0.00  0.00    +0.000 N 
ATOM     12  C   UNL     1      48.298   3.866  17.023  0.00  0.00    +0.000 A 
ATOM     13  O   UNL     1      47.133   4.245  16.992  0.00  0.00    +0.000 OA
ATOM     14  C   UNL     1      49.434   4.731  17.256  0.00  0.00    +0.000 A 
ATOM     15  H   UNL     1      47.881   1.908  16.673  0.00  0.00    +0.000 HD
ENDBRANCH   2   5
BRANCH   3  16
ATOM     16  C   UNL     1      47.907   7.242  14.012  0.00  0.00    +0.000 C 
BRANCH  16  17
ATOM     17  C   UNL     1      46.962   6.446  13.136  0.00  0.00    +0.000 A 
ATOM     18  C   UNL     1      46.565   6.954  11.903  0.00  0.00    +0.000 A 
ATOM     19  C   UNL     1      45.714   6.198  11.097  0.00  0.00    +0.000 A 
ATOM     20  C   UNL     1      45.277   4.951  11.532  0.00  0.00    +0.000 A 
ATOM     21  C   UNL     1      45.769   4.495  12.747  0.00  0.00    +0.000 A 
ATOM     22  N   UNL     1      46.603   5.204  13.555  0.00  0.00    +0.000 NA
BRANCH  20  23
ATOM     23  O   UNL     1      44.434   4.124  10.845  0.00  0.00    +0.000 OA
BRANCH  23  24
ATOM     24  C   UNL     1      44.307   4.424   9.447  0.00  0.00    +0.000 C 
BRANCH  24  25
ATOM     25  C   UNL     1      45.223   3.553   8.613  0.00  0.00    +0.000 A 
ATOM     26  N   UNL     1      45.976   4.145   7.661  0.00  0.00    +0.000 NA
ATOM     27  C   UNL     1      46.823   3.346   6.985  0.00  0.00    +0.000 A 
ATOM     28  C   UNL     1      46.952   1.998   7.220  0.00  0.00    +0.000 A 
ATOM     29  C   UNL     1      46.142   1.490   8.206  0.00  0.00    +0.000 A 
ATOM     30  N   UNL     1      45.277   2.237   8.916  0.00  0.00    +0.000 NA
ENDBRANCH  24  25
ENDBRANCH  23  24
ENDBRANCH  20  23
ENDBRANCH  16  17
ENDBRANCH   3  16
TORSDOF 6
ENDMDL
MODEL 2
REMARK VINA RESULT:    -7.646      2.282      3.005
REMARK INTER + INTRA:         -11.148
REMARK INTER:                 -10.318
REMARK INTRA:                  -0.831
REMARK UNBOUND:                -0.820
REMARK  Name = 
REMARK  6 active torsions:
REMARK  status: ('A' for Active; 'I' for Inactive)
REMARK    1  A    between atoms: C_2  and  C_19
REMARK    2  A    between atoms: N_3  and  C_4
REMARK    3  A    between atoms: C_4  and  C_5
REMARK    4  A    between atoms: C_8  and  O_9
REMARK    5  A    between atoms: O_9  and  C_10
REMARK    6  A    between atoms: C_10  and  C_11
REMARK                            x       y       z     vdW  Elec       q    Type
REMARK                         _______ _______ _______ _____ _____    ______ ____
ROOT
ATOM      1  O   UNL     1      49.362   4.175  16.936  0.00  0.00    +0.000 OA
ATOM      2  C   UNL     1      48.840   5.214  16.574  0.00  0.00    +0.000 C 
ATOM      3  N   UNL     1      47.865   5.307  15.605  0.00  0.00    +0.000 N 
ATOM      4  H   UNL     1      47.330   6.156  15.550  0.00  0.00    +0.000 HD
ENDROOT
BRANCH   2   5
ATOM      5  C   UNL     1      48.998   6.484  17.280  0.00  0.00    +0.000 A 
ATOM      6  C   UNL     1      49.895   7.457  16.868  0.00  0.00    +0.000 A 
ATOM      7  S   UNL     1      50.286   8.530  18.151  0.00  0.00    +0.000 S 
ATOM      8  C   UNL     1      49.158   7.785  19.193  0.00  0.00    +0.000 A 
ATOM      9  N   UNL     1      49.068   8.087  20.516  0.00  0.00    +0.000 NA
ATOM     10  C   UNL     1      48.127   7.456  21.139  0.00  0.00    +0.000 A 
ATOM     11  N   UNL     1      47.228   6.596  20.552  0.00  0.00    +0.000 N 
ATOM     12  C   UNL     1      47.262   6.284  19.214  0.00  0.00    +0.000 A 
ATOM     13  O   UNL     1      46.401   5.593  18.683  0.00  0.00    +0.000 OA
ATOM     14  C   UNL     1      48.395   6.856  18.519  0.00  0.00    +0.000 A 
ATOM     15  H   UNL     1      46.456   6.212  21.077  0.00  0.00    +0.000 HD
ENDBRANCH   2   5
BRANCH   3  16
ATOM     16  C   UNL     1      47.138   4.151  15.133  0.00  0.00    +0.000 C 
BRANCH  16  17
ATOM     17  C   UNL     1      46.460   4.465  13.816  0.00  0.00    +0.000 A 
ATOM     18  C   UNL     1      46.848   5.583  13.086  0.00  0.00    +0.000 A 
ATOM     19  C   UNL     1      46.231   5.846  11.862  0.00  0.00    +0.000 A 
ATOM     20  C   UNL     1      45.244   4.988  11.388  0.00  0.00    +0.000 A 
ATOM     21  C   UNL     1      44.962   3.864  12.151  0.00  0.00    +0.000 A 
ATOM     22  N   UNL     1      45.546   3.576  13.345  0.00  0.00    +0.000 NA
BRANCH  20  23
ATOM     23  O   UNL     1      44.558   5.144  10.217  0.00  0.00    +0.000 OA
BRANCH  23  24
ATOM     24  C   UNL     1      44.121   3.919   9.610  0.00  0.00    +0.000 C 
BRANCH  24  25
ATOM     25  C   UNL     1      45.200   3.327   8.728  0.00  0.00    +0.000 A 
ATOM     26  N   UNL     1      45.468   2.009   8.841  0.00  0.00    +0.000 NA
ATOM     27  C   UNL     1      46.389   1.510   7.995  0.00  0.00    +0.000 A 
ATOM     28  C   UNL     1      47.042   2.263   7.049  0.00  0.00    +0.000 A 
ATOM     29  C   UNL     1      46.702   3.593   7.012  0.00  0.00    +0.000 A 
ATOM     30  N   UNL     1      45.790   4.149   7.831  0.00  0.00    +0.000 NA
ENDBRANCH  24  25
ENDBRANCH  23  24
ENDBRANCH  20  23
ENDBRANCH  16  17
ENDBRANCH   3  16
TORSDOF 6
ENDMDL
MODEL 3
REMARK VINA RESULT:    -7.617      2.055      3.497
REMARK INTER + INTRA:         -11.108
REMARK INTER:                 -10.250
REMARK INTRA:                  -0.858
REMARK UNBOUND:                -0.820
REMARK  Name = 
REMARK  6 active torsions:
REMARK  status: ('A' for Active; 'I' for Inactive)
REMARK    1  A    between atoms: C_2  and  C_19
REMARK    2  A    between atoms: N_3  and  C_4
REMARK    3  A    between atoms: C_4  and  C_5
REMARK    4  A    between atoms: C_8  and  O_9
REMARK    5  A    between atoms: O_9  and  C_10
REMARK    6  A    between atoms: C_10  and  C_11
REMARK                            x       y       z     vdW  Elec       q    Type
REMARK                         _______ _______ _______ _____ _____    ______ ____
ROOT
ATOM      1  O   UNL     1      49.780   4.564  16.660  0.00  0.00    +0.000 OA
ATOM      2  C   UNL     1      48.968   5.462  16.797  0.00  0.00    +0.000 C 
ATOM      3  N   UNL     1      47.738   5.511  16.179  0.00  0.00    +0.000 N 
ATOM      4  H   UNL     1      47.052   6.151  16.538  0.00  0.00    +0.000 HD
ENDROOT
BRANCH   2   5
ATOM      5  C   UNL     1      49.081   6.499  17.821  0.00  0.00    +0.000 A 
ATOM      6  C   UNL     1      49.373   6.210  19.144  0.00  0.00    +0.000 A 
ATOM      7  S   UNL     1      48.876   7.482  20.187  0.00  0.00    +0.000 S 
ATOM      8  C   UNL     1      48.413   8.459  18.867  0.00  0.00    +0.000 A 
ATOM      9  N   UNL     1      47.748   9.635  19.020  0.00  0.00    +0.000 NA
ATOM     10  C   UNL     1      47.519  10.261  17.913  0.00  0.00    +0.000 A 
ATOM     11  N   UNL     1      47.943   9.851  16.671  0.00  0.00    +0.000 N 
ATOM     12  C   UNL     1      48.643   8.686  16.471  0.00  0.00    +0.000 A 
ATOM     13  O   UNL     1      49.100   8.378  15.376  0.00  0.00    +0.000 OA
ATOM     14  C   UNL     1      48.786   7.888  17.669  0.00  0.00    +0.000 A 
ATOM     15  H   UNL     1      47.816  10.437  15.858  0.00  0.00    +0.000 HD
ENDBRANCH   2   5
BRANCH   3  16
ATOM     16  C   UNL     1      47.152   4.353  15.544  0.00  0.00    +0.000 C 
BRANCH  16  17
ATOM     17  C   UNL     1      46.601   4.729  14.184  0.00  0.00    +0.000 A 
ATOM     18  C   UNL     1      47.191   5.758  13.458  0.00  0.00    +0.000 A 
ATOM     19  C   UNL     1      46.688   6.078  12.196  0.00  0.00    +0.000 A 
ATOM     20  C   UNL     1      45.610   5.364  11.681  0.00  0.00    +0.000 A 
ATOM     21  C   UNL     1      45.121   4.314  12.447  0.00  0.00    +0.000 A 
ATOM     22  N   UNL     1      45.591   3.975  13.678  0.00  0.00    +0.000 NA
BRANCH  20  23
ATOM     23  O   UNL     1      45.019   5.588  10.471  0.00  0.00    +0.000 OA
BRANCH  23  24
ATOM     24  C   UNL     1      44.295   4.469   9.939  0.00  0.00    +0.000 C 
BRANCH  24  25
ATOM     25  C   UNL     1      45.144   3.676   8.967  0.00  0.00    +0.000 A 
ATOM     26  N   UNL     1      45.819   4.349   8.012  0.00  0.00    +0.000 NA
ATOM     27  C   UNL     1      46.611   3.614   7.208  0.00  0.00    +0.000 A 
ATOM     28  C   UNL     1      46.758   2.253   7.321  0.00  0.00    +0.000 A 
ATOM     29  C   UNL     1      46.028   1.659   8.322  0.00  0.00    +0.000 A 
ATOM     30  N   UNL     1      45.221   2.340   9.156  0.00  0.00    +0.000 NA
ENDBRANCH  24  25
ENDBRANCH  23  24
ENDBRANCH  20  23
ENDBRANCH  16  17
ENDBRANCH   3  16
TORSDOF 6
ENDMDL
MODEL 4
REMARK VINA RESULT:    -7.410      2.676      8.401
REMARK INTER + INTRA:         -10.829
REMARK INTER:                  -9.948
REMARK INTRA:                  -0.882
REMARK UNBOUND:                -0.820
REMARK  Name = 
REMARK  6 active torsions:
REMARK  status: ('A' for Active; 'I' for Inactive)
REMARK    1  A    between atoms: C_2  and  C_19
REMARK    2  A    between atoms: N_3  and  C_4
REMARK    3  A    between atoms: C_4  and  C_5
REMARK    4  A    between atoms: C_8  and  O_9
REMARK    5  A    between atoms: O_9  and  C_10
REMARK    6  A    between atoms: C_10  and  C_11
REMARK                            x       y       z     vdW  Elec       q    Type
REMARK                         _______ _______ _______ _____ _____    ______ ____
ROOT
ATOM      1  O   UNL     1      44.862   7.356  11.492  0.00  0.00    +0.000 OA
ATOM      2  C   UNL     1      45.352   6.245  11.396  0.00  0.00    +0.000 C 
ATOM      3  N   UNL     1      46.622   5.908  11.810  0.00  0.00    +0.000 N 
ATOM      4  H   UNL     1      46.843   4.933  11.915  0.00  0.00    +0.000 HD
ENDROOT
BRANCH   2   5
ATOM      5  C   UNL     1      44.582   5.053  11.047  0.00  0.00    +0.000 A 
ATOM      6  C   UNL     1      43.547   4.577  11.837  0.00  0.00    +0.000 A 
ATOM      7  S   UNL     1      43.232   2.918  11.522  0.00  0.00    +0.000 S 
ATOM      8  C   UNL     1      44.366   2.886  10.247  0.00  0.00    +0.000 A 
ATOM      9  N   UNL     1      44.737   1.738   9.621  0.00  0.00    +0.000 NA
ATOM     10  C   UNL     1      45.572   1.911   8.650  0.00  0.00    +0.000 A 
ATOM     11  N   UNL     1      46.027   3.130   8.206  0.00  0.00    +0.000 N 
ATOM     12  C   UNL     1      45.657   4.319   8.788  0.00  0.00    +0.000 A 
ATOM     13  O   UNL     1      45.990   5.404   8.325  0.00  0.00    +0.000 OA
ATOM     14  C   UNL     1      44.841   4.151   9.971  0.00  0.00    +0.000 A 
ATOM     15  H   UNL     1      46.602   3.202   7.379  0.00  0.00    +0.000 HD
ENDBRANCH   2   5
BRANCH   3  16
ATOM     16  C   UNL     1      47.396   6.760  12.683  0.00  0.00    +0.000 C 
BRANCH  16  17
ATOM     17  C   UNL     1      47.640   6.063  14.006  0.00  0.00    +0.000 A 
ATOM     18  C   UNL     1      46.925   4.914  14.326  0.00  0.00    +0.000 A 
ATOM     19  C   UNL     1      47.178   4.269  15.538  0.00  0.00    +0.000 A 
ATOM     20  C   UNL     1      48.141   4.779  16.403  0.00  0.00    +0.000 A 
ATOM     21  C   UNL     1      48.849   5.894  15.977  0.00  0.00    +0.000 A 
ATOM     22  N   UNL     1      48.630   6.544  14.803  0.00  0.00    +0.000 NA
BRANCH  20  23
ATOM     23  O   UNL     1      48.470   4.250  17.619  0.00  0.00    +0.000 OA
BRANCH  23  24
ATOM     24  C   UNL     1      48.791   2.852  17.599  0.00  0.00    +0.000 C 
BRANCH  24  25
ATOM     25  C   UNL     1      50.288   2.631  17.651  0.00  0.00    +0.000 A 
ATOM     26  N   UNL     1      51.071   3.652  18.057  0.00  0.00    +0.000 NA
ATOM     27  C   UNL     1      52.391   3.396  18.150  0.00  0.00    +0.000 A 
ATOM     28  C   UNL     1      52.951   2.175  17.862  0.00  0.00    +0.000 A 
ATOM     29  C   UNL     1      52.073   1.200  17.456  0.00  0.00    +0.000 A 
ATOM     30  N   UNL     1      50.746   1.396  17.344  0.00  0.00    +0.000 NA
ENDBRANCH  24  25
ENDBRANCH  23  24
ENDBRANCH  20  23
ENDBRANCH  16  17
ENDBRANCH   3  16
TORSDOF 6
ENDMDL
MODEL 5
REMARK VINA RESULT:    -7.407      2.195      2.951
REMARK INTER + INTRA:         -10.825
REMARK INTER:                 -10.141
REMARK INTRA:                  -0.684
REMARK UNBOUND:                -0.820
REMARK  Name = 
REMARK  6 active torsions:
REMARK  status: ('A' for Active; 'I' for Inactive)
REMARK    1  A    between atoms: C_2  and  C_19
REMARK    2  A    between atoms: N_3  and  C_4
REMARK    3  A    between atoms: C_4  and  C_5
REMARK    4  A    between atoms: C_8  and  O_9
REMARK    5  A    between atoms: O_9  and  C_10
REMARK    6  A    between atoms: C_10  and  C_11
REMARK                            x       y       z     vdW  Elec       q    Type
REMARK                         _______ _______ _______ _____ _____    ______ ____
ROOT
ATOM      1  O   UNL     1      48.927   6.588  13.130  0.00  0.00    +0.000 OA
ATOM      2  C   UNL     1      48.100   6.576  14.025  0.00  0.00    +0.000 C 
ATOM      3  N   UNL     1      46.912   7.274  14.005  0.00  0.00    +0.000 N 
ATOM      4  H   UNL     1      46.198   7.013  14.663  0.00  0.00    +0.000 HD
ENDROOT
BRANCH   2   5
ATOM      5  C   UNL     1      48.136   5.636  15.142  0.00  0.00    +0.000 A 
ATOM      6  C   UNL     1      47.278   4.551  15.230  0.00  0.00    +0.000 A 
ATOM      7  S   UNL     1      47.141   3.992  16.849  0.00  0.00    +0.000 S 
ATOM      8  C   UNL     1      48.325   5.095  17.390  0.00  0.00    +0.000 A 
ATOM      9  N   UNL     1      48.604   5.287  18.707  0.00  0.00    +0.000 NA
ATOM     10  C   UNL     1      49.560   6.128  18.928  0.00  0.00    +0.000 A 
ATOM     11  N   UNL     1      50.304   6.752  17.954  0.00  0.00    +0.000 N 
ATOM     12  C   UNL     1      50.078   6.567  16.611  0.00  0.00    +0.000 A 
ATOM     13  O   UNL     1      50.807   7.052  15.754  0.00  0.00    +0.000 OA
ATOM     14  C   UNL     1      48.918   5.748  16.332  0.00  0.00    +0.000 A 
ATOM     15  H   UNL     1      51.102   7.324  18.194  0.00  0.00    +0.000 HD
ENDBRANCH   2   5
BRANCH   3  16
ATOM     16  C   UNL     1      46.379   7.848  12.791  0.00  0.00    +0.000 C 
BRANCH  16  17
ATOM     17  C   UNL     1      45.723   6.772  11.952  0.00  0.00    +0.000 A 
ATOM     18  C   UNL     1      44.506   6.229  12.349  0.00  0.00    +0.000 A 
ATOM     19  C   UNL     1      43.901   5.255  11.552  0.00  0.00    +0.000 A 
ATOM     20  C   UNL     1      44.519   4.845  10.375  0.00  0.00    +0.000 A 
ATOM     21  C   UNL     1      45.701   5.482  10.024  0.00  0.00    +0.000 A 
ATOM     22  N   UNL     1      46.314   6.436  10.775  0.00  0.00    +0.000 NA
BRANCH  20  23
ATOM     23  O   UNL     1      44.039   3.894   9.520  0.00  0.00    +0.000 OA
BRANCH  23  24
ATOM     24  C   UNL     1      44.686   2.617   9.618  0.00  0.00    +0.000 C 
BRANCH  24  25
ATOM     25  C   UNL     1      45.613   2.379   8.444  0.00  0.00    +0.000 A 
ATOM     26  N   UNL     1      46.280   1.207   8.383  0.00  0.00    +0.000 NA
ATOM     27  C   UNL     1      47.045   1.009   7.292  0.00  0.00    +0.000 A 
ATOM     28  C   UNL     1      47.166   1.920   6.271  0.00  0.00    +0.000 A 
ATOM     29  C   UNL     1      46.450   3.082   6.426  0.00  0.00    +0.000 A 
ATOM     30  N   UNL     1      45.669   3.337   7.492  0.00  0.00    +0.000 NA
ENDBRANCH  24  25
ENDBRANCH  23  24
ENDBRANCH  20  23
ENDBRANCH  16  17
ENDBRANCH   3  16
TORSDOF 6
ENDMDL
MODEL 6
REMARK VINA RESULT:    -7.115      2.183      3.120
REMARK INTER + INTRA:         -10.431
REMARK INTER:                  -9.676
REMARK INTRA:                  -0.755
REMARK UNBOUND:                -0.820
REMARK  Name = 
REMARK  6 active torsions:
REMARK  status: ('A' for Active; 'I' for Inactive)
REMARK    1  A    between atoms: C_2  and  C_19
REMARK    2  A    between atoms: N_3  and  C_4
REMARK    3  A    between atoms: C_4  and  C_5
REMARK    4  A    between atoms: C_8  and  O_9
REMARK    5  A    between atoms: O_9  and  C_10
REMARK    6  A    between atoms: C_10  and  C_11
REMARK                            x       y       z     vdW  Elec       q    Type
REMARK                         _______ _______ _______ _____ _____    ______ ____
ROOT
ATOM      1  O   UNL     1      50.062   7.669  15.210  0.00  0.00    +0.000 OA
ATOM      2  C   UNL     1      49.010   7.191  15.594  0.00  0.00    +0.000 C 
ATOM      3  N   UNL     1      47.858   7.118  14.840  0.00  0.00    +0.000 N 
ATOM      4  H   UNL     1      47.130   6.497  15.146  0.00  0.00    +0.000 HD
ENDROOT
BRANCH   2   5
ATOM      5  C   UNL     1      48.880   6.411  16.822  0.00  0.00    +0.000 A 
ATOM      6  C   UNL     1      48.751   5.031  16.818  0.00  0.00    +0.000 A 
ATOM      7  S   UNL     1      48.050   4.464  18.281  0.00  0.00    +0.000 S 
ATOM      8  C   UNL     1      48.060   6.030  18.959  0.00  0.00    +0.000 A 
ATOM      9  N   UNL     1      47.455   6.324  20.140  0.00  0.00    +0.000 NA
ATOM     10  C   UNL     1      47.603   7.551  20.520  0.00  0.00    +0.000 A 
ATOM     11  N   UNL     1      48.348   8.498  19.858  0.00  0.00    +0.000 N 
ATOM     12  C   UNL     1      49.000   8.240  18.676  0.00  0.00    +0.000 A 
ATOM     13  O   UNL     1      49.739   9.061  18.145  0.00  0.00    +0.000 OA
ATOM     14  C   UNL     1      48.732   6.920  18.148  0.00  0.00    +0.000 A 
ATOM     15  H   UNL     1      48.503   9.412  20.259  0.00  0.00    +0.000 HD
ENDBRANCH   2   5
BRANCH   3  16
ATOM     16  C   UNL     1      47.864   7.319  13.409  0.00  0.00    +0.000 C 
BRANCH  16  17
ATOM     17  C   UNL     1      46.928   6.333  12.742  0.00  0.00    +0.000 A 
ATOM     18  C   UNL     1      46.589   5.151  13.391  0.00  0.00    +0.000 A 
ATOM     19  C   UNL     1      45.706   4.263  12.775  0.00  0.00    +0.000 A 
ATOM     20  C   UNL     1      45.174   4.573  11.527  0.00  0.00    +0.000 A 
ATOM     21  C   UNL     1      45.518   5.801  10.979  0.00  0.00    +0.000 A 
ATOM     22  N   UNL     1      46.372   6.690  11.554  0.00  0.00    +0.000 NA
BRANCH  20  23
ATOM     23  O   UNL     1      44.315   3.785  10.816  0.00  0.00    +0.000 OA
BRANCH  23  24
ATOM     24  C   UNL     1      44.212   4.112   9.423  0.00  0.00    +0.000 C 
BRANCH  24  25
ATOM     25  C   UNL     1      45.250   3.371   8.606  0.00  0.00    +0.000 A 
ATOM     26  N   UNL     1      45.436   2.057   8.849  0.00  0.00    +0.000 NA
ATOM     27  C   UNL     1      46.322   1.421   8.059  0.00  0.00    +0.000 A 
ATOM     28  C   UNL     1      47.017   2.035   7.045  0.00  0.00    +0.000 A 
ATOM     29  C   UNL     1      46.760   3.374   6.877  0.00  0.00    +0.000 A 
ATOM     30  N   UNL     1      45.886   4.063   7.634  0.00  0.00    +0.000 NA
ENDBRANCH  24  25
ENDBRANCH  23  24
ENDBRANCH  20  23
ENDBRANCH  16  17
ENDBRANCH   3  16
TORSDOF 6
ENDMDL
MODEL 7
REMARK VINA RESULT:    -6.524      1.523      2.101
REMARK INTER + INTRA:          -9.633
REMARK INTER:                  -9.103
REMARK INTRA:                  -0.530
REMARK UNBOUND:                -0.820
REMARK  Name = 
REMARK  6 active torsions:
REMARK  status: ('A' for Active; 'I' for Inactive)
REMARK    1  A    between atoms: C_2  and  C_19
REMARK    2  A    between atoms: N_3  and  C_4
REMARK    3  A    between atoms: C_4  and  C_5
REMARK    4  A    between atoms: C_8  and  O_9
REMARK    5  A    between atoms: O_9  and  C_10
REMARK    6  A    between atoms: C_10  and  C_11
REMARK                            x       y       z     vdW  Elec       q    Type
REMARK                         _______ _______ _______ _____ _____    ______ ____
ROOT
ATOM      1  O   UNL     1      48.324   6.185  17.374  0.00  0.00    +0.000 OA
ATOM      2  C   UNL     1      49.420   5.881  16.938  0.00  0.00    +0.000 C 
ATOM      3  N   UNL     1      49.962   6.367  15.768  0.00  0.00    +0.000 N 
ATOM      4  H   UNL     1      50.950   6.254  15.620  0.00  0.00    +0.000 HD
ENDROOT
BRANCH   2   5
ATOM      5  C   UNL     1      50.418   5.143  17.709  0.00  0.00    +0.000 A 
ATOM      6  C   UNL     1      51.410   5.777  18.441  0.00  0.00    +0.000 A 
ATOM      7  S   UNL     1      52.733   4.723  18.743  0.00  0.00    +0.000 S 
ATOM      8  C   UNL     1      51.919   3.404  18.030  0.00  0.00    +0.000 A 
ATOM      9  N   UNL     1      52.521   2.208  17.794  0.00  0.00    +0.000 NA
ATOM     10  C   UNL     1      51.738   1.312  17.289  0.00  0.00    +0.000 A 
ATOM     11  N   UNL     1      50.394   1.480  17.051  0.00  0.00    +0.000 N 
ATOM     12  C   UNL     1      49.736   2.661  17.300  0.00  0.00    +0.000 A 
ATOM     13  O   UNL     1      48.522   2.770  17.176  0.00  0.00    +0.000 OA
ATOM     14  C   UNL     1      50.614   3.729  17.725  0.00  0.00    +0.000 A 
ATOM     15  H   UNL     1      49.819   0.708  16.746  0.00  0.00    +0.000 HD
ENDBRANCH   2   5
BRANCH   3  16
ATOM     16  C   UNL     1      49.419   7.523  15.092  0.00  0.00    +0.000 C 
BRANCH  16  17
ATOM     17  C   UNL     1      48.208   7.124  14.274  0.00  0.00    +0.000 A 
ATOM     18  C   UNL     1      47.431   8.104  13.664  0.00  0.00    +0.000 A 
ATOM     19  C   UNL     1      46.333   7.720  12.893  0.00  0.00    +0.000 A 
ATOM     20  C   UNL     1      46.032   6.370  12.742  0.00  0.00    +0.000 A 
ATOM     21  C   UNL     1      46.895   5.459  13.335  0.00  0.00    +0.000 A 
ATOM     22  N   UNL     1      47.975   5.798  14.089  0.00  0.00    +0.000 NA
BRANCH  20  23
ATOM     23  O   UNL     1      44.981   5.869  12.029  0.00  0.00    +0.000 OA
BRANCH  23  24
ATOM     24  C   UNL     1      44.928   4.436  11.964  0.00  0.00    +0.000 C 
BRANCH  24  25
ATOM     25  C   UNL     1      45.026   3.946  10.535  0.00  0.00    +0.000 A 
ATOM     26  N   UNL     1      44.609   2.692  10.259  0.00  0.00    +0.000 NA
ATOM     27  C   UNL     1      44.654   2.317   8.966  0.00  0.00    +0.000 A 
ATOM     28  C   UNL     1      45.088   3.134   7.950  0.00  0.00    +0.000 A 
ATOM     29  C   UNL     1      45.492   4.390   8.332  0.00  0.00    +0.000 A 
ATOM     30  N   UNL     1      45.470   4.822   9.606  0.00  0.00    +0.000 NA
ENDBRANCH  24  25
ENDBRANCH  23  24
ENDBRANCH  20  23
ENDBRANCH  16  17
ENDBRANCH   3  16
TORSDOF 6
ENDMDL
MODEL 8
REMARK VINA RESULT:    -6.395      3.391      8.265
REMARK INTER + INTRA:          -9.459
REMARK INTER:                  -8.444
REMARK INTRA:                  -1.014
REMARK UNBOUND:                -0.820
REMARK  Name = 
REMARK  6 active torsions:
REMARK  status: ('A' for Active; 'I' for Inactive)
REMARK    1  A    between atoms: C_2  and  C_19
REMARK    2  A    between atoms: N_3  and  C_4
REMARK    3  A    between atoms: C_4  and  C_5
REMARK    4  A    between atoms: C_8  and  O_9
REMARK    5  A    between atoms: O_9  and  C_10
REMARK    6  A    between atoms: C_10  and  C_11
REMARK                            x       y       z     vdW  Elec       q    Type
REMARK                         _______ _______ _______ _____ _____    ______ ____
ROOT
ATOM      1  O   UNL     1      47.503   2.913  14.401  0.00  0.00    +0.000 OA
ATOM      2  C   UNL     1      46.958   3.995  14.530  0.00  0.00    +0.000 C 
ATOM      3  N   UNL     1      46.660   4.584  15.739  0.00  0.00    +0.000 N 
ATOM      4  H   UNL     1      46.441   5.565  15.748  0.00  0.00    +0.000 HD
ENDROOT
BRANCH   2   5
ATOM      5  C   UNL     1      46.758   4.933  13.428  0.00  0.00    +0.000 A 
ATOM      6  C   UNL     1      47.649   5.958  13.152  0.00  0.00    +0.000 A 
ATOM      7  S   UNL     1      46.903   7.204  12.233  0.00  0.00    +0.000 S 
ATOM      8  C   UNL     1      45.457   6.309  12.089  0.00  0.00    +0.000 A 
ATOM      9  N   UNL     1      44.319   6.832  11.559  0.00  0.00    +0.000 NA
ATOM     10  C   UNL     1      43.336   5.995  11.489  0.00  0.00    +0.000 A 
ATOM     11  N   UNL     1      43.400   4.668  11.844  0.00  0.00    +0.000 N 
ATOM     12  C   UNL     1      44.536   4.089  12.356  0.00  0.00    +0.000 A 
ATOM     13  O   UNL     1      44.613   2.887  12.578  0.00  0.00    +0.000 OA
ATOM     14  C   UNL     1      45.608   5.033  12.587  0.00  0.00    +0.000 A 
ATOM     15  H   UNL     1      42.624   4.045  11.672  0.00  0.00    +0.000 HD
ENDBRANCH   2   5
BRANCH   3  16
ATOM     16  C   UNL     1      47.238   4.124  16.981  0.00  0.00    +0.000 C 
BRANCH  16  17
ATOM     17  C   UNL     1      48.630   4.696  17.149  0.00  0.00    +0.000 A 
ATOM     18  C   UNL     1      49.689   3.857  17.480  0.00  0.00    +0.000 A 
ATOM     19  C   UNL     1      50.971   4.394  17.606  0.00  0.00    +0.000 A 
ATOM     20  C   UNL     1      51.173   5.754  17.397  0.00  0.00    +0.000 A 
ATOM     21  C   UNL     1      50.073   6.507  17.011  0.00  0.00    +0.000 A 
ATOM     22  N   UNL     1      48.812   6.015  16.875  0.00  0.00    +0.000 NA
BRANCH  20  23
ATOM     23  O   UNL     1      52.372   6.401  17.505  0.00  0.00    +0.000 OA
BRANCH  23  24
ATOM     24  C   UNL     1      53.480   5.715  16.904  0.00  0.00    +0.000 C 
BRANCH  24  25
ATOM     25  C   UNL     1      53.951   6.422  15.651  0.00  0.00    +0.000 A 
ATOM     26  N   UNL     1      54.993   5.897  14.974  0.00  0.00    +0.000 NA
ATOM     27  C   UNL     1      55.340   6.520  13.831  0.00  0.00    +0.000 A 
ATOM     28  C   UNL     1      54.694   7.630  13.341  0.00  0.00    +0.000 A 
ATOM     29  C   UNL     1      53.647   8.089  14.102  0.00  0.00    +0.000 A 
ATOM     30  N   UNL     1      53.253   7.510  15.251  0.00  0.00    +0.000 NA
ENDBRANCH  24  25
ENDBRANCH  23  24
ENDBRANCH  20  23
ENDBRANCH  16  17
ENDBRANCH   3  16
TORSDOF 6
ENDMDL
MODEL 9
REMARK VINA RESULT:    -6.090      2.713      3.462
REMARK INTER + INTRA:          -9.046
REMARK INTER:                  -7.860
REMARK INTRA:                  -1.186
REMARK UNBOUND:                -0.820
REMARK  Name = 
REMARK  6 active torsions:
REMARK  status: ('A' for Active; 'I' for Inactive)
REMARK    1  A    between atoms: C_2  and  C_19
REMARK    2  A    between atoms: N_3  and  C_4
REMARK    3  A    between atoms: C_4  and  C_5
REMARK    4  A    between atoms: C_8  and  O_9
REMARK    5  A    between atoms: O_9  and  C_10
REMARK    6  A    between atoms: C_10  and  C_11
REMARK                            x       y       z     vdW  Elec       q    Type
REMARK                         _______ _______ _______ _____ _____    ______ ____
ROOT
ATOM      1  O   UNL     1      51.801   6.312  16.356  0.00  0.00    +0.000 OA
ATOM      2  C   UNL     1      50.734   6.780  16.714  0.00  0.00    +0.000 C 
ATOM      3  N   UNL     1      50.081   7.818  16.086  0.00  0.00    +0.000 N 
ATOM      4  H   UNL     1      49.110   7.967  16.302  0.00  0.00    +0.000 HD
ENDROOT
BRANCH   2   5
ATOM      5  C   UNL     1      49.878   6.154  17.719  0.00  0.00    +0.000 A 
ATOM      6  C   UNL     1      50.040   6.376  19.078  0.00  0.00    +0.000 A 
ATOM      7  S   UNL     1      49.328   5.118  20.006  0.00  0.00    +0.000 S 
ATOM      8  C   UNL     1      48.690   4.372  18.610  0.00  0.00    +0.000 A 
ATOM      9  N   UNL     1      48.093   3.151  18.636  0.00  0.00    +0.000 NA
ATOM     10  C   UNL     1      47.630   2.764  17.493  0.00  0.00    +0.000 A 
ATOM     11  N   UNL     1      47.654   3.509  16.337  0.00  0.00    +0.000 N 
ATOM     12  C   UNL     1      48.220   4.759  16.270  0.00  0.00    +0.000 A 
ATOM     13  O   UNL     1      48.152   5.453  15.262  0.00  0.00    +0.000 OA
ATOM     14  C   UNL     1      48.880   5.159  17.494  0.00  0.00    +0.000 A 
ATOM     15  H   UNL     1      47.188   3.187  15.501  0.00  0.00    +0.000 HD
ENDBRANCH   2   5
BRANCH   3  16
ATOM     16  C   UNL     1      50.437   8.257  14.756  0.00  0.00    +0.000 C 
BRANCH  16  17
ATOM     17  C   UNL     1      49.265   8.067  13.816  0.00  0.00    +0.000 A 
ATOM     18  C   UNL     1      49.455   7.437  12.590  0.00  0.00    +0.000 A 
ATOM     19  C   UNL     1      48.361   7.247  11.745  0.00  0.00    +0.000 A 
ATOM     20  C   UNL     1      47.101   7.685  12.137  0.00  0.00    +0.000 A 
ATOM     21  C   UNL     1      46.991   8.250  13.401  0.00  0.00    +0.000 A 
ATOM     22  N   UNL     1      48.035   8.445  14.250  0.00  0.00    +0.000 NA
BRANCH  20  23
ATOM     23  O   UNL     1      45.959   7.573  11.397  0.00  0.00    +0.000 OA
BRANCH  23  24
ATOM     24  C   UNL     1      44.759   7.398  12.165  0.00  0.00    +0.000 C 
BRANCH  24  25
ATOM     25  C   UNL     1      44.223   5.988  12.036  0.00  0.00    +0.000 A 
ATOM     26  N   UNL     1      44.283   5.390  10.828  0.00  0.00    +0.000 NA
ATOM     27  C   UNL     1      43.854   4.114  10.769  0.00  0.00    +0.000 A 
ATOM     28  C   UNL     1      43.378   3.420  11.855  0.00  0.00    +0.000 A 
ATOM     29  C   UNL     1      43.356   4.115  13.039  0.00  0.00    +0.000 A 
ATOM     30  N   UNL     1      43.770   5.389  13.160  0.00  0.00    +0.000 NA
ENDBRANCH  24  25
ENDBRANCH  23  24
ENDBRANCH  20  23
ENDBRANCH  16  17
ENDBRANCH   3  16
TORSDOF 6
ENDMDL
