MODEL 1
REMARK VINA RESULT:    -8.472      0.000      0.000
REMARK INTER + INTRA:         -13.800
REMARK INTER:                 -12.434
REMARK INTRA:                  -1.366
REMARK UNBOUND:                -1.366
REMARK  Name = 
REMARK  9 active torsions:
REMARK  status: ('A' for Active; 'I' for Inactive)
REMARK    1  A    between atoms: C_1  and  O_2
REMARK    2  A    between atoms: O_2  and  C_3
REMARK    3  A    between atoms: C_10  and  C_11
REMARK    4  A    between atoms: N_13  and  C_14
REMARK    5  A    between atoms: C_14  and  C_15
REMARK    6  A    between atoms: C_18  and  C_19
REMARK    7  A    between atoms: C_19  and  N_20
REMARK    8  A    between atoms: N_20  and  C_21
REMARK    9  A    between atoms: C_21  and  C_22
REMARK                            x       y       z     vdW  Elec       q    Type
REMARK                         _______ _______ _______ _____ _____    ______ ____
ROOT
ATOM      1  C   UNL     1      46.958   8.071  13.199  0.00  0.00    +0.000 C 
ENDROOT
BRANCH   1   2
ATOM      2  C   UNL     1      46.103   7.108  12.414  0.00  0.00    +0.000 A 
ATOM      3  C   UNL     1      46.561   6.573  11.202  0.00  0.00    +0.000 A 
ATOM      4  C   UNL     1      45.823   5.593  10.530  0.00  0.00    +0.000 A 
ATOM      5  C   UNL     1      44.604   5.127  11.044  0.00  0.00    +0.000 A 
ATOM      6  C   UNL     1      44.107   5.721  12.212  0.00  0.00    +0.000 A 
ATOM      7  C   UNL     1      44.846   6.703  12.888  0.00  0.00    +0.000 A 
BRANCH   5   8
ATOM      8  C   UNL     1      43.859   4.001  10.354  0.00  0.00    +0.000 C 
BRANCH   8   9
ATOM      9  N   UNL     1      44.616   2.748  10.428  0.00  0.00    +0.000 NA
ATOM     10  H   UNL     1      44.277   2.211  11.227  0.00  0.00    +0.000 HD
BRANCH   9  11
ATOM     11  C   UNL     1      44.431   1.930   9.221  0.00  0.00    +0.000 C 
BRANCH  11  12
ATOM     12  C   UNL     1      45.584   2.074   8.238  0.00  0.00    +0.000 A 
ATOM     13  C   UNL     1      45.763   3.265   7.533  0.00  0.00    +0.000 A 
ATOM     14  C   UNL     1      46.818   3.362   6.632  0.00  0.00    +0.000 A 
ATOM     15  C   UNL     1      47.668   2.277   6.454  0.00  0.00    +0.000 A 
ATOM     16  C   UNL     1      47.424   1.132   7.192  0.00  0.00    +0.000 A 
ATOM     17  N   UNL     1      46.408   1.005   8.078  0.00  0.00    +0.000 NA
ENDBRANCH  11  12
ENDBRANCH   9  11
ENDBRANCH   8   9
ENDBRANCH   5   8
ENDBRANCH   1   2
BRANCH   1  20
ATOM     18  C   UNL     1      48.601   6.839  14.551  0.00  0.00    +0.000 C 
ATOM     19  O   UNL     1      49.333   6.683  13.576  0.00  0.00    +0.000 OA
ATOM     20  N   UNL     1      47.414   7.515  14.447  0.00  0.00    +0.000 N 
ATOM     21  H   UNL     1      46.833   7.656  15.260  0.00  0.00    +0.000 HD
BRANCH  18  29
ATOM     22  C   UNL     1      47.416   4.197  16.395  0.00  0.00    +0.000 A 
ATOM     23  N   UNL     1      47.208   3.184  17.258  0.00  0.00    +0.000 NA
ATOM     24  C   UNL     1      47.988   3.114  18.340  0.00  0.00    +0.000 A 
ATOM     25  N   UNL     1      48.956   3.959  18.688  0.00  0.00    +0.000 NA
ATOM     26  C   UNL     1      49.137   4.945  17.793  0.00  0.00    +0.000 A 
ATOM     27  S   UNL     1      50.320   6.131  18.075  0.00  0.00    +0.000 S 
ATOM     28  C   UNL     1      49.962   6.908  16.606  0.00  0.00    +0.000 A 
ATOM     29  C   UNL     1      48.959   6.285  15.870  0.00  0.00    +0.000 A 
ATOM     30  C   UNL     1      48.441   5.136  16.604  0.00  0.00    +0.000 A 
BRANCH  22  32
ATOM     31  C   UNL     1      47.129   3.543  14.169  0.00  0.00    +0.000 C 
ATOM     32  O   UNL     1      46.615   4.275  15.278  0.00  0.00    +0.000 OA
ENDBRANCH  22  32
ENDBRANCH  18  29
ENDBRANCH   1  20
TORSDOF 8
ENDMDL
MODEL 2
REMARK VINA RESULT:    -8.188      1.498      1.833
REMARK INTER + INTRA:         -13.384
REMARK INTER:                 -12.132
REMARK INTRA:                  -1.252
REMARK UNBOUND:                -1.366
REMARK  Name = 
REMARK  9 active torsions:
REMARK  status: ('A' for Active; 'I' for Inactive)
REMARK    1  A    between atoms: C_1  and  O_2
REMARK    2  A    between atoms: O_2  and  C_3
REMARK    3  A    between atoms: C_10  and  C_11
REMARK    4  A    between atoms: N_13  and  C_14
REMARK    5  A    between atoms: C_14  and  C_15
REMARK    6  A    between atoms: C_18  and  C_19
REMARK    7  A    between atoms: C_19  and  N_20
REMARK    8  A    between atoms: N_20  and  C_21
REMARK    9  A    between atoms: C_21  and  C_22
REMARK                            x       y       z     vdW  Elec       q    Type
REMARK                         _______ _______ _______ _____ _____    ______ ____
ROOT
ATOM      1  C   UNL     1      48.019   6.989  13.230  0.00  0.00    +0.000 C 
ENDROOT
BRANCH   1   2
ATOM      2  C   UNL     1      46.979   6.076  12.626  0.00  0.00    +0.000 A 
ATOM      3  C   UNL     1      46.524   4.952  13.327  0.00  0.00    +0.000 A 
ATOM      4  C   UNL     1      45.479   4.170  12.822  0.00  0.00    +0.000 A 
ATOM      5  C   UNL     1      44.868   4.484  11.600  0.00  0.00    +0.000 A 
ATOM      6  C   UNL     1      45.379   5.560  10.860  0.00  0.00    +0.000 A 
ATOM      7  C   UNL     1      46.425   6.345  11.365  0.00  0.00    +0.000 A 
BRANCH   5   8
ATOM      8  C   UNL     1      43.678   3.684  11.107  0.00  0.00    +0.000 C 
BRANCH   8   9
ATOM      9  N   UNL     1      43.809   3.374   9.681  0.00  0.00    +0.000 NA
ATOM     10  H   UNL     1      44.358   4.113   9.237  0.00  0.00    +0.000 HD
BRANCH   9  11
ATOM     11  C   UNL     1      44.508   2.099   9.464  0.00  0.00    +0.000 C 
BRANCH  11  12
ATOM     12  C   UNL     1      45.600   2.207   8.409  0.00  0.00    +0.000 A 
ATOM     13  C   UNL     1      45.795   3.404   7.718  0.00  0.00    +0.000 A 
ATOM     14  C   UNL     1      46.792   3.467   6.750  0.00  0.00    +0.000 A 
ATOM     15  C   UNL     1      47.568   2.344   6.493  0.00  0.00    +0.000 A 
ATOM     16  C   UNL     1      47.313   1.196   7.222  0.00  0.00    +0.000 A 
ATOM     17  N   UNL     1      46.353   1.100   8.171  0.00  0.00    +0.000 NA
ENDBRANCH  11  12
ENDBRANCH   9  11
ENDBRANCH   8   9
ENDBRANCH   5   8
ENDBRANCH   1   2
BRANCH   1  20
ATOM     18  C   UNL     1      48.956   6.917  15.502  0.00  0.00    +0.000 C 
ATOM     19  O   UNL     1      50.074   6.649  15.067  0.00  0.00    +0.000 OA
ATOM     20  N   UNL     1      47.891   7.102  14.660  0.00  0.00    +0.000 N 
ATOM     21  H   UNL     1      46.983   7.344  15.029  0.00  0.00    +0.000 HD
BRANCH  18  29
ATOM     22  C   UNL     1      48.865   4.626  18.057  0.00  0.00    +0.000 A 
ATOM     23  N   UNL     1      48.869   3.962  19.229  0.00  0.00    +0.000 NA
ATOM     24  C   UNL     1      48.687   4.668  20.348  0.00  0.00    +0.000 A 
ATOM     25  N   UNL     1      48.475   5.980  20.444  0.00  0.00    +0.000 NA
ATOM     26  C   UNL     1      48.493   6.602  19.253  0.00  0.00    +0.000 A 
ATOM     27  S   UNL     1      48.225   8.277  19.175  0.00  0.00    +0.000 S 
ATOM     28  C   UNL     1      48.423   8.280  17.486  0.00  0.00    +0.000 A 
ATOM     29  C   UNL     1      48.709   7.028  16.951  0.00  0.00    +0.000 A 
ATOM     30  C   UNL     1      48.708   6.021  18.008  0.00  0.00    +0.000 A 
BRANCH  22  32
ATOM     31  C   UNL     1      47.854   3.300  16.417  0.00  0.00    +0.000 C 
ATOM     32  O   UNL     1      49.051   3.902  16.900  0.00  0.00    +0.000 OA
ENDBRANCH  22  32
ENDBRANCH  18  29
ENDBRANCH   1  20
TORSDOF 8
ENDMDL
MODEL 3
REMARK VINA RESULT:    -7.786      2.255      2.884
REMARK INTER + INTRA:         -12.794
REMARK INTER:                 -11.860
REMARK INTRA:                  -0.933
REMARK UNBOUND:                -1.366
REMARK  Name = 
REMARK  9 active torsions:
REMARK  status: ('A' for Active; 'I' for Inactive)
REMARK    1  A    between atoms: C_1  and  O_2
REMARK    2  A    between atoms: O_2  and  C_3
REMARK    3  A    between atoms: C_10  and  C_11
REMARK    4  A    between atoms: N_13  and  C_14
REMARK    5  A    between atoms: C_14  and  C_15
REMARK    6  A    between atoms: C_18  and  C_19
REMARK    7  A    between atoms: C_19  and  N_20
REMARK    8  A    between atoms: N_20  and  C_21
REMARK    9  A    between atoms: C_21  and  C_22
REMARK                            x       y       z     vdW  Elec       q    Type
REMARK                         _______ _______ _______ _____ _____    ______ ____
ROOT
ATOM      1  C   UNL     1      48.082   6.604  13.729  0.00  0.00    +0.000 C 
ENDROOT
BRANCH   1   2
ATOM      2  C   UNL     1      46.841   6.226  12.959  0.00  0.00    +0.000 A 
ATOM      3  C   UNL     1      46.612   6.745  11.678  0.00  0.00    +0.000 A 
ATOM      4  C   UNL     1      45.523   6.309  10.915  0.00  0.00    +0.000 A 
ATOM      5  C   UNL     1      44.629   5.350  11.414  0.00  0.00    +0.000 A 
ATOM      6  C   UNL     1      44.813   4.893  12.726  0.00  0.00    +0.000 A 
ATOM      7  C   UNL     1      45.904   5.329  13.492  0.00  0.00    +0.000 A 
BRANCH   5   8
ATOM      8  C   UNL     1      43.507   4.818  10.544  0.00  0.00    +0.000 C 
BRANCH   8   9
ATOM      9  N   UNL     1      44.029   4.290   9.280  0.00  0.00    +0.000 NA
ATOM     10  H   UNL     1      44.834   4.853   9.001  0.00  0.00    +0.000 HD
BRANCH   9  11
ATOM     11  C   UNL     1      44.476   2.897   9.418  0.00  0.00    +0.000 C 
BRANCH  11  12
ATOM     12  C   UNL     1      45.536   2.523   8.392  0.00  0.00    +0.000 A 
ATOM     13  C   UNL     1      45.966   3.459   7.451  0.00  0.00    +0.000 A 
ATOM     14  C   UNL     1      46.926   3.083   6.517  0.00  0.00    +0.000 A 
ATOM     15  C   UNL     1      47.435   1.791   6.542  0.00  0.00    +0.000 A 
ATOM     16  C   UNL     1      46.958   0.922   7.508  0.00  0.00    +0.000 A 
ATOM     17  N   UNL     1      46.027   1.255   8.431  0.00  0.00    +0.000 NA
ENDBRANCH  11  12
ENDBRANCH   9  11
ENDBRANCH   8   9
ENDBRANCH   5   8
ENDBRANCH   1   2
BRANCH   1  20
ATOM     18  C   UNL     1      49.047   6.332  15.974  0.00  0.00    +0.000 C 
ATOM     19  O   UNL     1      50.178   6.562  15.551  0.00  0.00    +0.000 OA
ATOM     20  N   UNL     1      47.961   6.336  15.139  0.00  0.00    +0.000 N 
ATOM     21  H   UNL     1      47.036   6.167  15.504  0.00  0.00    +0.000 HD
BRANCH  18  29
ATOM     22  C   UNL     1      47.992   8.196  18.656  0.00  0.00    +0.000 A 
ATOM     23  N   UNL     1      47.516   8.667  19.825  0.00  0.00    +0.000 NA
ATOM     24  C   UNL     1      47.409   7.812  20.846  0.00  0.00    +0.000 A 
ATOM     25  N   UNL     1      47.747   6.524  20.854  0.00  0.00    +0.000 NA
ATOM     26  C   UNL     1      48.203   6.096  19.664  0.00  0.00    +0.000 A 
ATOM     27  S   UNL     1      48.699   4.481  19.486  0.00  0.00    +0.000 S 
ATOM     28  C   UNL     1      49.070   4.725  17.845  0.00  0.00    +0.000 A 
ATOM     29  C   UNL     1      48.815   6.017  17.396  0.00  0.00    +0.000 A 
ATOM     30  C   UNL     1      48.337   6.844  18.499  0.00  0.00    +0.000 A 
BRANCH  22  32
ATOM     31  C   UNL     1      47.862  10.428  17.969  0.00  0.00    +0.000 C 
ATOM     32  O   UNL     1      48.104   9.073  17.600  0.00  0.00    +0.000 OA
ENDBRANCH  22  32
ENDBRANCH  18  29
ENDBRANCH   1  20
TORSDOF 8
ENDMDL
MODEL 4
REMARK VINA RESULT:    -7.704      2.065      2.510
REMARK INTER + INTRA:         -12.673
REMARK INTER:                 -11.627
REMARK INTRA:                  -1.046
REMARK UNBOUND:                -1.366
REMARK  Name = 
REMARK  9 active torsions:
REMARK  status: ('A' for Active; 'I' for Inactive)
REMARK    1  A    between atoms: C_1  and  O_2
REMARK    2  A    between atoms: O_2  and  C_3
REMARK    3  A    between atoms: C_10  and  C_11
REMARK    4  A    between atoms: N_13  and  C_14
REMARK    5  A    between atoms: C_14  and  C_15
REMARK    6  A    between atoms: C_18  and  C_19
REMARK    7  A    between atoms: C_19  and  N_20
REMARK    8  A    between atoms: N_20  and  C_21
REMARK    9  A    between atoms: C_21  and  C_22
REMARK                            x       y       z     vdW  Elec       q    Type
REMARK                         _______ _______ _______ _____ _____    ______ ____
ROOT
ATOM      1  C   UNL     1      48.007   6.831  15.108  0.00  0.00    +0.000 C 
ENDROOT
BRANCH   1   2
ATOM      2  C   UNL     1      47.297   6.151  13.964  0.00  0.00    +0.000 A 
ATOM      3  C   UNL     1      46.827   4.837  14.096  0.00  0.00    +0.000 A 
ATOM      4  C   UNL     1      46.068   4.244  13.082  0.00  0.00    +0.000 A 
ATOM      5  C   UNL     1      45.764   4.943  11.905  0.00  0.00    +0.000 A 
ATOM      6  C   UNL     1      46.303   6.226  11.738  0.00  0.00    +0.000 A 
ATOM      7  C   UNL     1      47.064   6.822  12.754  0.00  0.00    +0.000 A 
BRANCH   5   8
ATOM      8  C   UNL     1      44.865   4.323  10.853  0.00  0.00    +0.000 C 
BRANCH   8   9
ATOM      9  N   UNL     1      44.992   2.863  10.850  0.00  0.00    +0.000 NA
ATOM     10  H   UNL     1      44.439   2.488  11.623  0.00  0.00    +0.000 HD
BRANCH   9  11
ATOM     11  C   UNL     1      44.481   2.276   9.603  0.00  0.00    +0.000 C 
BRANCH  11  12
ATOM     12  C   UNL     1      45.522   2.274   8.493  0.00  0.00    +0.000 A 
ATOM     13  C   UNL     1      45.697   3.403   7.690  0.00  0.00    +0.000 A 
ATOM     14  C   UNL     1      46.647   3.366   6.675  0.00  0.00    +0.000 A 
ATOM     15  C   UNL     1      47.398   2.213   6.482  0.00  0.00    +0.000 A 
ATOM     16  C   UNL     1      47.166   1.137   7.322  0.00  0.00    +0.000 A 
ATOM     17  N   UNL     1      46.251   1.140   8.319  0.00  0.00    +0.000 NA
ENDBRANCH  11  12
ENDBRANCH   9  11
ENDBRANCH   8   9
ENDBRANCH   5   8
ENDBRANCH   1   2
BRANCH   1  20
ATOM     18  C   UNL     1      49.408   6.111  16.995  0.00  0.00    +0.000 C 
ATOM     19  O   UNL     1      48.852   6.904  17.753  0.00  0.00    +0.000 OA
ATOM     20  N   UNL     1      49.047   6.014  15.677  0.00  0.00    +0.000 N 
ATOM     21  H   UNL     1      49.497   5.343  15.072  0.00  0.00    +0.000 HD
BRANCH  18  29
ATOM     22  C   UNL     1      49.927   2.718  16.935  0.00  0.00    +0.000 A 
ATOM     23  N   UNL     1      50.410   1.461  16.951  0.00  0.00    +0.000 NA
ATOM     24  C   UNL     1      51.635   1.268  17.449  0.00  0.00    +0.000 A 
ATOM     25  N   UNL     1      52.445   2.190  17.965  0.00  0.00    +0.000 NA
ATOM     26  C   UNL     1      51.928   3.430  17.915  0.00  0.00    +0.000 A 
ATOM     27  S   UNL     1      52.813   4.736  18.543  0.00  0.00    +0.000 S 
ATOM     28  C   UNL     1      51.592   5.836  18.107  0.00  0.00    +0.000 A 
ATOM     29  C   UNL     1      50.505   5.247  17.469  0.00  0.00    +0.000 A 
ATOM     30  C   UNL     1      50.693   3.802  17.396  0.00  0.00    +0.000 A 
BRANCH  22  32
ATOM     31  C   UNL     1      47.647   2.908  17.419  0.00  0.00    +0.000 C 
ATOM     32  O   UNL     1      48.665   2.922  16.422  0.00  0.00    +0.000 OA
ENDBRANCH  22  32
ENDBRANCH  18  29
ENDBRANCH   1  20
TORSDOF 8
ENDMDL
MODEL 5
REMARK VINA RESULT:    -7.086      3.226      5.132
REMARK INTER + INTRA:         -11.766
REMARK INTER:                 -10.433
REMARK INTRA:                  -1.333
REMARK UNBOUND:                -1.366
REMARK  Name = 
REMARK  9 active torsions:
REMARK  status: ('A' for Active; 'I' for Inactive)
REMARK    1  A    between atoms: C_1  and  O_2
REMARK    2  A    between atoms: O_2  and  C_3
REMARK    3  A    between atoms: C_10  and  C_11
REMARK    4  A    between atoms: N_13  and  C_14
REMARK    5  A    between atoms: C_14  and  C_15
REMARK    6  A    between atoms: C_18  and  C_19
REMARK    7  A    between atoms: C_19  and  N_20
REMARK    8  A    between atoms: N_20  and  C_21
REMARK    9  A    between atoms: C_21  and  C_22
REMARK                            x       y       z     vdW  Elec       q    Type
REMARK                         _______ _______ _______ _____ _____    ______ ____
ROOT
ATOM      1  C   UNL     1      48.116   6.343  14.101  0.00  0.00    +0.000 C 
ENDROOT
BRANCH   1   2
ATOM      2  C   UNL     1      47.032   5.898  13.150  0.00  0.00    +0.000 A 
ATOM      3  C   UNL     1      46.106   4.919  13.533  0.00  0.00    +0.000 A 
ATOM      4  C   UNL     1      45.031   4.587  12.700  0.00  0.00    +0.000 A 
ATOM      5  C   UNL     1      44.857   5.219  11.461  0.00  0.00    +0.000 A 
ATOM      6  C   UNL     1      45.828   6.139  11.043  0.00  0.00    +0.000 A 
ATOM      7  C   UNL     1      46.905   6.473  11.876  0.00  0.00    +0.000 A 
BRANCH   5   8
ATOM      8  C   UNL     1      43.639   4.917  10.609  0.00  0.00    +0.000 C 
BRANCH   8   9
ATOM      9  N   UNL     1      44.032   4.368   9.308  0.00  0.00    +0.000 NA
ATOM     10  H   UNL     1      44.831   4.901   8.959  0.00  0.00    +0.000 HD
BRANCH   9  11
ATOM     11  C   UNL     1      44.440   2.960   9.415  0.00  0.00    +0.000 C 
BRANCH  11  12
ATOM     12  C   UNL     1      45.484   2.577   8.376  0.00  0.00    +0.000 A 
ATOM     13  C   UNL     1      45.831   3.472   7.363  0.00  0.00    +0.000 A 
ATOM     14  C   UNL     1      46.778   3.088   6.420  0.00  0.00    +0.000 A 
ATOM     15  C   UNL     1      47.358   1.829   6.506  0.00  0.00    +0.000 A 
ATOM     16  C   UNL     1      46.962   0.999   7.542  0.00  0.00    +0.000 A 
ATOM     17  N   UNL     1      46.044   1.342   8.476  0.00  0.00    +0.000 NA
ENDBRANCH  11  12
ENDBRANCH   9  11
ENDBRANCH   8   9
ENDBRANCH   5   8
ENDBRANCH   1   2
BRANCH   1  20
ATOM     18  C   UNL     1      50.023   7.894  14.131  0.00  0.00    +0.000 C 
ATOM     19  O   UNL     1      49.944   8.018  15.351  0.00  0.00    +0.000 OA
ATOM     20  N   UNL     1      49.159   7.084  13.441  0.00  0.00    +0.000 N 
ATOM     21  H   UNL     1      49.249   6.975  12.442  0.00  0.00    +0.000 HD
BRANCH  18  29
ATOM     22  C   UNL     1      49.844  10.000  11.425  0.00  0.00    +0.000 A 
ATOM     23  N   UNL     1      50.038  10.912  10.454  0.00  0.00    +0.000 NA
ATOM     24  C   UNL     1      51.283  11.349  10.246  0.00  0.00    +0.000 A 
ATOM     25  N   UNL     1      52.386  10.964  10.886  0.00  0.00    +0.000 NA
ATOM     26  C   UNL     1      52.143  10.065  11.854  0.00  0.00    +0.000 A 
ATOM     27  S   UNL     1      53.432   9.444  12.769  0.00  0.00    +0.000 S 
ATOM     28  C   UNL     1      52.377   8.491  13.701  0.00  0.00    +0.000 A 
ATOM     29  C   UNL     1      51.037   8.631  13.354  0.00  0.00    +0.000 A 
ATOM     30  C   UNL     1      50.907   9.542  12.221  0.00  0.00    +0.000 A 
BRANCH  22  32
ATOM     31  C   UNL     1      47.785  10.428  12.447  0.00  0.00    +0.000 C 
ATOM     32  O   UNL     1      48.562   9.546  11.643  0.00  0.00    +0.000 OA
ENDBRANCH  22  32
ENDBRANCH  18  29
ENDBRANCH   1  20
TORSDOF 8
ENDMDL
MODEL 6
REMARK VINA RESULT:    -6.843      2.078      3.005
REMARK INTER + INTRA:         -11.410
REMARK INTER:                 -10.387
REMARK INTRA:                  -1.023
REMARK UNBOUND:                -1.366
REMARK  Name = 
REMARK  9 active torsions:
REMARK  status: ('A' for Active; 'I' for Inactive)
REMARK    1  A    between atoms: C_1  and  O_2
REMARK    2  A    between atoms: O_2  and  C_3
REMARK    3  A    between atoms: C_10  and  C_11
REMARK    4  A    between atoms: N_13  and  C_14
REMARK    5  A    between atoms: C_14  and  C_15
REMARK    6  A    between atoms: C_18  and  C_19
REMARK    7  A    between atoms: C_19  and  N_20
REMARK    8  A    between atoms: N_20  and  C_21
REMARK    9  A    between atoms: C_21  and  C_22
REMARK                            x       y       z     vdW  Elec       q    Type
REMARK                         _______ _______ _______ _____ _____    ______ ____
ROOT
ATOM      1  C   UNL     1      48.360   7.229  14.251  0.00  0.00    +0.000 C 
ENDROOT
BRANCH   1   2
ATOM      2  C   UNL     1      47.266   6.474  13.537  0.00  0.00    +0.000 A 
ATOM      3  C   UNL     1      46.520   7.088  12.523  0.00  0.00    +0.000 A 
ATOM      4  C   UNL     1      45.585   6.357  11.781  0.00  0.00    +0.000 A 
ATOM      5  C   UNL     1      45.365   4.996  12.038  0.00  0.00    +0.000 A 
ATOM      6  C   UNL     1      46.052   4.403  13.106  0.00  0.00    +0.000 A 
ATOM      7  C   UNL     1      46.989   5.134  13.850  0.00  0.00    +0.000 A 
BRANCH   5   8
ATOM      8  C   UNL     1      44.416   4.194  11.168  0.00  0.00    +0.000 C 
BRANCH   8   9
ATOM      9  N   UNL     1      45.014   2.912  10.786  0.00  0.00    +0.000 NA
ATOM     10  H   UNL     1      44.779   2.219  11.499  0.00  0.00    +0.000 HD
BRANCH   9  11
ATOM     11  C   UNL     1      44.490   2.431   9.499  0.00  0.00    +0.000 C 
BRANCH  11  12
ATOM     12  C   UNL     1      45.571   2.333   8.432  0.00  0.00    +0.000 A 
ATOM     13  C   UNL     1      45.866   3.433   7.626  0.00  0.00    +0.000 A 
ATOM     14  C   UNL     1      46.849   3.309   6.651  0.00  0.00    +0.000 A 
ATOM     15  C   UNL     1      47.515   2.098   6.500  0.00  0.00    +0.000 A 
ATOM     16  C   UNL     1      47.165   1.055   7.340  0.00  0.00    +0.000 A 
ATOM     17  N   UNL     1      46.215   1.143   8.300  0.00  0.00    +0.000 NA
ENDBRANCH  11  12
ENDBRANCH   9  11
ENDBRANCH   8   9
ENDBRANCH   5   8
ENDBRANCH   1   2
BRANCH   1  20
ATOM     18  C   UNL     1      48.858   7.048  16.652  0.00  0.00    +0.000 C 
ATOM     19  O   UNL     1      48.396   8.167  16.865  0.00  0.00    +0.000 OA
ATOM     20  N   UNL     1      48.874   6.514  15.390  0.00  0.00    +0.000 N 
ATOM     21  H   UNL     1      49.235   5.585  15.233  0.00  0.00    +0.000 HD
BRANCH  18  29
ATOM     22  C   UNL     1      51.991   5.771  17.232  0.00  0.00    +0.000 A 
ATOM     23  N   UNL     1      53.127   5.253  17.737  0.00  0.00    +0.000 NA
ATOM     24  C   UNL     1      53.073   4.681  18.942  0.00  0.00    +0.000 A 
ATOM     25  N   UNL     1      51.997   4.538  19.715  0.00  0.00    +0.000 NA
ATOM     26  C   UNL     1      50.891   5.081  19.178  0.00  0.00    +0.000 A 
ATOM     27  S   UNL     1      49.415   4.982  20.013  0.00  0.00    +0.000 S 
ATOM     28  C   UNL     1      48.610   5.849  18.792  0.00  0.00    +0.000 A 
ATOM     29  C   UNL     1      49.435   6.242  17.743  0.00  0.00    +0.000 A 
ATOM     30  C   UNL     1      50.789   5.743  17.959  0.00  0.00    +0.000 A 
BRANCH  22  32
ATOM     31  C   UNL     1      53.299   6.971  15.710  0.00  0.00    +0.000 C 
ATOM     32  O   UNL     1      52.042   6.362  15.989  0.00  0.00    +0.000 OA
ENDBRANCH  22  32
ENDBRANCH  18  29
ENDBRANCH   1  20
TORSDOF 8
ENDMDL
MODEL 7
REMARK VINA RESULT:    -6.832      3.067      7.806
REMARK INTER + INTRA:         -11.394
REMARK INTER:                  -9.848
REMARK INTRA:                  -1.546
REMARK UNBOUND:                -1.366
REMARK  Name = 
REMARK  9 active torsions:
REMARK  status: ('A' for Active; 'I' for Inactive)
REMARK    1  A    between atoms: C_1  and  O_2
REMARK    2  A    between atoms: O_2  and  C_3
REMARK    3  A    between atoms: C_10  and  C_11
REMARK    4  A    between atoms: N_13  and  C_14
REMARK    5  A    between atoms: C_14  and  C_15
REMARK    6  A    between atoms: C_18  and  C_19
REMARK    7  A    between atoms: C_19  and  N_20
REMARK    8  A    between atoms: N_20  and  C_21
REMARK    9  A    between atoms: C_21  and  C_22
REMARK                            x       y       z     vdW  Elec       q    Type
REMARK                         _______ _______ _______ _____ _____    ______ ____
ROOT
ATOM      1  C   UNL     1      48.448   8.021  12.062  0.00  0.00    +0.000 C 
ENDROOT
BRANCH   1   2
ATOM      2  C   UNL     1      48.459   7.957  13.570  0.00  0.00    +0.000 A 
ATOM      3  C   UNL     1      49.100   6.902  14.233  0.00  0.00    +0.000 A 
ATOM      4  C   UNL     1      49.213   6.899  15.628  0.00  0.00    +0.000 A 
ATOM      5  C   UNL     1      48.681   7.944  16.398  0.00  0.00    +0.000 A 
ATOM      6  C   UNL     1      47.969   8.956  15.740  0.00  0.00    +0.000 A 
ATOM      7  C   UNL     1      47.855   8.961  14.342  0.00  0.00    +0.000 A 
BRANCH   5   8
ATOM      8  C   UNL     1      48.889   7.974  17.900  0.00  0.00    +0.000 C 
BRANCH   8   9
ATOM      9  N   UNL     1      47.712   7.453  18.602  0.00  0.00    +0.000 NA
ATOM     10  H   UNL     1      47.020   7.168  17.908  0.00  0.00    +0.000 HD
BRANCH   9  11
ATOM     11  C   UNL     1      48.045   6.277  19.418  0.00  0.00    +0.000 C 
BRANCH  11  12
ATOM     12  C   UNL     1      48.175   5.010  18.585  0.00  0.00    +0.000 A 
ATOM     13  C   UNL     1      49.418   4.395  18.429  0.00  0.00    +0.000 A 
ATOM     14  C   UNL     1      49.508   3.246  17.650  0.00  0.00    +0.000 A 
ATOM     15  C   UNL     1      48.364   2.736  17.048  0.00  0.00    +0.000 A 
ATOM     16  C   UNL     1      47.168   3.404  17.253  0.00  0.00    +0.000 A 
ATOM     17  N   UNL     1      47.046   4.522  18.005  0.00  0.00    +0.000 NA
ENDBRANCH  11  12
ENDBRANCH   9  11
ENDBRANCH   8   9
ENDBRANCH   5   8
ENDBRANCH   1   2
BRANCH   1  20
ATOM     18  C   UNL     1      46.373   6.921  11.337  0.00  0.00    +0.000 C 
ATOM     19  O   UNL     1      45.696   7.871  11.722  0.00  0.00    +0.000 OA
ATOM     20  N   UNL     1      47.737   6.920  11.467  0.00  0.00    +0.000 N 
ATOM     21  H   UNL     1      48.282   6.142  11.126  0.00  0.00    +0.000 HD
BRANCH  18  29
ATOM     22  C   UNL     1      44.577   4.301  12.641  0.00  0.00    +0.000 A 
ATOM     23  N   UNL     1      43.781   3.241  12.877  0.00  0.00    +0.000 NA
ATOM     24  C   UNL     1      43.390   2.507  11.831  0.00  0.00    +0.000 A 
ATOM     25  N   UNL     1      43.719   2.691  10.554  0.00  0.00    +0.000 NA
ATOM     26  C   UNL     1      44.502   3.768  10.364  0.00  0.00    +0.000 A 
ATOM     27  S   UNL     1      45.038   4.153   8.800  0.00  0.00    +0.000 S 
ATOM     28  C   UNL     1      45.865   5.526   9.368  0.00  0.00    +0.000 A 
ATOM     29  C   UNL     1      45.743   5.729  10.739  0.00  0.00    +0.000 A 
ATOM     30  C   UNL     1      44.961   4.651  11.336  0.00  0.00    +0.000 A 
BRANCH  22  32
ATOM     31  C   UNL     1      46.298   4.740  14.162  0.00  0.00    +0.000 C 
ATOM     32  O   UNL     1      44.983   5.060  13.716  0.00  0.00    +0.000 OA
ENDBRANCH  22  32
ENDBRANCH  18  29
ENDBRANCH   1  20
TORSDOF 8
ENDMDL
MODEL 8
REMARK VINA RESULT:    -6.557      3.787      5.154
REMARK INTER + INTRA:         -10.990
REMARK INTER:                 -10.091
REMARK INTRA:                  -0.899
REMARK UNBOUND:                -1.366
REMARK  Name = 
REMARK  9 active torsions:
REMARK  status: ('A' for Active; 'I' for Inactive)
REMARK    1  A    between atoms: C_1  and  O_2
REMARK    2  A    between atoms: O_2  and  C_3
REMARK    3  A    between atoms: C_10  and  C_11
REMARK    4  A    between atoms: N_13  and  C_14
REMARK    5  A    between atoms: C_14  and  C_15
REMARK    6  A    between atoms: C_18  and  C_19
REMARK    7  A    between atoms: C_19  and  N_20
REMARK    8  A    between atoms: N_20  and  C_21
REMARK    9  A    between atoms: C_21  and  C_22
REMARK                            x       y       z     vdW  Elec       q    Type
REMARK                         _______ _______ _______ _____ _____    ______ ____
ROOT
ATOM      1  C   UNL     1      48.363   6.721  14.110  0.00  0.00    +0.000 C 
ENDROOT
BRANCH   1   2
ATOM      2  C   UNL     1      47.227   6.094  13.339  0.00  0.00    +0.000 A 
ATOM      3  C   UNL     1      46.858   6.591  12.083  0.00  0.00    +0.000 A 
ATOM      4  C   UNL     1      45.885   5.942  11.315  0.00  0.00    +0.000 A 
ATOM      5  C   UNL     1      45.249   4.784  11.785  0.00  0.00    +0.000 A 
ATOM      6  C   UNL     1      45.560   4.334  13.075  0.00  0.00    +0.000 A 
ATOM      7  C   UNL     1      46.535   4.983  13.846  0.00  0.00    +0.000 A 
BRANCH   5   8
ATOM      8  C   UNL     1      44.263   4.038  10.907  0.00  0.00    +0.000 C 
BRANCH   8   9
ATOM      9  N   UNL     1      44.722   2.671  10.647  0.00  0.00    +0.000 NA
ATOM     10  H   UNL     1      44.272   2.044  11.317  0.00  0.00    +0.000 HD
BRANCH   9  11
ATOM     11  C   UNL     1      44.357   2.223   9.295  0.00  0.00    +0.000 C 
BRANCH  11  12
ATOM     12  C   UNL     1      45.545   2.220   8.344  0.00  0.00    +0.000 A 
ATOM     13  C   UNL     1      45.899   3.381   7.656  0.00  0.00    +0.000 A 
ATOM     14  C   UNL     1      46.981   3.343   6.783  0.00  0.00    +0.000 A 
ATOM     15  C   UNL     1      47.685   2.156   6.616  0.00  0.00    +0.000 A 
ATOM     16  C   UNL     1      47.271   1.048   7.337  0.00  0.00    +0.000 A 
ATOM     17  N   UNL     1      46.224   1.052   8.194  0.00  0.00    +0.000 NA
ENDBRANCH  11  12
ENDBRANCH   9  11
ENDBRANCH   8   9
ENDBRANCH   5   8
ENDBRANCH   1   2
BRANCH   1  20
ATOM     18  C   UNL     1      50.263   8.168  13.527  0.00  0.00    +0.000 C 
ATOM     19  O   UNL     1      50.058   8.886  14.503  0.00  0.00    +0.000 OA
ATOM     20  N   UNL     1      49.473   7.079  13.266  0.00  0.00    +0.000 N 
ATOM     21  H   UNL     1      49.666   6.486  12.473  0.00  0.00    +0.000 HD
BRANCH  18  29
ATOM     22  C   UNL     1      53.660   8.510  13.889  0.00  0.00    +0.000 A 
ATOM     23  N   UNL     1      54.996   8.595  13.742  0.00  0.00    +0.000 NA
ATOM     24  C   UNL     1      55.480   8.771  12.510  0.00  0.00    +0.000 A 
ATOM     25  N   UNL     1      54.781   8.897  11.384  0.00  0.00    +0.000 NA
ATOM     26  C   UNL     1      53.455   8.792  11.575  0.00  0.00    +0.000 A 
ATOM     27  S   UNL     1      52.399   8.944  10.254  0.00  0.00    +0.000 S 
ATOM     28  C   UNL     1      51.043   8.682  11.245  0.00  0.00    +0.000 A 
ATOM     29  C   UNL     1      51.357   8.461  12.582  0.00  0.00    +0.000 A 
ATOM     30  C   UNL     1      52.798   8.570  12.781  0.00  0.00    +0.000 A 
BRANCH  22  32
ATOM     31  C   UNL     1      53.292   6.991  15.628  0.00  0.00    +0.000 C 
ATOM     32  O   UNL     1      53.156   8.329  15.157  0.00  0.00    +0.000 OA
ENDBRANCH  22  32
ENDBRANCH  18  29
ENDBRANCH   1  20
TORSDOF 8
ENDMDL
MODEL 9
REMARK VINA RESULT:    -6.478      3.547      5.065
REMARK INTER + INTRA:         -10.874
REMARK INTER:                 -10.056
REMARK INTRA:                  -0.817
REMARK UNBOUND:                -1.366
REMARK  Name = 
REMARK  9 active torsions:
REMARK  status: ('A' for Active; 'I' for Inactive)
REMARK    1  A    between atoms: C_1  and  O_2
REMARK    2  A    between atoms: O_2  and  C_3
REMARK    3  A    between atoms: C_10  and  C_11
REMARK    4  A    between atoms: N_13  and  C_14
REMARK    5  A    between atoms: C_14  and  C_15
REMARK    6  A    between atoms: C_18  and  C_19
REMARK    7  A    between atoms: C_19  and  N_20
REMARK    8  A    between atoms: N_20  and  C_21
REMARK    9  A    between atoms: C_21  and  C_22
REMARK                            x       y       z     vdW  Elec       q    Type
REMARK                         _______ _______ _______ _____ _____    ______ ____
ROOT
ATOM      1  C   UNL     1      45.590   8.175  12.820  0.00  0.00    +0.000 C 
ENDROOT
BRANCH   1   2
ATOM      2  C   UNL     1      44.974   6.823  12.551  0.00  0.00    +0.000 A 
ATOM      3  C   UNL     1      43.839   6.706  11.739  0.00  0.00    +0.000 A 
ATOM      4  C   UNL     1      43.335   5.447  11.394  0.00  0.00    +0.000 A 
ATOM      5  C   UNL     1      43.945   4.273  11.857  0.00  0.00    +0.000 A 
ATOM      6  C   UNL     1      45.030   4.392  12.736  0.00  0.00    +0.000 A 
ATOM      7  C   UNL     1      45.537   5.653  13.083  0.00  0.00    +0.000 A 
BRANCH   5   8
ATOM      8  C   UNL     1      43.444   2.915  11.403  0.00  0.00    +0.000 C 
BRANCH   8   9
ATOM      9  N   UNL     1      44.362   2.317  10.430  0.00  0.00    +0.000 NA
ATOM     10  H   UNL     1      43.974   1.423  10.125  0.00  0.00    +0.000 HD
BRANCH   9  11
ATOM     11  C   UNL     1      44.524   3.168   9.242  0.00  0.00    +0.000 C 
BRANCH  11  12
ATOM     12  C   UNL     1      45.595   2.646   8.295  0.00  0.00    +0.000 A 
ATOM     13  C   UNL     1      46.091   3.461   7.277  0.00  0.00    +0.000 A 
ATOM     14  C   UNL     1      47.060   2.951   6.419  0.00  0.00    +0.000 A 
ATOM     15  C   UNL     1      47.512   1.649   6.593  0.00  0.00    +0.000 A 
ATOM     16  C   UNL     1      46.970   0.906   7.629  0.00  0.00    +0.000 A 
ATOM     17  N   UNL     1      46.028   1.371   8.481  0.00  0.00    +0.000 NA
ENDBRANCH  11  12
ENDBRANCH   9  11
ENDBRANCH   8   9
ENDBRANCH   5   8
ENDBRANCH   1   2
BRANCH   1  20
ATOM     18  C   UNL     1      48.043   8.163  12.973  0.00  0.00    +0.000 C 
ATOM     19  O   UNL     1      48.000   7.900  14.173  0.00  0.00    +0.000 OA
ATOM     20  N   UNL     1      46.899   8.312  12.235  0.00  0.00    +0.000 N 
ATOM     21  H   UNL     1      46.949   8.506  11.246  0.00  0.00    +0.000 HD
BRANCH  18  29
ATOM     22  C   UNL     1      50.334  10.720  12.920  0.00  0.00    +0.000 A 
ATOM     23  N   UNL     1      51.414  11.516  12.803  0.00  0.00    +0.000 NA
ATOM     24  C   UNL     1      52.436  11.078  12.062  0.00  0.00    +0.000 A 
ATOM     25  N   UNL     1      52.506   9.930  11.391  0.00  0.00    +0.000 NA
ATOM     26  C   UNL     1      51.414   9.163  11.548  0.00  0.00    +0.000 A 
ATOM     27  S   UNL     1      51.315   7.666  10.753  0.00  0.00    +0.000 S 
ATOM     28  C   UNL     1      49.790   7.349  11.433  0.00  0.00    +0.000 A 
ATOM     29  C   UNL     1      49.332   8.353  12.281  0.00  0.00    +0.000 A 
ATOM     30  C   UNL     1      50.289   9.454  12.313  0.00  0.00    +0.000 A 
BRANCH  22  32
ATOM     31  C   UNL     1      49.643  11.461  15.028  0.00  0.00    +0.000 C 
ATOM     32  O   UNL     1      49.278  11.167  13.683  0.00  0.00    +0.000 OA
ENDBRANCH  22  32
ENDBRANCH  18  29
ENDBRANCH   1  20
TORSDOF 8
ENDMDL
