MODEL 1
REMARK VINA RESULT:    -9.199      0.000      0.000
REMARK INTER + INTRA:         -13.553
REMARK INTER:                 -12.426
REMARK INTRA:                  -1.127
REMARK UNBOUND:                -1.127
REMARK  Name = 
REMARK  6 active torsions:
REMARK  status: ('A' for Active; 'I' for Inactive)
REMARK    1  A    between atoms: C_2  and  C_4
REMARK    2  A    between atoms: N_8  and  C_9
REMARK    3  A    between atoms: C_9  and  C_10
REMARK    4  A    between atoms: C_10  and  C_13
REMARK    5  A    between atoms: C_15  and  O_16
REMARK    6  A    between atoms: O_16  and  C_17
REMARK                            x       y       z     vdW  Elec       q    Type
REMARK                         _______ _______ _______ _____ _____    ______ ____
ROOT
ATOM      1  C   UNL     1      43.024   4.383  11.032  0.00  0.00    +0.000 C 
ENDROOT
BRANCH   1   6
ATOM      2  C   UNL     1      46.473   2.495   7.701  0.00  0.00    +0.000 A 
ATOM      3  C   UNL     1      45.708   1.867   8.677  0.00  0.00    +0.000 A 
ATOM      4  C   UNL     1      44.842   2.635   9.459  0.00  0.00    +0.000 A 
ATOM      5  C   UNL     1      44.755   4.010   9.254  0.00  0.00    +0.000 A 
ATOM      6  N   UNL     1      43.921   4.826   9.966  0.00  0.00    +0.000 N 
ATOM      7  N   UNL     1      45.504   4.626   8.320  0.00  0.00    +0.000 NA
ATOM      8  C   UNL     1      46.350   3.868   7.574  0.00  0.00    +0.000 A 
ATOM      9  H   UNL     1      43.968   5.807   9.713  0.00  0.00    +0.000 HD
BRANCH   2  11
ATOM     10  N   UNL     1      48.513   2.441   6.386  0.00  0.00    +0.000 N 
ATOM     11  C   UNL     1      47.408   1.764   6.822  0.00  0.00    +0.000 C 
ATOM     12  O   UNL     1      47.223   0.592   6.526  0.00  0.00    +0.000 OA
ATOM     13  H   UNL     1      49.198   1.896   5.877  0.00  0.00    +0.000 HD
ATOM     14  H   UNL     1      48.827   3.302   6.812  0.00  0.00    +0.000 HD
ENDBRANCH   2  11
ENDBRANCH   1   6
BRANCH   1  15
ATOM     15  C   UNL     1      43.208   5.148  12.364  0.00  0.00    +0.000 C 
ATOM     16  F   UNL     1      42.456   6.293  12.314  0.00  0.00    +0.000 F 
ATOM     17  F   UNL     1      42.653   4.408  13.374  0.00  0.00    +0.000 F 
BRANCH  15  18
ATOM     18  C   UNL     1      44.676   5.467  12.643  0.00  0.00    +0.000 A 
ATOM     19  C   UNL     1      45.414   4.582  13.433  0.00  0.00    +0.000 A 
ATOM     20  C   UNL     1      46.738   4.892  13.722  0.00  0.00    +0.000 A 
ATOM     21  C   UNL     1      47.308   6.044  13.193  0.00  0.00    +0.000 A 
ATOM     22  C   UNL     1      46.516   6.865  12.410  0.00  0.00    +0.000 A 
ATOM     23  N   UNL     1      45.221   6.605  12.130  0.00  0.00    +0.000 NA
BRANCH  20  24
ATOM     24  O   UNL     1      47.568   4.119  14.496  0.00  0.00    +0.000 OA
BRANCH  24  25
ATOM     25  C   UNL     1      47.393   4.136  15.931  0.00  0.00    +0.000 C 
ATOM     26  C   UNL     1      48.286   5.110  16.737  0.00  0.00    +0.000 C 
ATOM     27  C   UNL     1      48.615   3.974  17.712  0.00  0.00    +0.000 C 
ATOM     28  C   UNL     1      48.094   2.972  16.673  0.00  0.00    +0.000 C 
ENDBRANCH  24  25
ENDBRANCH  20  24
ENDBRANCH  15  18
ENDBRANCH   1  15
TORSDOF 6
ENDMDL
MODEL 2
REMARK VINA RESULT:    -8.443      2.272      4.047
REMARK INTER + INTRA:         -12.531
REMARK INTER:                 -11.571
REMARK INTRA:                  -0.961
REMARK UNBOUND:                -1.127
REMARK  Name = 
REMARK  6 active torsions:
REMARK  status: ('A' for Active; 'I' for Inactive)
REMARK    1  A    between atoms: C_2  and  C_4
REMARK    2  A    between atoms: N_8  and  C_9
REMARK    3  A    between atoms: C_9  and  C_10
REMARK    4  A    between atoms: C_10  and  C_13
REMARK    5  A    between atoms: C_15  and  O_16
REMARK    6  A    between atoms: O_16  and  C_17
REMARK                            x       y       z     vdW  Elec       q    Type
REMARK                         _______ _______ _______ _____ _____    ______ ____
ROOT
ATOM      1  C   UNL     1      43.206   4.293  11.044  0.00  0.00    +0.000 C 
ENDROOT
BRANCH   1   6
ATOM      2  C   UNL     1      46.611   2.693   7.522  0.00  0.00    +0.000 A 
ATOM      3  C   UNL     1      45.833   1.982   8.430  0.00  0.00    +0.000 A 
ATOM      4  C   UNL     1      44.984   2.683   9.290  0.00  0.00    +0.000 A 
ATOM      5  C   UNL     1      44.927   4.073   9.231  0.00  0.00    +0.000 A 
ATOM      6  N   UNL     1      44.112   4.827  10.027  0.00  0.00    +0.000 N 
ATOM      7  N   UNL     1      45.689   4.767   8.365  0.00  0.00    +0.000 NA
ATOM      8  C   UNL     1      46.518   4.074   7.541  0.00  0.00    +0.000 A 
ATOM      9  H   UNL     1      44.179   5.828   9.879  0.00  0.00    +0.000 HD
BRANCH   2  11
ATOM     10  N   UNL     1      47.893   2.754   5.462  0.00  0.00    +0.000 N 
ATOM     11  C   UNL     1      47.529   2.039   6.568  0.00  0.00    +0.000 C 
ATOM     12  O   UNL     1      47.977   0.920   6.777  0.00  0.00    +0.000 OA
ATOM     13  H   UNL     1      48.607   2.338   4.875  0.00  0.00    +0.000 HD
ATOM     14  H   UNL     1      47.758   3.753   5.391  0.00  0.00    +0.000 HD
ENDBRANCH   2  11
ENDBRANCH   1   6
BRANCH   1  15
ATOM     15  C   UNL     1      43.816   4.250  12.465  0.00  0.00    +0.000 C 
ATOM     16  F   UNL     1      42.807   4.435  13.375  0.00  0.00    +0.000 F 
ATOM     17  F   UNL     1      44.276   2.982  12.705  0.00  0.00    +0.000 F 
BRANCH  15  18
ATOM     18  C   UNL     1      44.918   5.291  12.647  0.00  0.00    +0.000 A 
ATOM     19  C   UNL     1      44.561   6.639  12.712  0.00  0.00    +0.000 A 
ATOM     20  C   UNL     1      45.567   7.591  12.836  0.00  0.00    +0.000 A 
ATOM     21  C   UNL     1      46.893   7.184  12.932  0.00  0.00    +0.000 A 
ATOM     22  C   UNL     1      47.167   5.829  12.873  0.00  0.00    +0.000 A 
ATOM     23  N   UNL     1      46.215   4.882  12.728  0.00  0.00    +0.000 NA
BRANCH  20  24
ATOM     24  O   UNL     1      45.356   8.946  12.895  0.00  0.00    +0.000 OA
BRANCH  24  25
ATOM     25  C   UNL     1      45.303   9.695  11.660  0.00  0.00    +0.000 C 
ATOM     26  C   UNL     1      45.332  11.238  11.771  0.00  0.00    +0.000 C 
ATOM     27  C   UNL     1      44.151  11.313  10.796  0.00  0.00    +0.000 C 
ATOM     28  C   UNL     1      43.885   9.824  11.052  0.00  0.00    +0.000 C 
ENDBRANCH  24  25
ENDBRANCH  20  24
ENDBRANCH  15  18
ENDBRANCH   1  15
TORSDOF 6
ENDMDL
MODEL 3
REMARK VINA RESULT:    -8.014      2.461      3.107
REMARK INTER + INTRA:         -11.953
REMARK INTER:                 -11.072
REMARK INTRA:                  -0.881
REMARK UNBOUND:                -1.127
REMARK  Name = 
REMARK  6 active torsions:
REMARK  status: ('A' for Active; 'I' for Inactive)
REMARK    1  A    between atoms: C_2  and  C_4
REMARK    2  A    between atoms: N_8  and  C_9
REMARK    3  A    between atoms: C_9  and  C_10
REMARK    4  A    between atoms: C_10  and  C_13
REMARK    5  A    between atoms: C_15  and  O_16
REMARK    6  A    between atoms: O_16  and  C_17
REMARK                            x       y       z     vdW  Elec       q    Type
REMARK                         _______ _______ _______ _____ _____    ______ ____
ROOT
ATOM      1  C   UNL     1      43.394   3.531  11.259  0.00  0.00    +0.000 C 
ENDROOT
BRANCH   1   6
ATOM      2  C   UNL     1      46.503   2.675   7.240  0.00  0.00    +0.000 A 
ATOM      3  C   UNL     1      45.891   3.839   7.689  0.00  0.00    +0.000 A 
ATOM      4  C   UNL     1      45.077   3.784   8.823  0.00  0.00    +0.000 A 
ATOM      5  C   UNL     1      44.889   2.574   9.485  0.00  0.00    +0.000 A 
ATOM      6  N   UNL     1      44.122   2.442  10.609  0.00  0.00    +0.000 N 
ATOM      7  N   UNL     1      45.467   1.440   9.046  0.00  0.00    +0.000 NA
ATOM      8  C   UNL     1      46.248   1.505   7.936  0.00  0.00    +0.000 A 
ATOM      9  H   UNL     1      44.070   1.499  10.981  0.00  0.00    +0.000 HD
BRANCH   2  11
ATOM     10  N   UNL     1      48.615   2.059   6.213  0.00  0.00    +0.000 N 
ATOM     11  C   UNL     1      47.387   2.638   6.057  0.00  0.00    +0.000 C 
ATOM     12  O   UNL     1      47.022   3.071   4.973  0.00  0.00    +0.000 OA
ATOM     13  H   UNL     1      49.165   1.942   5.370  0.00  0.00    +0.000 HD
ATOM     14  H   UNL     1      48.843   1.469   7.001  0.00  0.00    +0.000 HD
ENDBRANCH   2  11
ENDBRANCH   1   6
BRANCH   1  15
ATOM     15  C   UNL     1      44.069   4.052  12.550  0.00  0.00    +0.000 C 
ATOM     16  F   UNL     1      43.153   4.000  13.569  0.00  0.00    +0.000 F 
ATOM     17  F   UNL     1      45.052   3.171  12.916  0.00  0.00    +0.000 F 
BRANCH  15  18
ATOM     18  C   UNL     1      44.619   5.466  12.378  0.00  0.00    +0.000 A 
ATOM     19  C   UNL     1      45.800   5.810  13.039  0.00  0.00    +0.000 A 
ATOM     20  C   UNL     1      46.279   7.109  12.917  0.00  0.00    +0.000 A 
ATOM     21  C   UNL     1      45.604   8.021  12.114  0.00  0.00    +0.000 A 
ATOM     22  C   UNL     1      44.447   7.603  11.481  0.00  0.00    +0.000 A 
ATOM     23  N   UNL     1      43.942   6.356  11.599  0.00  0.00    +0.000 NA
BRANCH  20  24
ATOM     24  O   UNL     1      47.417   7.581  13.524  0.00  0.00    +0.000 OA
BRANCH  24  25
ATOM     25  C   UNL     1      48.702   7.193  12.987  0.00  0.00    +0.000 C 
ATOM     26  C   UNL     1      49.910   8.098  13.332  0.00  0.00    +0.000 C 
ATOM     27  C   UNL     1      50.317   8.085  11.854  0.00  0.00    +0.000 C 
ATOM     28  C   UNL     1      48.914   7.575  11.502  0.00  0.00    +0.000 C 
ENDBRANCH  24  25
ENDBRANCH  20  24
ENDBRANCH  15  18
ENDBRANCH   1  15
TORSDOF 6
ENDMDL
MODEL 4
REMARK VINA RESULT:    -7.900      2.740      7.877
REMARK INTER + INTRA:         -11.798
REMARK INTER:                 -10.920
REMARK INTRA:                  -0.879
REMARK UNBOUND:                -1.127
REMARK  Name = 
REMARK  6 active torsions:
REMARK  status: ('A' for Active; 'I' for Inactive)
REMARK    1  A    between atoms: C_2  and  C_4
REMARK    2  A    between atoms: N_8  and  C_9
REMARK    3  A    between atoms: C_9  and  C_10
REMARK    4  A    between atoms: C_10  and  C_13
REMARK    5  A    between atoms: C_15  and  O_16
REMARK    6  A    between atoms: O_16  and  C_17
REMARK                            x       y       z     vdW  Elec       q    Type
REMARK                         _______ _______ _______ _____ _____    ______ ____
ROOT
ATOM      1  C   UNL     1      46.749   6.115  12.769  0.00  0.00    +0.000 C 
ENDROOT
BRANCH   1   6
ATOM      2  C   UNL     1      48.517   4.206  17.217  0.00  0.00    +0.000 A 
ATOM      3  C   UNL     1      48.583   5.487  16.683  0.00  0.00    +0.000 A 
ATOM      4  C   UNL     1      48.016   5.730  15.430  0.00  0.00    +0.000 A 
ATOM      5  C   UNL     1      47.397   4.695  14.734  0.00  0.00    +0.000 A 
ATOM      6  N   UNL     1      46.807   4.857  13.512  0.00  0.00    +0.000 N 
ATOM      7  N   UNL     1      47.343   3.448  15.239  0.00  0.00    +0.000 NA
ATOM      8  C   UNL     1      47.908   3.223  16.454  0.00  0.00    +0.000 A 
ATOM      9  H   UNL     1      46.400   4.014  13.121  0.00  0.00    +0.000 HD
BRANCH   2  11
ATOM     10  N   UNL     1      48.288   3.127  19.380  0.00  0.00    +0.000 N 
ATOM     11  C   UNL     1      49.080   3.857  18.537  0.00  0.00    +0.000 C 
ATOM     12  O   UNL     1      50.219   4.172  18.850  0.00  0.00    +0.000 OA
ATOM     13  H   UNL     1      48.725   2.802  20.234  0.00  0.00    +0.000 HD
ATOM     14  H   UNL     1      47.464   2.636  19.063  0.00  0.00    +0.000 HD
ENDBRANCH   2  11
ENDBRANCH   1   6
BRANCH   1  15
ATOM     15  C   UNL     1      45.410   6.345  12.030  0.00  0.00    +0.000 C 
ATOM     16  F   UNL     1      44.444   6.626  12.961  0.00  0.00    +0.000 F 
ATOM     17  F   UNL     1      45.515   7.486  11.278  0.00  0.00    +0.000 F 
BRANCH  15  18
ATOM     18  C   UNL     1      45.014   5.143  11.173  0.00  0.00    +0.000 A 
ATOM     19  C   UNL     1      45.385   5.130   9.827  0.00  0.00    +0.000 A 
ATOM     20  C   UNL     1      44.990   4.057   9.037  0.00  0.00    +0.000 A 
ATOM     21  C   UNL     1      44.275   3.009   9.604  0.00  0.00    +0.000 A 
ATOM     22  C   UNL     1      43.955   3.088  10.948  0.00  0.00    +0.000 A 
ATOM     23  N   UNL     1      44.303   4.128  11.737  0.00  0.00    +0.000 NA
BRANCH  20  24
ATOM     24  O   UNL     1      45.273   3.927   7.700  0.00  0.00    +0.000 OA
BRANCH  24  25
ATOM     25  C   UNL     1      46.595   3.490   7.311  0.00  0.00    +0.000 C 
ATOM     26  C   UNL     1      46.836   3.234   5.803  0.00  0.00    +0.000 C 
ATOM     27  C   UNL     1      47.498   1.897   6.155  0.00  0.00    +0.000 C 
ATOM     28  C   UNL     1      46.867   1.985   7.550  0.00  0.00    +0.000 C 
ENDBRANCH  24  25
ENDBRANCH  20  24
ENDBRANCH  15  18
ENDBRANCH   1  15
TORSDOF 6
ENDMDL
MODEL 5
REMARK VINA RESULT:    -7.395      3.119      6.973
REMARK INTER + INTRA:         -11.116
REMARK INTER:                 -10.187
REMARK INTRA:                  -0.929
REMARK UNBOUND:                -1.127
REMARK  Name = 
REMARK  6 active torsions:
REMARK  status: ('A' for Active; 'I' for Inactive)
REMARK    1  A    between atoms: C_2  and  C_4
REMARK    2  A    between atoms: N_8  and  C_9
REMARK    3  A    between atoms: C_9  and  C_10
REMARK    4  A    between atoms: C_10  and  C_13
REMARK    5  A    between atoms: C_15  and  O_16
REMARK    6  A    between atoms: O_16  and  C_17
REMARK                            x       y       z     vdW  Elec       q    Type
REMARK                         _______ _______ _______ _____ _____    ______ ____
ROOT
ATOM      1  C   UNL     1      44.079   5.722  12.841  0.00  0.00    +0.000 C 
ENDROOT
BRANCH   1   6
ATOM      2  C   UNL     1      48.685   8.015  12.548  0.00  0.00    +0.000 A 
ATOM      3  C   UNL     1      48.316   6.683  12.397  0.00  0.00    +0.000 A 
ATOM      4  C   UNL     1      46.972   6.330  12.538  0.00  0.00    +0.000 A 
ATOM      5  C   UNL     1      46.023   7.308  12.828  0.00  0.00    +0.000 A 
ATOM      6  N   UNL     1      44.690   7.045  12.966  0.00  0.00    +0.000 N 
ATOM      7  N   UNL     1      46.376   8.597  12.991  0.00  0.00    +0.000 NA
ATOM      8  C   UNL     1      47.688   8.924  12.861  0.00  0.00    +0.000 A 
ATOM      9  H   UNL     1      44.116   7.853  13.184  0.00  0.00    +0.000 HD
BRANCH   2  11
ATOM     10  N   UNL     1      51.005   7.951  13.261  0.00  0.00    +0.000 N 
ATOM     11  C   UNL     1      50.078   8.482  12.408  0.00  0.00    +0.000 C 
ATOM     12  O   UNL     1      50.400   9.282  11.539  0.00  0.00    +0.000 OA
ATOM     13  H   UNL     1      51.970   8.196  13.082  0.00  0.00    +0.000 HD
ATOM     14  H   UNL     1      50.830   7.114  13.801  0.00  0.00    +0.000 HD
ENDBRANCH   2  11
ENDBRANCH   1   6
BRANCH   1  15
ATOM     15  C   UNL     1      43.279   5.523  11.531  0.00  0.00    +0.000 C 
ATOM     16  F   UNL     1      41.977   5.247  11.856  0.00  0.00    +0.000 F 
ATOM     17  F   UNL     1      43.228   6.718  10.864  0.00  0.00    +0.000 F 
BRANCH  15  18
ATOM     18  C   UNL     1      43.874   4.419  10.660  0.00  0.00    +0.000 A 
ATOM     19  C   UNL     1      44.728   4.778   9.615  0.00  0.00    +0.000 A 
ATOM     20  C   UNL     1      45.236   3.777   8.795  0.00  0.00    +0.000 A 
ATOM     21  C   UNL     1      44.922   2.448   9.052  0.00  0.00    +0.000 A 
ATOM     22  C   UNL     1      44.079   2.170  10.114  0.00  0.00    +0.000 A 
ATOM     23  N   UNL     1      43.548   3.120  10.914  0.00  0.00    +0.000 NA
BRANCH  20  24
ATOM     24  O   UNL     1      46.071   3.993   7.727  0.00  0.00    +0.000 OA
BRANCH  24  25
ATOM     25  C   UNL     1      46.395   2.880   6.863  0.00  0.00    +0.000 C 
ATOM     26  C   UNL     1      47.826   2.299   6.970  0.00  0.00    +0.000 C 
ATOM     27  C   UNL     1      47.932   2.329   5.441  0.00  0.00    +0.000 C 
ATOM     28  C   UNL     1      46.729   3.280   5.405  0.00  0.00    +0.000 C 
ENDBRANCH  24  25
ENDBRANCH  20  24
ENDBRANCH  15  18
ENDBRANCH   1  15
TORSDOF 6
ENDMDL
MODEL 6
REMARK VINA RESULT:    -6.841      2.915      6.951
REMARK INTER + INTRA:         -10.368
REMARK INTER:                  -9.422
REMARK INTRA:                  -0.947
REMARK UNBOUND:                -1.127
REMARK  Name = 
REMARK  6 active torsions:
REMARK  status: ('A' for Active; 'I' for Inactive)
REMARK    1  A    between atoms: C_2  and  C_4
REMARK    2  A    between atoms: N_8  and  C_9
REMARK    3  A    between atoms: C_9  and  C_10
REMARK    4  A    between atoms: C_10  and  C_13
REMARK    5  A    between atoms: C_15  and  O_16
REMARK    6  A    between atoms: O_16  and  C_17
REMARK                            x       y       z     vdW  Elec       q    Type
REMARK                         _______ _______ _______ _____ _____    ______ ____
ROOT
ATOM      1  C   UNL     1      44.853   4.981  13.353  0.00  0.00    +0.000 C 
ENDROOT
BRANCH   1   6
ATOM      2  C   UNL     1      49.203   7.604  12.480  0.00  0.00    +0.000 A 
ATOM      3  C   UNL     1      48.054   7.458  11.711  0.00  0.00    +0.000 A 
ATOM      4  C   UNL     1      47.009   6.669  12.195  0.00  0.00    +0.000 A 
ATOM      5  C   UNL     1      47.127   6.039  13.432  0.00  0.00    +0.000 A 
ATOM      6  N   UNL     1      46.144   5.265  13.979  0.00  0.00    +0.000 N 
ATOM      7  N   UNL     1      48.243   6.164  14.175  0.00  0.00    +0.000 NA
ATOM      8  C   UNL     1      49.256   6.927  13.687  0.00  0.00    +0.000 A 
ATOM      9  H   UNL     1      46.371   4.864  14.884  0.00  0.00    +0.000 HD
BRANCH   2  11
ATOM     10  N   UNL     1      51.597   8.004  12.438  0.00  0.00    +0.000 N 
ATOM     11  C   UNL     1      50.354   8.426  12.056  0.00  0.00    +0.000 C 
ATOM     12  O   UNL     1      50.207   9.420  11.359  0.00  0.00    +0.000 OA
ATOM     13  H   UNL     1      52.381   8.513  12.049  0.00  0.00    +0.000 HD
ATOM     14  H   UNL     1      51.773   7.070  12.780  0.00  0.00    +0.000 HD
ENDBRANCH   2  11
ENDBRANCH   1   6
BRANCH   1  15
ATOM     15  C   UNL     1      44.793   3.612  12.634  0.00  0.00    +0.000 C 
ATOM     16  F   UNL     1      45.919   2.901  12.961  0.00  0.00    +0.000 F 
ATOM     17  F   UNL     1      43.756   2.888  13.159  0.00  0.00    +0.000 F 
BRANCH  15  18
ATOM     18  C   UNL     1      44.661   3.765  11.120  0.00  0.00    +0.000 A 
ATOM     19  C   UNL     1      45.324   2.854  10.295  0.00  0.00    +0.000 A 
ATOM     20  C   UNL     1      45.238   3.018   8.917  0.00  0.00    +0.000 A 
ATOM     21  C   UNL     1      44.470   4.049   8.391  0.00  0.00    +0.000 A 
ATOM     22  C   UNL     1      43.833   4.905   9.273  0.00  0.00    +0.000 A 
ATOM     23  N   UNL     1      43.916   4.788  10.616  0.00  0.00    +0.000 NA
BRANCH  20  24
ATOM     24  O   UNL     1      45.852   2.204   7.997  0.00  0.00    +0.000 OA
BRANCH  24  25
ATOM     25  C   UNL     1      46.924   2.750   7.196  0.00  0.00    +0.000 C 
ATOM     26  C   UNL     1      46.666   2.891   5.676  0.00  0.00    +0.000 C 
ATOM     27  C   UNL     1      48.026   2.238   5.403  0.00  0.00    +0.000 C 
ATOM     28  C   UNL     1      48.043   1.736   6.852  0.00  0.00    +0.000 C 
ENDBRANCH  24  25
ENDBRANCH  20  24
ENDBRANCH  15  18
ENDBRANCH   1  15
TORSDOF 6
ENDMDL
MODEL 7
REMARK VINA RESULT:    -6.820      3.403      4.835
REMARK INTER + INTRA:         -10.340
REMARK INTER:                  -9.114
REMARK INTRA:                  -1.226
REMARK UNBOUND:                -1.127
REMARK  Name = 
REMARK  6 active torsions:
REMARK  status: ('A' for Active; 'I' for Inactive)
REMARK    1  A    between atoms: C_2  and  C_4
REMARK    2  A    between atoms: N_8  and  C_9
REMARK    3  A    between atoms: C_9  and  C_10
REMARK    4  A    between atoms: C_10  and  C_13
REMARK    5  A    between atoms: C_15  and  O_16
REMARK    6  A    between atoms: O_16  and  C_17
REMARK                            x       y       z     vdW  Elec       q    Type
REMARK                         _______ _______ _______ _____ _____    ______ ____
ROOT
ATOM      1  C   UNL     1      46.710   8.690  12.464  0.00  0.00    +0.000 C 
ENDROOT
BRANCH   1   6
ATOM      2  C   UNL     1      44.419   4.174  11.506  0.00  0.00    +0.000 A 
ATOM      3  C   UNL     1      45.243   4.966  10.715  0.00  0.00    +0.000 A 
ATOM      4  C   UNL     1      45.729   6.169  11.233  0.00  0.00    +0.000 A 
ATOM      5  C   UNL     1      45.384   6.561  12.524  0.00  0.00    +0.000 A 
ATOM      6  N   UNL     1      45.831   7.714  13.105  0.00  0.00    +0.000 N 
ATOM      7  N   UNL     1      44.573   5.806  13.289  0.00  0.00    +0.000 NA
ATOM      8  C   UNL     1      44.100   4.643  12.770  0.00  0.00    +0.000 A 
ATOM      9  H   UNL     1      45.493   7.874  14.049  0.00  0.00    +0.000 HD
BRANCH   2  11
ATOM     10  N   UNL     1      44.466   2.295   9.970  0.00  0.00    +0.000 N 
ATOM     11  C   UNL     1      43.867   2.884  11.049  0.00  0.00    +0.000 C 
ATOM     12  O   UNL     1      42.938   2.343  11.633  0.00  0.00    +0.000 OA
ATOM     13  H   UNL     1      44.149   1.362   9.736  0.00  0.00    +0.000 HD
ATOM     14  H   UNL     1      45.378   2.574   9.635  0.00  0.00    +0.000 HD
ENDBRANCH   2  11
ENDBRANCH   1   6
BRANCH   1  15
ATOM     15  C   UNL     1      48.213   8.469  12.762  0.00  0.00    +0.000 C 
ATOM     16  F   UNL     1      48.666   7.445  11.972  0.00  0.00    +0.000 F 
ATOM     17  F   UNL     1      48.909   9.571  12.340  0.00  0.00    +0.000 F 
BRANCH  15  18
ATOM     18  C   UNL     1      48.467   8.177  14.240  0.00  0.00    +0.000 A 
ATOM     19  C   UNL     1      48.927   6.910  14.601  0.00  0.00    +0.000 A 
ATOM     20  C   UNL     1      49.119   6.630  15.949  0.00  0.00    +0.000 A 
ATOM     21  C   UNL     1      48.890   7.618  16.899  0.00  0.00    +0.000 A 
ATOM     22  C   UNL     1      48.446   8.854  16.462  0.00  0.00    +0.000 A 
ATOM     23  N   UNL     1      48.226   9.150  15.163  0.00  0.00    +0.000 NA
BRANCH  20  24
ATOM     24  O   UNL     1      49.552   5.423  16.441  0.00  0.00    +0.000 OA
BRANCH  24  25
ATOM     25  C   UNL     1      48.711   4.714  17.379  0.00  0.00    +0.000 C 
ATOM     26  C   UNL     1      49.025   3.216  17.611  0.00  0.00    +0.000 C 
ATOM     27  C   UNL     1      47.535   2.897  17.444  0.00  0.00    +0.000 C 
ATOM     28  C   UNL     1      47.341   4.278  16.805  0.00  0.00    +0.000 C 
ENDBRANCH  24  25
ENDBRANCH  20  24
ENDBRANCH  15  18
ENDBRANCH   1  15
TORSDOF 6
ENDMDL
MODEL 8
REMARK VINA RESULT:    -6.750      3.322      6.846
REMARK INTER + INTRA:         -10.245
REMARK INTER:                  -9.240
REMARK INTRA:                  -1.005
REMARK UNBOUND:                -1.127
REMARK  Name = 
REMARK  6 active torsions:
REMARK  status: ('A' for Active; 'I' for Inactive)
REMARK    1  A    between atoms: C_2  and  C_4
REMARK    2  A    between atoms: N_8  and  C_9
REMARK    3  A    between atoms: C_9  and  C_10
REMARK    4  A    between atoms: C_10  and  C_13
REMARK    5  A    between atoms: C_15  and  O_16
REMARK    6  A    between atoms: O_16  and  C_17
REMARK                            x       y       z     vdW  Elec       q    Type
REMARK                         _______ _______ _______ _____ _____    ______ ____
ROOT
ATOM      1  C   UNL     1      47.542   5.384  13.291  0.00  0.00    +0.000 C 
ENDROOT
BRANCH   1   6
ATOM      2  C   UNL     1      44.416   9.000  11.364  0.00  0.00    +0.000 A 
ATOM      3  C   UNL     1      44.734   7.727  10.903  0.00  0.00    +0.000 A 
ATOM      4  C   UNL     1      45.634   6.947  11.632  0.00  0.00    +0.000 A 
ATOM      5  C   UNL     1      46.200   7.447  12.802  0.00  0.00    +0.000 A 
ATOM      6  N   UNL     1      47.074   6.739  13.578  0.00  0.00    +0.000 N 
ATOM      7  N   UNL     1      45.908   8.684  13.246  0.00  0.00    +0.000 NA
ATOM      8  C   UNL     1      45.039   9.437  12.522  0.00  0.00    +0.000 A 
ATOM      9  H   UNL     1      47.411   7.232  14.398  0.00  0.00    +0.000 HD
BRANCH   2  11
ATOM     10  N   UNL     1      42.162   9.852  11.066  0.00  0.00    +0.000 N 
ATOM     11  C   UNL     1      43.469   9.893  10.667  0.00  0.00    +0.000 C 
ATOM     12  O   UNL     1      43.843  10.665   9.795  0.00  0.00    +0.000 OA
ATOM     13  H   UNL     1      41.548  10.545  10.657  0.00  0.00    +0.000 HD
ATOM     14  H   UNL     1      41.873   9.431  11.938  0.00  0.00    +0.000 HD
ENDBRANCH   2  11
ENDBRANCH   1   6
BRANCH   1  15
ATOM     15  C   UNL     1      46.655   4.273  13.902  0.00  0.00    +0.000 C 
ATOM     16  F   UNL     1      47.429   3.159  14.098  0.00  0.00    +0.000 F 
ATOM     17  F   UNL     1      46.274   4.660  15.160  0.00  0.00    +0.000 F 
BRANCH  15  18
ATOM     18  C   UNL     1      45.447   3.956  13.023  0.00  0.00    +0.000 A 
ATOM     19  C   UNL     1      45.661   3.335  11.791  0.00  0.00    +0.000 A 
ATOM     20  C   UNL     1      44.566   3.083  10.972  0.00  0.00    +0.000 A 
ATOM     21  C   UNL     1      43.289   3.414  11.407  0.00  0.00    +0.000 A 
ATOM     22  C   UNL     1      43.155   4.016  12.645  0.00  0.00    +0.000 A 
ATOM     23  N   UNL     1      44.200   4.296  13.454  0.00  0.00    +0.000 NA
BRANCH  20  24
ATOM     24  O   UNL     1      44.638   2.494   9.733  0.00  0.00    +0.000 OA
BRANCH  24  25
ATOM     25  C   UNL     1      45.789   2.766   8.902  0.00  0.00    +0.000 C 
ATOM     26  C   UNL     1      45.538   3.540   7.585  0.00  0.00    +0.000 C 
ATOM     27  C   UNL     1      46.392   2.508   6.838  0.00  0.00    +0.000 C 
ATOM     28  C   UNL     1      46.253   1.566   8.041  0.00  0.00    +0.000 C 
ENDBRANCH  24  25
ENDBRANCH  20  24
ENDBRANCH  15  18
ENDBRANCH   1  15
TORSDOF 6
ENDMDL
MODEL 9
REMARK VINA RESULT:    -6.616      2.890      7.946
REMARK INTER + INTRA:         -10.063
REMARK INTER:                  -9.233
REMARK INTRA:                  -0.830
REMARK UNBOUND:                -1.127
REMARK  Name = 
REMARK  6 active torsions:
REMARK  status: ('A' for Active; 'I' for Inactive)
REMARK    1  A    between atoms: C_2  and  C_4
REMARK    2  A    between atoms: N_8  and  C_9
REMARK    3  A    between atoms: C_9  and  C_10
REMARK    4  A    between atoms: C_10  and  C_13
REMARK    5  A    between atoms: C_15  and  O_16
REMARK    6  A    between atoms: O_16  and  C_17
REMARK                            x       y       z     vdW  Elec       q    Type
REMARK                         _______ _______ _______ _____ _____    ______ ____
ROOT
ATOM      1  C   UNL     1      46.149   6.842  11.572  0.00  0.00    +0.000 C 
ENDROOT
BRANCH   1   6
ATOM      2  C   UNL     1      48.949   8.245  15.665  0.00  0.00    +0.000 A 
ATOM      3  C   UNL     1      48.054   8.964  14.881  0.00  0.00    +0.000 A 
ATOM      4  C   UNL     1      47.428   8.326  13.808  0.00  0.00    +0.000 A 
ATOM      5  C   UNL     1      47.705   6.989  13.535  0.00  0.00    +0.000 A 
ATOM      6  N   UNL     1      47.123   6.292  12.514  0.00  0.00    +0.000 N 
ATOM      7  N   UNL     1      48.583   6.292  14.281  0.00  0.00    +0.000 NA
ATOM      8  C   UNL     1      49.193   6.927  15.316  0.00  0.00    +0.000 A 
ATOM      9  H   UNL     1      47.425   5.327  12.430  0.00  0.00    +0.000 HD
BRANCH   2  11
ATOM     10  N   UNL     1      50.209  10.068  16.656  0.00  0.00    +0.000 N 
ATOM     11  C   UNL     1      49.651   8.832  16.824  0.00  0.00    +0.000 C 
ATOM     12  O   UNL     1      49.698   8.255  17.902  0.00  0.00    +0.000 OA
ATOM     13  H   UNL     1      50.589  10.504  17.487  0.00  0.00    +0.000 HD
ATOM     14  H   UNL     1      49.968  10.673  15.883  0.00  0.00    +0.000 HD
ENDBRANCH   2  11
ENDBRANCH   1   6
BRANCH   1  15
ATOM     15  C   UNL     1      44.719   6.276  11.747  0.00  0.00    +0.000 C 
ATOM     16  F   UNL     1      44.448   6.190  13.088  0.00  0.00    +0.000 F 
ATOM     17  F   UNL     1      43.823   7.194  11.267  0.00  0.00    +0.000 F 
BRANCH  15  18
ATOM     18  C   UNL     1      44.553   4.919  11.065  0.00  0.00    +0.000 A 
ATOM     19  C   UNL     1      44.936   4.791   9.729  0.00  0.00    +0.000 A 
ATOM     20  C   UNL     1      44.746   3.569   9.095  0.00  0.00    +0.000 A 
ATOM     21  C   UNL     1      44.222   2.496   9.807  0.00  0.00    +0.000 A 
ATOM     22  C   UNL     1      43.878   2.697  11.132  0.00  0.00    +0.000 A 
ATOM     23  N   UNL     1      44.027   3.879  11.770  0.00  0.00    +0.000 NA
BRANCH  20  24
ATOM     24  O   UNL     1      45.064   3.313   7.784  0.00  0.00    +0.000 OA
BRANCH  24  25
ATOM     25  C   UNL     1      46.458   3.214   7.415  0.00  0.00    +0.000 C 
ATOM     26  C   UNL     1      46.792   3.270   5.904  0.00  0.00    +0.000 C 
ATOM     27  C   UNL     1      47.700   2.047   6.078  0.00  0.00    +0.000 C 
ATOM     28  C   UNL     1      47.022   1.772   7.426  0.00  0.00    +0.000 C 
ENDBRANCH  24  25
ENDBRANCH  20  24
ENDBRANCH  15  18
ENDBRANCH   1  15
TORSDOF 6
ENDMDL
