MODEL 1
REMARK VINA RESULT:    -7.375      0.000      0.000
REMARK INTER + INTRA:          -8.990
REMARK INTER:                  -8.668
REMARK INTRA:                  -0.322
REMARK UNBOUND:                -0.322
REMARK  Name = 
REMARK  3 active torsions:
REMARK  status: ('A' for Active; 'I' for Inactive)
REMARK    1  A    between atoms: C_2  and  C_4
REMARK    2  A    between atoms: N_8  and  C_9
REMARK    3  A    between atoms: C_9  and  C_10
REMARK                            x       y       z     vdW  Elec       q    Type
REMARK                         _______ _______ _______ _____ _____    ______ ____
ROOT
ATOM      1  C   UNL     1      46.549   2.688   7.443  0.00  0.00    +0.000 A 
ATOM      2  C   UNL     1      46.023   1.837   8.383  0.00  0.00    +0.000 A 
ATOM      3  N   UNL     1      45.139   2.226   9.332  0.00  0.00    +0.000 NA
ATOM      4  C   UNL     1      44.785   3.519   9.346  0.00  0.00    +0.000 A 
ATOM      5  N   UNL     1      43.794   3.863  10.235  0.00  0.00    +0.000 N 
ATOM      6  N   UNL     1      45.290   4.437   8.510  0.00  0.00    +0.000 NA
ATOM      7  C   UNL     1      46.162   4.001   7.571  0.00  0.00    +0.000 A 
ATOM      8  H   UNL     1      43.686   3.131  10.930  0.00  0.00    +0.000 HD
ENDROOT
BRANCH   1  10
ATOM      9  N   UNL     1      47.451   2.985   5.204  0.00  0.00    +0.000 N 
ATOM     10  C   UNL     1      47.471   2.279   6.377  0.00  0.00    +0.000 C 
ATOM     11  O   UNL     1      48.265   1.363   6.546  0.00  0.00    +0.000 OA
ATOM     12  H   UNL     1      48.175   2.751   4.533  0.00  0.00    +0.000 HD
ATOM     13  H   UNL     1      47.020   3.894   5.111  0.00  0.00    +0.000 HD
ENDBRANCH   1  10
BRANCH   5  14
ATOM     14  C   UNL     1      43.869   5.199  10.811  0.00  0.00    +0.000 C 
BRANCH  14  15
ATOM     15  C   UNL     1      45.035   5.297  11.790  0.00  0.00    +0.000 A 
ATOM     16  N   UNL     1      45.958   6.268  11.576  0.00  0.00    +0.000 NA
ATOM     17  C   UNL     1      46.999   6.307  12.427  0.00  0.00    +0.000 A 
ATOM     18  C   UNL     1      47.145   5.448  13.489  0.00  0.00    +0.000 A 
ATOM     19  C   UNL     1      46.139   4.524  13.645  0.00  0.00    +0.000 A 
ATOM     20  N   UNL     1      45.078   4.428  12.822  0.00  0.00    +0.000 NA
ENDBRANCH  14  15
ENDBRANCH   5  14
TORSDOF 3
ENDMDL
MODEL 2
REMARK VINA RESULT:    -7.103      2.688      6.066
REMARK INTER + INTRA:          -8.670
REMARK INTER:                  -8.306
REMARK INTRA:                  -0.364
REMARK UNBOUND:                -0.322
REMARK  Name = 
REMARK  3 active torsions:
REMARK  status: ('A' for Active; 'I' for Inactive)
REMARK    1  A    between atoms: C_2  and  C_4
REMARK    2  A    between atoms: N_8  and  C_9
REMARK    3  A    between atoms: C_9  and  C_10
REMARK                            x       y       z     vdW  Elec       q    Type
REMARK                         _______ _______ _______ _____ _____    ______ ____
ROOT
ATOM      1  C   UNL     1      46.531   4.942  13.643  0.00  0.00    +0.000 A 
ATOM      2  C   UNL     1      46.943   5.852  12.701  0.00  0.00    +0.000 A 
ATOM      3  N   UNL     1      46.362   5.984  11.485  0.00  0.00    +0.000 NA
ATOM      4  C   UNL     1      45.342   5.161  11.201  0.00  0.00    +0.000 A 
ATOM      5  N   UNL     1      44.688   5.399  10.015  0.00  0.00    +0.000 N 
ATOM      6  N   UNL     1      44.909   4.201  12.030  0.00  0.00    +0.000 NA
ATOM      7  C   UNL     1      45.512   4.112  13.239  0.00  0.00    +0.000 A 
ATOM      8  H   UNL     1      45.262   5.987   9.418  0.00  0.00    +0.000 HD
ENDROOT
BRANCH   1  10
ATOM      9  N   UNL     1      47.927   5.821  15.430  0.00  0.00    +0.000 N 
ATOM     10  C   UNL     1      47.115   4.813  14.983  0.00  0.00    +0.000 C 
ATOM     11  O   UNL     1      46.850   3.856  15.698  0.00  0.00    +0.000 OA
ATOM     12  H   UNL     1      48.221   5.757  16.399  0.00  0.00    +0.000 HD
ATOM     13  H   UNL     1      47.961   6.736  15.003  0.00  0.00    +0.000 HD
ENDBRANCH   1  10
BRANCH   5  14
ATOM     14  C   UNL     1      44.142   4.237   9.327  0.00  0.00    +0.000 C 
BRANCH  14  15
ATOM     15  C   UNL     1      45.235   3.509   8.550  0.00  0.00    +0.000 A 
ATOM     16  N   UNL     1      45.983   4.236   7.684  0.00  0.00    +0.000 NA
ATOM     17  C   UNL     1      46.912   3.564   6.979  0.00  0.00    +0.000 A 
ATOM     18  C   UNL     1      47.143   2.217   7.119  0.00  0.00    +0.000 A 
ATOM     19  C   UNL     1      46.360   1.575   8.049  0.00  0.00    +0.000 A 
ATOM     20  N   UNL     1      45.409   2.190   8.777  0.00  0.00    +0.000 NA
ENDBRANCH  14  15
ENDBRANCH   5  14
TORSDOF 3
ENDMDL
MODEL 3
REMARK VINA RESULT:    -6.917      2.843      6.139
REMARK INTER + INTRA:          -8.452
REMARK INTER:                  -8.239
REMARK INTRA:                  -0.213
REMARK UNBOUND:                -0.322
REMARK  Name = 
REMARK  3 active torsions:
REMARK  status: ('A' for Active; 'I' for Inactive)
REMARK    1  A    between atoms: C_2  and  C_4
REMARK    2  A    between atoms: N_8  and  C_9
REMARK    3  A    between atoms: C_9  and  C_10
REMARK                            x       y       z     vdW  Elec       q    Type
REMARK                         _______ _______ _______ _____ _____    ______ ____
ROOT
ATOM      1  C   UNL     1      45.710   6.451  12.509  0.00  0.00    +0.000 A 
ATOM      2  C   UNL     1      45.333   5.346  13.233  0.00  0.00    +0.000 A 
ATOM      3  N   UNL     1      45.067   4.142  12.674  0.00  0.00    +0.000 NA
ATOM      4  C   UNL     1      45.168   4.050  11.340  0.00  0.00    +0.000 A 
ATOM      5  N   UNL     1      45.018   2.791  10.810  0.00  0.00    +0.000 N 
ATOM      6  N   UNL     1      45.469   5.086  10.544  0.00  0.00    +0.000 NA
ATOM      7  C   UNL     1      45.738   6.268  11.147  0.00  0.00    +0.000 A 
ATOM      8  H   UNL     1      44.580   2.180  11.493  0.00  0.00    +0.000 HD
ENDROOT
BRANCH   1  10
ATOM      9  N   UNL     1      47.138   7.820  13.924  0.00  0.00    +0.000 N 
ATOM     10  C   UNL     1      46.048   7.752  13.098  0.00  0.00    +0.000 C 
ATOM     11  O   UNL     1      45.404   8.755  12.824  0.00  0.00    +0.000 OA
ATOM     12  H   UNL     1      47.411   8.750  14.222  0.00  0.00    +0.000 HD
ATOM     13  H   UNL     1      47.846   7.101  13.968  0.00  0.00    +0.000 HD
ENDBRANCH   1  10
BRANCH   5  14
ATOM     14  C   UNL     1      44.410   2.706   9.489  0.00  0.00    +0.000 C 
BRANCH  14  15
ATOM     15  C   UNL     1      45.470   2.427   8.426  0.00  0.00    +0.000 A 
ATOM     16  N   UNL     1      45.769   3.423   7.557  0.00  0.00    +0.000 NA
ATOM     17  C   UNL     1      46.675   3.138   6.603  0.00  0.00    +0.000 A 
ATOM     18  C   UNL     1      47.310   1.924   6.498  0.00  0.00    +0.000 A 
ATOM     19  C   UNL     1      46.967   0.992   7.448  0.00  0.00    +0.000 A 
ATOM     20  N   UNL     1      46.062   1.213   8.420  0.00  0.00    +0.000 NA
ENDBRANCH  14  15
ENDBRANCH   5  14
TORSDOF 3
ENDMDL
MODEL 4
REMARK VINA RESULT:    -6.261      3.798      5.841
REMARK INTER + INTRA:          -7.681
REMARK INTER:                  -7.414
REMARK INTRA:                  -0.267
REMARK UNBOUND:                -0.322
REMARK  Name = 
REMARK  3 active torsions:
REMARK  status: ('A' for Active; 'I' for Inactive)
REMARK    1  A    between atoms: C_2  and  C_4
REMARK    2  A    between atoms: N_8  and  C_9
REMARK    3  A    between atoms: C_9  and  C_10
REMARK                            x       y       z     vdW  Elec       q    Type
REMARK                         _______ _______ _______ _____ _____    ______ ____
ROOT
ATOM      1  C   UNL     1      45.156   4.269  11.688  0.00  0.00    +0.000 A 
ATOM      2  C   UNL     1      45.342   5.541  12.172  0.00  0.00    +0.000 A 
ATOM      3  N   UNL     1      46.004   5.814  13.321  0.00  0.00    +0.000 NA
ATOM      4  C   UNL     1      46.482   4.771  14.015  0.00  0.00    +0.000 A 
ATOM      5  N   UNL     1      47.258   5.080  15.107  0.00  0.00    +0.000 N 
ATOM      6  N   UNL     1      46.298   3.493  13.656  0.00  0.00    +0.000 NA
ATOM      7  C   UNL     1      45.640   3.267  12.495  0.00  0.00    +0.000 A 
ATOM      8  H   UNL     1      47.113   6.050  15.369  0.00  0.00    +0.000 HD
ENDROOT
BRANCH   1  10
ATOM      9  N   UNL     1      43.779   4.951   9.803  0.00  0.00    +0.000 N 
ATOM     10  C   UNL     1      44.483   3.953  10.423  0.00  0.00    +0.000 C 
ATOM     11  O   UNL     1      44.584   2.845   9.914  0.00  0.00    +0.000 OA
ATOM     12  H   UNL     1      43.422   4.732   8.878  0.00  0.00    +0.000 HD
ATOM     13  H   UNL     1      43.884   5.929  10.032  0.00  0.00    +0.000 HD
ENDBRANCH   1  10
BRANCH   5  14
ATOM     14  C   UNL     1      47.190   4.162  16.236  0.00  0.00    +0.000 C 
BRANCH  14  15
ATOM     15  C   UNL     1      48.591   3.757  16.686  0.00  0.00    +0.000 A 
ATOM     16  N   UNL     1      48.919   2.444  16.621  0.00  0.00    +0.000 NA
ATOM     17  C   UNL     1      50.145   2.107  17.063  0.00  0.00    +0.000 A 
ATOM     18  C   UNL     1      51.059   3.018  17.536  0.00  0.00    +0.000 A 
ATOM     19  C   UNL     1      50.646   4.329  17.526  0.00  0.00    +0.000 A 
ATOM     20  N   UNL     1      49.431   4.727  17.106  0.00  0.00    +0.000 NA
ENDBRANCH  14  15
ENDBRANCH   5  14
TORSDOF 3
ENDMDL
MODEL 5
REMARK VINA RESULT:    -6.080      5.059      8.439
REMARK INTER + INTRA:          -7.469
REMARK INTER:                  -7.221
REMARK INTRA:                  -0.248
REMARK UNBOUND:                -0.322
REMARK  Name = 
REMARK  3 active torsions:
REMARK  status: ('A' for Active; 'I' for Inactive)
REMARK    1  A    between atoms: C_2  and  C_4
REMARK    2  A    between atoms: N_8  and  C_9
REMARK    3  A    between atoms: C_9  and  C_10
REMARK                            x       y       z     vdW  Elec       q    Type
REMARK                         _______ _______ _______ _____ _____    ______ ____
ROOT
ATOM      1  C   UNL     1      48.491   4.431  18.193  0.00  0.00    +0.000 A 
ATOM      2  C   UNL     1      47.531   3.476  17.966  0.00  0.00    +0.000 A 
ATOM      3  N   UNL     1      46.950   3.271  16.761  0.00  0.00    +0.000 NA
ATOM      4  C   UNL     1      47.337   4.065  15.752  0.00  0.00    +0.000 A 
ATOM      5  N   UNL     1      46.829   3.755  14.512  0.00  0.00    +0.000 N 
ATOM      6  N   UNL     1      48.221   5.063  15.888  0.00  0.00    +0.000 NA
ATOM      7  C   UNL     1      48.784   5.225  17.109  0.00  0.00    +0.000 A 
ATOM      8  H   UNL     1      46.025   3.143  14.614  0.00  0.00    +0.000 HD
ENDROOT
BRANCH   1  10
ATOM      9  N   UNL     1      48.661   4.005  20.581  0.00  0.00    +0.000 N 
ATOM     10  C   UNL     1      49.168   4.640  19.478  0.00  0.00    +0.000 C 
ATOM     11  O   UNL     1      50.179   5.323  19.556  0.00  0.00    +0.000 OA
ATOM     12  H   UNL     1      49.215   4.078  21.428  0.00  0.00    +0.000 HD
ATOM     13  H   UNL     1      48.010   3.235  20.528  0.00  0.00    +0.000 HD
ENDBRANCH   1  10
BRANCH   5  14
ATOM     14  C   UNL     1      46.592   4.871  13.606  0.00  0.00    +0.000 C 
BRANCH  14  15
ATOM     15  C   UNL     1      45.285   4.677  12.844  0.00  0.00    +0.000 A 
ATOM     16  N   UNL     1      44.678   3.468  12.931  0.00  0.00    +0.000 NA
ATOM     17  C   UNL     1      43.548   3.308  12.216  0.00  0.00    +0.000 A 
ATOM     18  C   UNL     1      42.989   4.301  11.449  0.00  0.00    +0.000 A 
ATOM     19  C   UNL     1      43.657   5.503  11.456  0.00  0.00    +0.000 A 
ATOM     20  N   UNL     1      44.795   5.721  12.141  0.00  0.00    +0.000 NA
ENDBRANCH  14  15
ENDBRANCH   5  14
TORSDOF 3
ENDMDL
MODEL 6
REMARK VINA RESULT:    -5.552      3.489      4.786
REMARK INTER + INTRA:          -6.848
REMARK INTER:                  -6.501
REMARK INTRA:                  -0.347
REMARK UNBOUND:                -0.322
REMARK  Name = 
REMARK  3 active torsions:
REMARK  status: ('A' for Active; 'I' for Inactive)
REMARK    1  A    between atoms: C_2  and  C_4
REMARK    2  A    between atoms: N_8  and  C_9
REMARK    3  A    between atoms: C_9  and  C_10
REMARK                            x       y       z     vdW  Elec       q    Type
REMARK                         _______ _______ _______ _____ _____    ______ ____
ROOT
ATOM      1  C   UNL     1      44.161   4.177  11.549  0.00  0.00    +0.000 A 
ATOM      2  C   UNL     1      43.967   4.626  12.832  0.00  0.00    +0.000 A 
ATOM      3  N   UNL     1      44.261   5.884  13.237  0.00  0.00    +0.000 NA
ATOM      4  C   UNL     1      44.783   6.715  12.323  0.00  0.00    +0.000 A 
ATOM      5  N   UNL     1      44.953   8.019  12.723  0.00  0.00    +0.000 N 
ATOM      6  N   UNL     1      45.064   6.352  11.064  0.00  0.00    +0.000 NA
ATOM      7  C   UNL     1      44.744   5.088  10.700  0.00  0.00    +0.000 A 
ATOM      8  H   UNL     1      44.913   8.077  13.736  0.00  0.00    +0.000 HD
ENDROOT
BRANCH   1  10
ATOM      9  N   UNL     1      44.511   2.316  10.024  0.00  0.00    +0.000 N 
ATOM     10  C   UNL     1      43.806   2.834  11.077  0.00  0.00    +0.000 C 
ATOM     11  O   UNL     1      42.938   2.178  11.635  0.00  0.00    +0.000 OA
ATOM     12  H   UNL     1      44.319   1.346   9.796  0.00  0.00    +0.000 HD
ATOM     13  H   UNL     1      45.394   2.692   9.708  0.00  0.00    +0.000 HD
ENDBRANCH   1  10
BRANCH   5  14
ATOM     14  C   UNL     1      46.085   8.735  12.150  0.00  0.00    +0.000 C 
BRANCH  14  15
ATOM     15  C   UNL     1      47.390   8.291  12.805  0.00  0.00    +0.000 A 
ATOM     16  N   UNL     1      47.542   8.529  14.131  0.00  0.00    +0.000 NA
ATOM     17  C   UNL     1      48.718   8.167  14.677  0.00  0.00    +0.000 A 
ATOM     18  C   UNL     1      49.727   7.558  13.971  0.00  0.00    +0.000 A 
ATOM     19  C   UNL     1      49.463   7.325  12.642  0.00  0.00    +0.000 A 
ATOM     20  N   UNL     1      48.312   7.672  12.037  0.00  0.00    +0.000 NA
ENDBRANCH  14  15
ENDBRANCH   5  14
TORSDOF 3
ENDMDL
MODEL 7
REMARK VINA RESULT:    -5.501      3.458      6.644
REMARK INTER + INTRA:          -6.788
REMARK INTER:                  -6.507
REMARK INTRA:                  -0.281
REMARK UNBOUND:                -0.322
REMARK  Name = 
REMARK  3 active torsions:
REMARK  status: ('A' for Active; 'I' for Inactive)
REMARK    1  A    between atoms: C_2  and  C_4
REMARK    2  A    between atoms: N_8  and  C_9
REMARK    3  A    between atoms: C_9  and  C_10
REMARK                            x       y       z     vdW  Elec       q    Type
REMARK                         _______ _______ _______ _____ _____    ______ ____
ROOT
ATOM      1  C   UNL     1      48.211   6.033  14.911  0.00  0.00    +0.000 A 
ATOM      2  C   UNL     1      47.674   4.921  15.512  0.00  0.00    +0.000 A 
ATOM      3  N   UNL     1      46.722   4.148  14.940  0.00  0.00    +0.000 NA
ATOM      4  C   UNL     1      46.283   4.514  13.727  0.00  0.00    +0.000 A 
ATOM      5  N   UNL     1      45.411   3.645  13.114  0.00  0.00    +0.000 N 
ATOM      6  N   UNL     1      46.700   5.615  13.087  0.00  0.00    +0.000 NA
ATOM      7  C   UNL     1      47.661   6.353  13.692  0.00  0.00    +0.000 A 
ATOM      8  H   UNL     1      45.029   3.001  13.800  0.00  0.00    +0.000 HD
ENDROOT
BRANCH   1  10
ATOM      9  N   UNL     1      50.066   6.299  16.460  0.00  0.00    +0.000 N 
ATOM     10  C   UNL     1      49.276   6.858  15.492  0.00  0.00    +0.000 C 
ATOM     11  O   UNL     1      49.482   7.996  15.092  0.00  0.00    +0.000 OA
ATOM     12  H   UNL     1      50.861   6.854  16.759  0.00  0.00    +0.000 HD
ATOM     13  H   UNL     1      50.114   5.304  16.631  0.00  0.00    +0.000 HD
ENDBRANCH   1  10
BRANCH   5  14
ATOM     14  C   UNL     1      44.398   4.237  12.251  0.00  0.00    +0.000 C 
BRANCH  14  15
ATOM     15  C   UNL     1      44.653   3.870  10.792  0.00  0.00    +0.000 A 
ATOM     16  N   UNL     1      45.246   4.799  10.003  0.00  0.00    +0.000 NA
ATOM     17  C   UNL     1      45.421   4.467   8.710  0.00  0.00    +0.000 A 
ATOM     18  C   UNL     1      45.060   3.251   8.183  0.00  0.00    +0.000 A 
ATOM     19  C   UNL     1      44.501   2.363   9.071  0.00  0.00    +0.000 A 
ATOM     20  N   UNL     1      44.291   2.639  10.371  0.00  0.00    +0.000 NA
ENDBRANCH  14  15
ENDBRANCH   5  14
TORSDOF 3
ENDMDL
MODEL 8
REMARK VINA RESULT:    -5.456      3.567      5.223
REMARK INTER + INTRA:          -6.734
REMARK INTER:                  -6.533
REMARK INTRA:                  -0.201
REMARK UNBOUND:                -0.322
REMARK  Name = 
REMARK  3 active torsions:
REMARK  status: ('A' for Active; 'I' for Inactive)
REMARK    1  A    between atoms: C_2  and  C_4
REMARK    2  A    between atoms: N_8  and  C_9
REMARK    3  A    between atoms: C_9  and  C_10
REMARK                            x       y       z     vdW  Elec       q    Type
REMARK                         _______ _______ _______ _____ _____    ______ ____
ROOT
ATOM      1  C   UNL     1      45.009   4.164  11.252  0.00  0.00    +0.000 A 
ATOM      2  C   UNL     1      45.309   3.433  12.374  0.00  0.00    +0.000 A 
ATOM      3  N   UNL     1      46.028   3.918  13.413  0.00  0.00    +0.000 NA
ATOM      4  C   UNL     1      46.475   5.179  13.313  0.00  0.00    +0.000 A 
ATOM      5  N   UNL     1      47.092   5.690  14.430  0.00  0.00    +0.000 N 
ATOM      6  N   UNL     1      46.286   5.950  12.233  0.00  0.00    +0.000 NA
ATOM      7  C   UNL     1      45.552   5.427  11.223  0.00  0.00    +0.000 A 
ATOM      8  H   UNL     1      47.353   4.934  15.055  0.00  0.00    +0.000 HD
ENDROOT
BRANCH   1  10
ATOM      9  N   UNL     1      43.986   4.514   9.074  0.00  0.00    +0.000 N 
ATOM     10  C   UNL     1      44.192   3.675  10.136  0.00  0.00    +0.000 C 
ATOM     11  O   UNL     1      43.745   2.536  10.133  0.00  0.00    +0.000 OA
ATOM     12  H   UNL     1      43.514   4.107   8.272  0.00  0.00    +0.000 HD
ATOM     13  H   UNL     1      44.539   5.342   8.905  0.00  0.00    +0.000 HD
ENDBRANCH   1  10
BRANCH   5  14
ATOM     14  C   UNL     1      48.166   6.647  14.202  0.00  0.00    +0.000 C 
BRANCH  14  15
ATOM     15  C   UNL     1      48.912   6.937  15.501  0.00  0.00    +0.000 A 
ATOM     16  N   UNL     1      48.640   8.103  16.137  0.00  0.00    +0.000 NA
ATOM     17  C   UNL     1      49.342   8.356  17.258  0.00  0.00    +0.000 A 
ATOM     18  C   UNL     1      50.273   7.492  17.781  0.00  0.00    +0.000 A 
ATOM     19  C   UNL     1      50.451   6.320  17.085  0.00  0.00    +0.000 A 
ATOM     20  N   UNL     1      49.787   6.014  15.955  0.00  0.00    +0.000 NA
ENDBRANCH  14  15
ENDBRANCH   5  14
TORSDOF 3
ENDMDL
MODEL 9
REMARK VINA RESULT:    -4.867      4.334      6.685
REMARK INTER + INTRA:          -6.043
REMARK INTER:                  -5.750
REMARK INTRA:                  -0.293
REMARK UNBOUND:                -0.322
REMARK  Name = 
REMARK  3 active torsions:
REMARK  status: ('A' for Active; 'I' for Inactive)
REMARK    1  A    between atoms: C_2  and  C_4
REMARK    2  A    between atoms: N_8  and  C_9
REMARK    3  A    between atoms: C_9  and  C_10
REMARK                            x       y       z     vdW  Elec       q    Type
REMARK                         _______ _______ _______ _____ _____    ______ ____
ROOT
ATOM      1  C   UNL     1      45.999   4.733  12.549  0.00  0.00    +0.000 A 
ATOM      2  C   UNL     1      46.352   5.983  12.105  0.00  0.00    +0.000 A 
ATOM      3  N   UNL     1      47.260   6.770  12.730  0.00  0.00    +0.000 NA
ATOM      4  C   UNL     1      47.820   6.288  13.850  0.00  0.00    +0.000 A 
ATOM      5  N   UNL     1      48.828   7.048  14.394  0.00  0.00    +0.000 N 
ATOM      6  N   UNL     1      47.495   5.107  14.394  0.00  0.00    +0.000 NA
ATOM      7  C   UNL     1      46.591   4.350  13.729  0.00  0.00    +0.000 A 
ATOM      8  H   UNL     1      48.795   7.988  14.012  0.00  0.00    +0.000 HD
ENDROOT
BRANCH   1  10
ATOM      9  N   UNL     1      44.653   2.708  12.511  0.00  0.00    +0.000 N 
ATOM     10  C   UNL     1      45.054   3.845  11.862  0.00  0.00    +0.000 C 
ATOM     11  O   UNL     1      44.603   4.133  10.762  0.00  0.00    +0.000 OA
ATOM     12  H   UNL     1      43.916   2.177  12.059  0.00  0.00    +0.000 HD
ATOM     13  H   UNL     1      44.779   2.562  13.503  0.00  0.00    +0.000 HD
ENDBRANCH   1  10
BRANCH   5  14
ATOM     14  C   UNL     1      48.955   7.020  15.845  0.00  0.00    +0.000 C 
BRANCH  14  15
ATOM     15  C   UNL     1      50.322   6.478  16.254  0.00  0.00    +0.000 A 
ATOM     16  N   UNL     1      50.354   5.329  16.975  0.00  0.00    +0.000 NA
ATOM     17  C   UNL     1      51.568   4.894  17.360  0.00  0.00    +0.000 A 
ATOM     18  C   UNL     1      52.741   5.532  17.038  0.00  0.00    +0.000 A 
ATOM     19  C   UNL     1      52.607   6.667  16.273  0.00  0.00    +0.000 A 
ATOM     20  N   UNL     1      51.421   7.158  15.865  0.00  0.00    +0.000 NA
ENDBRANCH  14  15
ENDBRANCH   5  14
TORSDOF 3
ENDMDL
