MODEL 1
REMARK VINA RESULT:    -7.717      0.000      0.000
REMARK INTER + INTRA:         -11.209
REMARK INTER:                 -10.650
REMARK INTRA:                  -0.559
REMARK UNBOUND:                -0.559
REMARK  Name = 
REMARK  7 active torsions:
REMARK  status: ('A' for Active; 'I' for Inactive)
REMARK    1  A    between atoms: N_1  and  C_2
REMARK    2  A    between atoms: C_2  and  C_3
REMARK    3  A    between atoms: C_3  and  O_4
REMARK    4  A    between atoms: O_4  and  C_5
REMARK    5  A    between atoms: C_8  and  C_9
REMARK    6  A    between atoms: C_9  and  C_10
REMARK    7  A    between atoms: C_16  and  C_17
REMARK                            x       y       z     vdW  Elec       q    Type
REMARK                         _______ _______ _______ _____ _____    ______ ____
ROOT
ATOM      1  C   UNL     1      45.529   4.618  12.977  0.00  0.00    +0.000 A 
ATOM      2  C   UNL     1      46.577   3.933  13.565  0.00  0.00    +0.000 A 
ATOM      3  O   UNL     1      47.563   4.779  13.954  0.00  0.00    +0.000 OA
ATOM      4  C   UNL     1      47.172   6.039  13.619  0.00  0.00    +0.000 A 
ATOM      5  N   UNL     1      47.925   7.131  13.841  0.00  0.00    +0.000 NA
ATOM      6  C   UNL     1      47.338   8.275  13.401  0.00  0.00    +0.000 A 
ATOM      7  C   UNL     1      46.093   8.377  12.782  0.00  0.00    +0.000 A 
ATOM      8  C   UNL     1      45.355   7.206  12.580  0.00  0.00    +0.000 A 
ATOM      9  C   UNL     1      45.918   5.992  13.013  0.00  0.00    +0.000 A 
ENDROOT
BRANCH   7  10
ATOM     10  C   UNL     1      45.622   9.717  12.359  0.00  0.00    +0.000 C 
ATOM     11  N   UNL     1      44.305  10.039  12.541  0.00  0.00    +0.000 N 
ATOM     12  O   UNL     1      46.388  10.527  11.853  0.00  0.00    +0.000 OA
ATOM     13  H   UNL     1      43.602   9.448  12.954  0.00  0.00    +0.000 HD
ATOM     14  H   UNL     1      44.019  10.963  12.238  0.00  0.00    +0.000 HD
ENDBRANCH   7  10
BRANCH   1  15
ATOM     15  C   UNL     1      44.297   4.043  12.369  0.00  0.00    +0.000 C 
BRANCH  15  19
ATOM     16  C   UNL     1      45.193   3.343   8.188  0.00  0.00    +0.000 A 
ATOM     17  C   UNL     1      45.423   4.595   8.756  0.00  0.00    +0.000 A 
ATOM     18  C   UNL     1      45.122   4.828  10.104  0.00  0.00    +0.000 A 
ATOM     19  C   UNL     1      44.586   3.811  10.907  0.00  0.00    +0.000 A 
ATOM     20  C   UNL     1      44.355   2.556  10.327  0.00  0.00    +0.000 A 
ATOM     21  C   UNL     1      44.659   2.327   8.981  0.00  0.00    +0.000 A 
BRANCH  16  22
ATOM     22  O   UNL     1      45.450   2.989   6.891  0.00  0.00    +0.000 OA
BRANCH  22  23
ATOM     23  C   UNL     1      46.737   3.342   6.376  0.00  0.00    +0.000 C 
BRANCH  23  24
ATOM     24  C   UNL     1      47.756   2.287   6.820  0.00  0.00    +0.000 C 
BRANCH  24  25
ATOM     25  N   UNL     1      48.561   1.803   5.697  0.00  0.00    +0.000 NA
ATOM     26  H   UNL     1      49.333   2.449   5.536  0.00  0.00    +0.000 HD
ATOM     27  H   UNL     1      48.002   1.813   4.844  0.00  0.00    +0.000 HD
ENDBRANCH  24  25
ENDBRANCH  23  24
ENDBRANCH  22  23
ENDBRANCH  16  22
ENDBRANCH  15  19
ENDBRANCH   1  15
TORSDOF 7
ENDMDL
MODEL 2
REMARK VINA RESULT:    -7.532      1.565      3.411
REMARK INTER + INTRA:         -10.953
REMARK INTER:                 -10.166
REMARK INTRA:                  -0.787
REMARK UNBOUND:                -0.559
REMARK  Name = 
REMARK  7 active torsions:
REMARK  status: ('A' for Active; 'I' for Inactive)
REMARK    1  A    between atoms: N_1  and  C_2
REMARK    2  A    between atoms: C_2  and  C_3
REMARK    3  A    between atoms: C_3  and  O_4
REMARK    4  A    between atoms: O_4  and  C_5
REMARK    5  A    between atoms: C_8  and  C_9
REMARK    6  A    between atoms: C_9  and  C_10
REMARK    7  A    between atoms: C_16  and  C_17
REMARK                            x       y       z     vdW  Elec       q    Type
REMARK                         _______ _______ _______ _____ _____    ______ ____
ROOT
ATOM      1  C   UNL     1      44.551   6.462  11.549  0.00  0.00    +0.000 A 
ATOM      2  C   UNL     1      44.791   7.788  11.234  0.00  0.00    +0.000 A 
ATOM      3  O   UNL     1      45.832   8.285  11.947  0.00  0.00    +0.000 OA
ATOM      4  C   UNL     1      46.287   7.284  12.749  0.00  0.00    +0.000 A 
ATOM      5  N   UNL     1      47.307   7.434  13.614  0.00  0.00    +0.000 NA
ATOM      6  C   UNL     1      47.568   6.305  14.324  0.00  0.00    +0.000 A 
ATOM      7  C   UNL     1      46.894   5.090  14.215  0.00  0.00    +0.000 A 
ATOM      8  C   UNL     1      45.843   4.993  13.297  0.00  0.00    +0.000 A 
ATOM      9  C   UNL     1      45.527   6.135  12.538  0.00  0.00    +0.000 A 
ENDROOT
BRANCH   7  10
ATOM     10  C   UNL     1      47.317   3.968  15.086  0.00  0.00    +0.000 C 
ATOM     11  N   UNL     1      47.370   4.170  16.438  0.00  0.00    +0.000 N 
ATOM     12  O   UNL     1      47.618   2.878  14.616  0.00  0.00    +0.000 OA
ATOM     13  H   UNL     1      47.135   5.022  16.920  0.00  0.00    +0.000 HD
ATOM     14  H   UNL     1      47.666   3.381  17.002  0.00  0.00    +0.000 HD
ENDBRANCH   7  10
BRANCH   1  15
ATOM     15  C   UNL     1      43.463   5.589  11.028  0.00  0.00    +0.000 C 
BRANCH  15  19
ATOM     16  C   UNL     1      45.386   2.459   8.730  0.00  0.00    +0.000 A 
ATOM     17  C   UNL     1      45.623   3.800   8.429  0.00  0.00    +0.000 A 
ATOM     18  C   UNL     1      44.993   4.813   9.162  0.00  0.00    +0.000 A 
ATOM     19  C   UNL     1      44.114   4.502  10.209  0.00  0.00    +0.000 A 
ATOM     20  C   UNL     1      43.878   3.152  10.503  0.00  0.00    +0.000 A 
ATOM     21  C   UNL     1      44.511   2.144   9.770  0.00  0.00    +0.000 A 
BRANCH  16  22
ATOM     22  O   UNL     1      45.943   1.382   8.095  0.00  0.00    +0.000 OA
BRANCH  22  23
ATOM     23  C   UNL     1      47.266   1.558   7.582  0.00  0.00    +0.000 C 
BRANCH  23  24
ATOM     24  C   UNL     1      47.182   1.874   6.085  0.00  0.00    +0.000 C 
BRANCH  24  25
ATOM     25  N   UNL     1      48.505   1.908   5.461  0.00  0.00    +0.000 NA
ATOM     26  H   UNL     1      49.125   1.267   5.956  0.00  0.00    +0.000 HD
ATOM     27  H   UNL     1      48.913   2.836   5.571  0.00  0.00    +0.000 HD
ENDBRANCH  24  25
ENDBRANCH  23  24
ENDBRANCH  22  23
ENDBRANCH  16  22
ENDBRANCH  15  19
ENDBRANCH   1  15
TORSDOF 7
ENDMDL
MODEL 3
REMARK VINA RESULT:    -7.096      2.152      7.144
REMARK INTER + INTRA:         -10.351
REMARK INTER:                  -9.480
REMARK INTRA:                  -0.871
REMARK UNBOUND:                -0.559
REMARK  Name = 
REMARK  7 active torsions:
REMARK  status: ('A' for Active; 'I' for Inactive)
REMARK    1  A    between atoms: N_1  and  C_2
REMARK    2  A    between atoms: C_2  and  C_3
REMARK    3  A    between atoms: C_3  and  O_4
REMARK    4  A    between atoms: O_4  and  C_5
REMARK    5  A    between atoms: C_8  and  C_9
REMARK    6  A    between atoms: C_9  and  C_10
REMARK    7  A    between atoms: C_16  and  C_17
REMARK                            x       y       z     vdW  Elec       q    Type
REMARK                         _______ _______ _______ _____ _____    ______ ____
ROOT
ATOM      1  C   UNL     1      44.169   4.886  10.944  0.00  0.00    +0.000 A 
ATOM      2  C   UNL     1      43.279   4.057  11.605  0.00  0.00    +0.000 A 
ATOM      3  O   UNL     1      43.258   2.818  11.053  0.00  0.00    +0.000 OA
ATOM      4  C   UNL     1      44.135   2.822  10.013  0.00  0.00    +0.000 A 
ATOM      5  N   UNL     1      44.352   1.755   9.223  0.00  0.00    +0.000 NA
ATOM      6  C   UNL     1      45.253   2.001   8.237  0.00  0.00    +0.000 A 
ATOM      7  C   UNL     1      45.921   3.205   8.014  0.00  0.00    +0.000 A 
ATOM      8  C   UNL     1      45.656   4.279   8.870  0.00  0.00    +0.000 A 
ATOM      9  C   UNL     1      44.726   4.079   9.906  0.00  0.00    +0.000 A 
ENDROOT
BRANCH   7  10
ATOM     10  C   UNL     1      46.865   3.288   6.875  0.00  0.00    +0.000 C 
ATOM     11  N   UNL     1      47.954   2.460   6.862  0.00  0.00    +0.000 N 
ATOM     12  O   UNL     1      46.686   4.080   5.958  0.00  0.00    +0.000 OA
ATOM     13  H   UNL     1      48.183   1.772   7.561  0.00  0.00    +0.000 HD
ATOM     14  H   UNL     1      48.579   2.546   6.069  0.00  0.00    +0.000 HD
ENDBRANCH   7  10
BRANCH   1  15
ATOM     15  C   UNL     1      44.432   6.329  11.209  0.00  0.00    +0.000 C 
BRANCH  15  19
ATOM     16  C   UNL     1      48.175   6.629  13.370  0.00  0.00    +0.000 A 
ATOM     17  C   UNL     1      47.983   7.351  12.193  0.00  0.00    +0.000 A 
ATOM     18  C   UNL     1      46.779   7.246  11.486  0.00  0.00    +0.000 A 
ATOM     19  C   UNL     1      45.746   6.416  11.944  0.00  0.00    +0.000 A 
ATOM     20  C   UNL     1      45.948   5.691  13.127  0.00  0.00    +0.000 A 
ATOM     21  C   UNL     1      47.152   5.800  13.831  0.00  0.00    +0.000 A 
BRANCH  16  22
ATOM     22  O   UNL     1      49.298   6.651  14.153  0.00  0.00    +0.000 OA
BRANCH  22  23
ATOM     23  C   UNL     1      49.118   7.042  15.516  0.00  0.00    +0.000 C 
BRANCH  23  24
ATOM     24  C   UNL     1      49.057   8.571  15.591  0.00  0.00    +0.000 C 
BRANCH  24  25
ATOM     25  N   UNL     1      47.686   9.053  15.761  0.00  0.00    +0.000 NA
ATOM     26  H   UNL     1      47.064   8.254  15.889  0.00  0.00    +0.000 HD
ATOM     27  H   UNL     1      47.376   9.517  14.908  0.00  0.00    +0.000 HD
ENDBRANCH  24  25
ENDBRANCH  23  24
ENDBRANCH  22  23
ENDBRANCH  16  22
ENDBRANCH  15  19
ENDBRANCH   1  15
TORSDOF 7
ENDMDL
MODEL 4
REMARK VINA RESULT:    -6.463      3.179      7.185
REMARK INTER + INTRA:          -9.478
REMARK INTER:                  -9.080
REMARK INTRA:                  -0.398
REMARK UNBOUND:                -0.559
REMARK  Name = 
REMARK  7 active torsions:
REMARK  status: ('A' for Active; 'I' for Inactive)
REMARK    1  A    between atoms: N_1  and  C_2
REMARK    2  A    between atoms: C_2  and  C_3
REMARK    3  A    between atoms: C_3  and  O_4
REMARK    4  A    between atoms: O_4  and  C_5
REMARK    5  A    between atoms: C_8  and  C_9
REMARK    6  A    between atoms: C_9  and  C_10
REMARK    7  A    between atoms: C_16  and  C_17
REMARK                            x       y       z     vdW  Elec       q    Type
REMARK                         _______ _______ _______ _____ _____    ______ ____
ROOT
ATOM      1  C   UNL     1      46.523   7.127  12.316  0.00  0.00    +0.000 A 
ATOM      2  C   UNL     1      45.923   8.373  12.355  0.00  0.00    +0.000 A 
ATOM      3  O   UNL     1      44.628   8.310  11.958  0.00  0.00    +0.000 OA
ATOM      4  C   UNL     1      44.363   7.012  11.646  0.00  0.00    +0.000 A 
ATOM      5  N   UNL     1      43.170   6.589  11.191  0.00  0.00    +0.000 NA
ATOM      6  C   UNL     1      43.148   5.256  10.925  0.00  0.00    +0.000 A 
ATOM      7  C   UNL     1      44.210   4.367  11.087  0.00  0.00    +0.000 A 
ATOM      8  C   UNL     1      45.426   4.866  11.565  0.00  0.00    +0.000 A 
ATOM      9  C   UNL     1      45.504   6.240  11.853  0.00  0.00    +0.000 A 
ENDROOT
BRANCH   7  10
ATOM     10  C   UNL     1      43.999   2.944  10.731  0.00  0.00    +0.000 C 
ATOM     11  N   UNL     1      43.455   2.106  11.666  0.00  0.00    +0.000 N 
ATOM     12  O   UNL     1      44.304   2.514   9.625  0.00  0.00    +0.000 OA
ATOM     13  H   UNL     1      43.165   2.364  12.595  0.00  0.00    +0.000 HD
ATOM     14  H   UNL     1      43.328   1.140  11.388  0.00  0.00    +0.000 HD
ENDBRANCH   7  10
BRANCH   1  15
ATOM     15  C   UNL     1      47.944   6.795  12.617  0.00  0.00    +0.000 C 
BRANCH  15  19
ATOM     16  C   UNL     1      48.101   4.971  16.545  0.00  0.00    +0.000 A 
ATOM     17  C   UNL     1      47.308   4.413  15.541  0.00  0.00    +0.000 A 
ATOM     18  C   UNL     1      47.246   5.008  14.276  0.00  0.00    +0.000 A 
ATOM     19  C   UNL     1      47.976   6.171  13.990  0.00  0.00    +0.000 A 
ATOM     20  C   UNL     1      48.767   6.727  15.005  0.00  0.00    +0.000 A 
ATOM     21  C   UNL     1      48.828   6.129  16.268  0.00  0.00    +0.000 A 
BRANCH  16  22
ATOM     22  O   UNL     1      48.251   4.483  17.815  0.00  0.00    +0.000 OA
BRANCH  22  23
ATOM     23  C   UNL     1      48.393   3.065  17.941  0.00  0.00    +0.000 C 
BRANCH  23  24
ATOM     24  C   UNL     1      49.764   2.652  17.395  0.00  0.00    +0.000 C 
BRANCH  24  25
ATOM     25  N   UNL     1      49.643   1.760  16.241  0.00  0.00    +0.000 NA
ATOM     26  H   UNL     1      49.694   0.792  16.559  0.00  0.00    +0.000 HD
ATOM     27  H   UNL     1      50.440   1.894  15.618  0.00  0.00    +0.000 HD
ENDBRANCH  24  25
ENDBRANCH  23  24
ENDBRANCH  22  23
ENDBRANCH  16  22
ENDBRANCH  15  19
ENDBRANCH   1  15
TORSDOF 7
ENDMDL
MODEL 5
REMARK VINA RESULT:    -6.127      4.121      6.538
REMARK INTER + INTRA:          -9.014
REMARK INTER:                  -7.969
REMARK INTRA:                  -1.046
REMARK UNBOUND:                -0.559
REMARK  Name = 
REMARK  7 active torsions:
REMARK  status: ('A' for Active; 'I' for Inactive)
REMARK    1  A    between atoms: N_1  and  C_2
REMARK    2  A    between atoms: C_2  and  C_3
REMARK    3  A    between atoms: C_3  and  O_4
REMARK    4  A    between atoms: O_4  and  C_5
REMARK    5  A    between atoms: C_8  and  C_9
REMARK    6  A    between atoms: C_9  and  C_10
REMARK    7  A    between atoms: C_16  and  C_17
REMARK                            x       y       z     vdW  Elec       q    Type
REMARK                         _______ _______ _______ _____ _____    ______ ____
ROOT
ATOM      1  C   UNL     1      49.097   7.935  15.534  0.00  0.00    +0.000 A 
ATOM      2  C   UNL     1      49.162   9.018  16.392  0.00  0.00    +0.000 A 
ATOM      3  O   UNL     1      48.818   8.667  17.656  0.00  0.00    +0.000 OA
ATOM      4  C   UNL     1      48.516   7.340  17.641  0.00  0.00    +0.000 A 
ATOM      5  N   UNL     1      48.111   6.660  18.728  0.00  0.00    +0.000 NA
ATOM      6  C   UNL     1      47.844   5.354  18.466  0.00  0.00    +0.000 A 
ATOM      7  C   UNL     1      47.961   4.722  17.228  0.00  0.00    +0.000 A 
ATOM      8  C   UNL     1      48.390   5.481  16.134  0.00  0.00    +0.000 A 
ATOM      9  C   UNL     1      48.675   6.841  16.349  0.00  0.00    +0.000 A 
ENDROOT
BRANCH   7  10
ATOM     10  C   UNL     1      47.613   3.285  17.134  0.00  0.00    +0.000 C 
ATOM     11  N   UNL     1      48.552   2.411  16.658  0.00  0.00    +0.000 N 
ATOM     12  O   UNL     1      46.509   2.876  17.470  0.00  0.00    +0.000 OA
ATOM     13  H   UNL     1      49.486   2.645  16.366  0.00  0.00    +0.000 HD
ATOM     14  H   UNL     1      48.278   1.436  16.606  0.00  0.00    +0.000 HD
ENDBRANCH   7  10
BRANCH   1  15
ATOM     15  C   UNL     1      49.338   7.927  14.064  0.00  0.00    +0.000 C 
BRANCH  15  19
ATOM     16  C   UNL     1      45.542   7.285  12.076  0.00  0.00    +0.000 A 
ATOM     17  C   UNL     1      45.710   8.369  12.937  0.00  0.00    +0.000 A 
ATOM     18  C   UNL     1      46.932   8.571  13.591  0.00  0.00    +0.000 A 
ATOM     19  C   UNL     1      48.007   7.693  13.393  0.00  0.00    +0.000 A 
ATOM     20  C   UNL     1      47.828   6.604  12.529  0.00  0.00    +0.000 A 
ATOM     21  C   UNL     1      46.607   6.407  11.877  0.00  0.00    +0.000 A 
BRANCH  16  22
ATOM     22  O   UNL     1      44.404   6.984  11.376  0.00  0.00    +0.000 OA
BRANCH  22  23
ATOM     23  C   UNL     1      44.049   5.601  11.301  0.00  0.00    +0.000 C 
BRANCH  23  24
ATOM     24  C   UNL     1      42.649   5.414  11.894  0.00  0.00    +0.000 C 
BRANCH  24  25
ATOM     25  N   UNL     1      42.683   5.324  13.354  0.00  0.00    +0.000 NA
ATOM     26  H   UNL     1      42.302   4.423  13.643  0.00  0.00    +0.000 HD
ATOM     27  H   UNL     1      42.069   6.031  13.756  0.00  0.00    +0.000 HD
ENDBRANCH  24  25
ENDBRANCH  23  24
ENDBRANCH  22  23
ENDBRANCH  16  22
ENDBRANCH  15  19
ENDBRANCH   1  15
TORSDOF 7
ENDMDL
MODEL 6
REMARK VINA RESULT:    -6.118      2.289      7.467
REMARK INTER + INTRA:          -9.002
REMARK INTER:                  -8.674
REMARK INTRA:                  -0.328
REMARK UNBOUND:                -0.559
REMARK  Name = 
REMARK  7 active torsions:
REMARK  status: ('A' for Active; 'I' for Inactive)
REMARK    1  A    between atoms: N_1  and  C_2
REMARK    2  A    between atoms: C_2  and  C_3
REMARK    3  A    between atoms: C_3  and  O_4
REMARK    4  A    between atoms: O_4  and  C_5
REMARK    5  A    between atoms: C_8  and  C_9
REMARK    6  A    between atoms: C_9  and  C_10
REMARK    7  A    between atoms: C_16  and  C_17
REMARK                            x       y       z     vdW  Elec       q    Type
REMARK                         _______ _______ _______ _____ _____    ______ ____
ROOT
ATOM      1  C   UNL     1      44.425   3.902  11.283  0.00  0.00    +0.000 A 
ATOM      2  C   UNL     1      43.555   4.929  10.961  0.00  0.00    +0.000 A 
ATOM      3  O   UNL     1      43.445   5.079   9.618  0.00  0.00    +0.000 OA
ATOM      4  C   UNL     1      44.252   4.149   9.038  0.00  0.00    +0.000 A 
ATOM      5  N   UNL     1      44.405   4.027   7.707  0.00  0.00    +0.000 NA
ATOM      6  C   UNL     1      45.279   3.045   7.364  0.00  0.00    +0.000 A 
ATOM      7  C   UNL     1      45.973   2.215   8.244  0.00  0.00    +0.000 A 
ATOM      8  C   UNL     1      45.772   2.388   9.617  0.00  0.00    +0.000 A 
ATOM      9  C   UNL     1      44.880   3.395  10.028  0.00  0.00    +0.000 A 
ENDROOT
BRANCH   7  10
ATOM     10  C   UNL     1      46.897   1.204   7.679  0.00  0.00    +0.000 C 
ATOM     11  N   UNL     1      47.965   1.629   6.938  0.00  0.00    +0.000 N 
ATOM     12  O   UNL     1      46.716   0.006   7.864  0.00  0.00    +0.000 OA
ATOM     13  H   UNL     1      48.203   2.587   6.738  0.00  0.00    +0.000 HD
ATOM     14  H   UNL     1      48.574   0.909   6.566  0.00  0.00    +0.000 HD
ENDBRANCH   7  10
BRANCH   1  15
ATOM     15  C   UNL     1      44.854   3.470  12.643  0.00  0.00    +0.000 C 
BRANCH  15  19
ATOM     16  C   UNL     1      47.892   6.253  13.987  0.00  0.00    +0.000 A 
ATOM     17  C   UNL     1      47.301   6.408  12.733  0.00  0.00    +0.000 A 
ATOM     18  C   UNL     1      46.328   5.503  12.292  0.00  0.00    +0.000 A 
ATOM     19  C   UNL     1      45.929   4.426  13.096  0.00  0.00    +0.000 A 
ATOM     20  C   UNL     1      46.531   4.275  14.353  0.00  0.00    +0.000 A 
ATOM     21  C   UNL     1      47.501   5.182  14.791  0.00  0.00    +0.000 A 
BRANCH  16  22
ATOM     22  O   UNL     1      48.845   7.070  14.533  0.00  0.00    +0.000 OA
BRANCH  22  23
ATOM     23  C   UNL     1      48.910   8.404  14.022  0.00  0.00    +0.000 C 
BRANCH  23  24
ATOM     24  C   UNL     1      48.823   9.389  15.193  0.00  0.00    +0.000 C 
BRANCH  24  25
ATOM     25  N   UNL     1      47.590   9.214  15.961  0.00  0.00    +0.000 NA
ATOM     26  H   UNL     1      47.686   8.398  16.566  0.00  0.00    +0.000 HD
ATOM     27  H   UNL     1      46.818   9.006  15.329  0.00  0.00    +0.000 HD
ENDBRANCH  24  25
ENDBRANCH  23  24
ENDBRANCH  22  23
ENDBRANCH  16  22
ENDBRANCH  15  19
ENDBRANCH   1  15
TORSDOF 7
ENDMDL
MODEL 7
REMARK VINA RESULT:    -6.035      3.466      7.885
REMARK INTER + INTRA:          -8.887
REMARK INTER:                  -8.288
REMARK INTRA:                  -0.599
REMARK UNBOUND:                -0.559
REMARK  Name = 
REMARK  7 active torsions:
REMARK  status: ('A' for Active; 'I' for Inactive)
REMARK    1  A    between atoms: N_1  and  C_2
REMARK    2  A    between atoms: C_2  and  C_3
REMARK    3  A    between atoms: C_3  and  O_4
REMARK    4  A    between atoms: O_4  and  C_5
REMARK    5  A    between atoms: C_8  and  C_9
REMARK    6  A    between atoms: C_9  and  C_10
REMARK    7  A    between atoms: C_16  and  C_17
REMARK                            x       y       z     vdW  Elec       q    Type
REMARK                         _______ _______ _______ _____ _____    ______ ____
ROOT
ATOM      1  C   UNL     1      46.509   6.928  12.298  0.00  0.00    +0.000 A 
ATOM      2  C   UNL     1      45.954   8.196  12.325  0.00  0.00    +0.000 A 
ATOM      3  O   UNL     1      44.640   8.166  11.988  0.00  0.00    +0.000 OA
ATOM      4  C   UNL     1      44.317   6.870  11.728  0.00  0.00    +0.000 A 
ATOM      5  N   UNL     1      43.091   6.475  11.341  0.00  0.00    +0.000 NA
ATOM      6  C   UNL     1      43.013   5.137  11.117  0.00  0.00    +0.000 A 
ATOM      7  C   UNL     1      44.051   4.216  11.258  0.00  0.00    +0.000 A 
ATOM      8  C   UNL     1      45.303   4.686  11.667  0.00  0.00    +0.000 A 
ATOM      9  C   UNL     1      45.441   6.065  11.908  0.00  0.00    +0.000 A 
ENDROOT
BRANCH   7  10
ATOM     10  C   UNL     1      43.775   2.792  10.957  0.00  0.00    +0.000 C 
ATOM     11  N   UNL     1      44.473   2.187   9.947  0.00  0.00    +0.000 N 
ATOM     12  O   UNL     1      42.939   2.159  11.589  0.00  0.00    +0.000 OA
ATOM     13  H   UNL     1      45.183   2.616   9.378  0.00  0.00    +0.000 HD
ATOM     14  H   UNL     1      44.257   1.213   9.768  0.00  0.00    +0.000 HD
ENDBRANCH   7  10
BRANCH   1  15
ATOM     15  C   UNL     1      47.930   6.556  12.545  0.00  0.00    +0.000 C 
BRANCH  15  19
ATOM     16  C   UNL     1      48.152   5.289  16.683  0.00  0.00    +0.000 A 
ATOM     17  C   UNL     1      48.822   6.437  16.262  0.00  0.00    +0.000 A 
ATOM     18  C   UNL     1      48.763   6.841  14.923  0.00  0.00    +0.000 A 
ATOM     19  C   UNL     1      48.031   6.104  13.981  0.00  0.00    +0.000 A 
ATOM     20  C   UNL     1      47.363   4.950  14.411  0.00  0.00    +0.000 A 
ATOM     21  C   UNL     1      47.424   4.550  15.750  0.00  0.00    +0.000 A 
BRANCH  16  22
ATOM     22  O   UNL     1      48.127   4.795  17.959  0.00  0.00    +0.000 OA
BRANCH  22  23
ATOM     23  C   UNL     1      48.545   5.687  18.996  0.00  0.00    +0.000 C 
BRANCH  23  24
ATOM     24  C   UNL     1      47.305   6.219  19.724  0.00  0.00    +0.000 C 
BRANCH  24  25
ATOM     25  N   UNL     1      47.118   5.573  21.023  0.00  0.00    +0.000 NA
ATOM     26  H   UNL     1      47.134   4.560  20.899  0.00  0.00    +0.000 HD
ATOM     27  H   UNL     1      46.193   5.797  21.388  0.00  0.00    +0.000 HD
ENDBRANCH  24  25
ENDBRANCH  23  24
ENDBRANCH  22  23
ENDBRANCH  16  22
ENDBRANCH  15  19
ENDBRANCH   1  15
TORSDOF 7
ENDMDL
MODEL 8
REMARK VINA RESULT:    -5.947      2.521      3.728
REMARK INTER + INTRA:          -8.766
REMARK INTER:                  -8.207
REMARK INTRA:                  -0.559
REMARK UNBOUND:                -0.559
REMARK  Name = 
REMARK  7 active torsions:
REMARK  status: ('A' for Active; 'I' for Inactive)
REMARK    1  A    between atoms: N_1  and  C_2
REMARK    2  A    between atoms: C_2  and  C_3
REMARK    3  A    between atoms: C_3  and  O_4
REMARK    4  A    between atoms: O_4  and  C_5
REMARK    5  A    between atoms: C_8  and  C_9
REMARK    6  A    between atoms: C_9  and  C_10
REMARK    7  A    between atoms: C_16  and  C_17
REMARK                            x       y       z     vdW  Elec       q    Type
REMARK                         _______ _______ _______ _____ _____    ______ ____
ROOT
ATOM      1  C   UNL     1      46.157   7.617  12.562  0.00  0.00    +0.000 A 
ATOM      2  C   UNL     1      45.287   8.687  12.452  0.00  0.00    +0.000 A 
ATOM      3  O   UNL     1      45.935   9.812  12.063  0.00  0.00    +0.000 OA
ATOM      4  C   UNL     1      47.250   9.493  11.919  0.00  0.00    +0.000 A 
ATOM      5  N   UNL     1      48.194  10.383  11.562  0.00  0.00    +0.000 NA
ATOM      6  C   UNL     1      49.438   9.840  11.504  0.00  0.00    +0.000 A 
ATOM      7  C   UNL     1      49.770   8.512  11.771  0.00  0.00    +0.000 A 
ATOM      8  C   UNL     1      48.745   7.632  12.135  0.00  0.00    +0.000 A 
ATOM      9  C   UNL     1      47.438   8.144  12.214  0.00  0.00    +0.000 A 
ENDROOT
BRANCH   7  10
ATOM     10  C   UNL     1      51.191   8.106  11.666  0.00  0.00    +0.000 C 
ATOM     11  N   UNL     1      51.553   7.228  10.681  0.00  0.00    +0.000 N 
ATOM     12  O   UNL     1      52.033   8.538  12.442  0.00  0.00    +0.000 OA
ATOM     13  H   UNL     1      50.940   6.825   9.992  0.00  0.00    +0.000 HD
ATOM     14  H   UNL     1      52.533   6.971  10.641  0.00  0.00    +0.000 HD
ENDBRANCH   7  10
BRANCH   1  15
ATOM     15  C   UNL     1      45.841   6.234  13.018  0.00  0.00    +0.000 C 
BRANCH  15  19
ATOM     16  C   UNL     1      45.087   3.830   9.493  0.00  0.00    +0.000 A 
ATOM     17  C   UNL     1      45.635   5.107   9.370  0.00  0.00    +0.000 A 
ATOM     18  C   UNL     1      45.868   5.890  10.506  0.00  0.00    +0.000 A 
ATOM     19  C   UNL     1      45.557   5.411  11.787  0.00  0.00    +0.000 A 
ATOM     20  C   UNL     1      45.003   4.128  11.902  0.00  0.00    +0.000 A 
ATOM     21  C   UNL     1      44.774   3.348  10.764  0.00  0.00    +0.000 A 
BRANCH  16  22
ATOM     22  O   UNL     1      44.819   2.967   8.465  0.00  0.00    +0.000 OA
BRANCH  22  23
ATOM     23  C   UNL     1      45.668   3.060   7.317  0.00  0.00    +0.000 C 
BRANCH  23  24
ATOM     24  C   UNL     1      46.815   2.056   7.464  0.00  0.00    +0.000 C 
BRANCH  24  25
ATOM     25  N   UNL     1      46.360   0.791   8.044  0.00  0.00    +0.000 NA
ATOM     26  H   UNL     1      46.008   0.189   7.300  0.00  0.00    +0.000 HD
ATOM     27  H   UNL     1      45.570   0.963   8.665  0.00  0.00    +0.000 HD
ENDBRANCH  24  25
ENDBRANCH  23  24
ENDBRANCH  22  23
ENDBRANCH  16  22
ENDBRANCH  15  19
ENDBRANCH   1  15
TORSDOF 7
ENDMDL
MODEL 9
REMARK VINA RESULT:    -5.773      3.730      6.231
REMARK INTER + INTRA:          -8.525
REMARK INTER:                  -7.671
REMARK INTRA:                  -0.854
REMARK UNBOUND:                -0.559
REMARK  Name = 
REMARK  7 active torsions:
REMARK  status: ('A' for Active; 'I' for Inactive)
REMARK    1  A    between atoms: N_1  and  C_2
REMARK    2  A    between atoms: C_2  and  C_3
REMARK    3  A    between atoms: C_3  and  O_4
REMARK    4  A    between atoms: O_4  and  C_5
REMARK    5  A    between atoms: C_8  and  C_9
REMARK    6  A    between atoms: C_9  and  C_10
REMARK    7  A    between atoms: C_16  and  C_17
REMARK                            x       y       z     vdW  Elec       q    Type
REMARK                         _______ _______ _______ _____ _____    ______ ____
ROOT
ATOM      1  C   UNL     1      48.769   7.516  15.018  0.00  0.00    +0.000 A 
ATOM      2  C   UNL     1      48.660   8.856  15.346  0.00  0.00    +0.000 A 
ATOM      3  O   UNL     1      48.599   9.031  16.689  0.00  0.00    +0.000 OA
ATOM      4  C   UNL     1      48.662   7.799  17.263  0.00  0.00    +0.000 A 
ATOM      5  N   UNL     1      48.605   7.596  18.591  0.00  0.00    +0.000 NA
ATOM      6  C   UNL     1      48.662   6.281  18.928  0.00  0.00    +0.000 A 
ATOM      7  C   UNL     1      48.772   5.208  18.043  0.00  0.00    +0.000 A 
ATOM      8  C   UNL     1      48.829   5.482  16.673  0.00  0.00    +0.000 A 
ATOM      9  C   UNL     1      48.769   6.827  16.269  0.00  0.00    +0.000 A 
ENDROOT
BRANCH   7  10
ATOM     10  C   UNL     1      48.809   3.835  18.600  0.00  0.00    +0.000 C 
ATOM     11  N   UNL     1      48.560   3.660  19.934  0.00  0.00    +0.000 N 
ATOM     12  O   UNL     1      49.061   2.870  17.891  0.00  0.00    +0.000 OA
ATOM     13  H   UNL     1      48.336   4.385  20.595  0.00  0.00    +0.000 HD
ATOM     14  H   UNL     1      48.597   2.708  20.280  0.00  0.00    +0.000 HD
ENDBRANCH   7  10
BRANCH   1  15
ATOM     15  C   UNL     1      48.800   6.916  13.655  0.00  0.00    +0.000 C 
BRANCH  15  19
ATOM     16  C   UNL     1      44.834   5.320  12.942  0.00  0.00    +0.000 A 
ATOM     17  C   UNL     1      45.849   4.494  13.427  0.00  0.00    +0.000 A 
ATOM     18  C   UNL     1      47.134   5.005  13.646  0.00  0.00    +0.000 A 
ATOM     19  C   UNL     1      47.427   6.351  13.384  0.00  0.00    +0.000 A 
ATOM     20  C   UNL     1      46.404   7.173  12.894  0.00  0.00    +0.000 A 
ATOM     21  C   UNL     1      45.121   6.659  12.678  0.00  0.00    +0.000 A 
BRANCH  16  22
ATOM     22  O   UNL     1      43.542   4.944  12.694  0.00  0.00    +0.000 OA
BRANCH  22  23
ATOM     23  C   UNL     1      43.349   3.625  12.178  0.00  0.00    +0.000 C 
BRANCH  23  24
ATOM     24  C   UNL     1      43.745   3.607  10.698  0.00  0.00    +0.000 C 
BRANCH  24  25
ATOM     25  N   UNL     1      44.668   2.513  10.395  0.00  0.00    +0.000 NA
ATOM     26  H   UNL     1      45.574   2.711  10.819  0.00  0.00    +0.000 HD
ATOM     27  H   UNL     1      44.832   2.470   9.389  0.00  0.00    +0.000 HD
ENDBRANCH  24  25
ENDBRANCH  23  24
ENDBRANCH  22  23
ENDBRANCH  16  22
ENDBRANCH  15  19
ENDBRANCH   1  15
TORSDOF 7
ENDMDL
