MODEL 1
REMARK VINA RESULT:    -7.776      0.000      0.000
REMARK INTER + INTRA:         -12.071
REMARK INTER:                 -10.958
REMARK INTRA:                  -1.112
REMARK UNBOUND:                -1.112
REMARK  Name = 
REMARK  8 active torsions:
REMARK  status: ('A' for Active; 'I' for Inactive)
REMARK    1  A    between atoms: C_1  and  O_2
REMARK    2  A    between atoms: O_2  and  C_3
REMARK    3  A    between atoms: C_5  and  C_6
REMARK    4  A    between atoms: C_6  and  N_7
REMARK    5  A    between atoms: C_8  and  C_10
REMARK    6  A    between atoms: C_17  and  C_18
REMARK    7  A    between atoms: C_18  and  N_19
REMARK    8  A    between atoms: C_20  and  C_22
REMARK                            x       y       z     vdW  Elec       q    Type
REMARK                         _______ _______ _______ _____ _____    ______ ____
ROOT
ATOM      1  C   UNL     1      45.320   8.108  12.373  0.00  0.00    +0.000 A 
ATOM      2  C   UNL     1      44.541   7.320  11.505  0.00  0.00    +0.000 A 
ATOM      3  C   UNL     1      44.944   6.029  11.134  0.00  0.00    +0.000 A 
ATOM      4  C   UNL     1      46.131   5.518  11.666  0.00  0.00    +0.000 A 
ATOM      5  C   UNL     1      46.913   6.292  12.526  0.00  0.00    +0.000 A 
ATOM      6  C   UNL     1      46.530   7.598  12.877  0.00  0.00    +0.000 A 
ENDROOT
BRANCH   1   8
ATOM      7  C   UNL     1      44.618  10.276  11.689  0.00  0.00    +0.000 C 
ATOM      8  O   UNL     1      44.990   9.387  12.739  0.00  0.00    +0.000 OA
ENDBRANCH   1   8
BRANCH   3   9
ATOM      9  C   UNL     1      44.097   5.201  10.202  0.00  0.00    +0.000 C 
BRANCH   9  10
ATOM     10  N   UNL     1      44.911   4.488   9.251  0.00  0.00    +0.000 N 
ATOM     11  C   UNL     1      44.989   3.108   9.227  0.00  0.00    +0.000 C 
ATOM     12  O   UNL     1      44.362   2.416  10.022  0.00  0.00    +0.000 OA
ATOM     13  H   UNL     1      45.396   5.005   8.528  0.00  0.00    +0.000 HD
BRANCH  11  14
ATOM     14  C   UNL     1      45.860   2.552   8.192  0.00  0.00    +0.000 A 
ATOM     15  C   UNL     1      46.276   1.236   8.070  0.00  0.00    +0.000 A 
ATOM     16  C   UNL     1      47.142   1.035   6.952  0.00  0.00    +0.000 A 
ATOM     17  C   UNL     1      47.364   2.199   6.255  0.00  0.00    +0.000 A 
ATOM     18  S   UNL     1      46.526   3.524   6.941  0.00  0.00    +0.000 S 
ENDBRANCH  11  14
ENDBRANCH   9  10
ENDBRANCH   3   9
BRANCH   6  19
ATOM     19  C   UNL     1      47.408   8.368  13.838  0.00  0.00    +0.000 C 
BRANCH  19  20
ATOM     20  N   UNL     1      47.855   7.511  14.914  0.00  0.00    +0.000 N 
ATOM     21  C   UNL     1      49.166   7.158  15.093  0.00  0.00    +0.000 C 
ATOM     22  O   UNL     1      50.043   7.412  14.273  0.00  0.00    +0.000 OA
ATOM     23  H   UNL     1      47.217   7.446  15.699  0.00  0.00    +0.000 HD
BRANCH  21  24
ATOM     24  C   UNL     1      49.477   6.429  16.331  0.00  0.00    +0.000 A 
ATOM     25  C   UNL     1      50.394   6.936  17.240  0.00  0.00    +0.000 A 
ATOM     26  S   UNL     1      50.551   5.991  18.653  0.00  0.00    +0.000 S 
ATOM     27  C   UNL     1      49.329   4.925  18.138  0.00  0.00    +0.000 A 
ATOM     28  N   UNL     1      48.852   3.950  18.957  0.00  0.00    +0.000 NA
ATOM     29  C   UNL     1      47.921   3.222  18.434  0.00  0.00    +0.000 A 
ATOM     30  N   UNL     1      47.463   3.347  17.149  0.00  0.00    +0.000 N 
ATOM     31  C   UNL     1      47.937   4.295  16.276  0.00  0.00    +0.000 A 
ATOM     32  O   UNL     1      47.570   4.321  15.106  0.00  0.00    +0.000 OA
ATOM     33  C   UNL     1      48.912   5.203  16.848  0.00  0.00    +0.000 A 
ATOM     34  H   UNL     1      46.780   2.705  16.777  0.00  0.00    +0.000 HD
ENDBRANCH  21  24
ENDBRANCH  19  20
ENDBRANCH   6  19
TORSDOF 7
ENDMDL
MODEL 2
REMARK VINA RESULT:    -7.705      1.748      2.469
REMARK INTER + INTRA:         -11.970
REMARK INTER:                 -10.797
REMARK INTRA:                  -1.172
REMARK UNBOUND:                -1.112
REMARK  Name = 
REMARK  8 active torsions:
REMARK  status: ('A' for Active; 'I' for Inactive)
REMARK    1  A    between atoms: C_1  and  O_2
REMARK    2  A    between atoms: O_2  and  C_3
REMARK    3  A    between atoms: C_5  and  C_6
REMARK    4  A    between atoms: C_6  and  N_7
REMARK    5  A    between atoms: C_8  and  C_10
REMARK    6  A    between atoms: C_17  and  C_18
REMARK    7  A    between atoms: C_18  and  N_19
REMARK    8  A    between atoms: C_20  and  C_22
REMARK                            x       y       z     vdW  Elec       q    Type
REMARK                         _______ _______ _______ _____ _____    ______ ____
ROOT
ATOM      1  C   UNL     1      46.875   5.619  13.114  0.00  0.00    +0.000 A 
ATOM      2  C   UNL     1      45.934   4.905  12.348  0.00  0.00    +0.000 A 
ATOM      3  C   UNL     1      45.069   5.562  11.460  0.00  0.00    +0.000 A 
ATOM      4  C   UNL     1      45.174   6.949  11.325  0.00  0.00    +0.000 A 
ATOM      5  C   UNL     1      46.103   7.667  12.082  0.00  0.00    +0.000 A 
ATOM      6  C   UNL     1      46.951   7.018  12.997  0.00  0.00    +0.000 A 
ENDROOT
BRANCH   1   8
ATOM      7  C   UNL     1      47.133   4.101  14.929  0.00  0.00    +0.000 C 
ATOM      8  O   UNL     1      47.719   5.030  14.021  0.00  0.00    +0.000 OA
ENDBRANCH   1   8
BRANCH   3   9
ATOM      9  C   UNL     1      44.068   4.781  10.649  0.00  0.00    +0.000 C 
BRANCH   9  10
ATOM     10  N   UNL     1      44.708   3.729   9.902  0.00  0.00    +0.000 N 
ATOM     11  C   UNL     1      45.470   3.976   8.774  0.00  0.00    +0.000 C 
ATOM     12  O   UNL     1      45.638   5.115   8.351  0.00  0.00    +0.000 OA
ATOM     13  H   UNL     1      44.660   2.778  10.244  0.00  0.00    +0.000 HD
BRANCH  11  14
ATOM     14  C   UNL     1      46.049   2.791   8.142  0.00  0.00    +0.000 A 
ATOM     15  C   UNL     1      45.852   1.470   8.510  0.00  0.00    +0.000 A 
ATOM     16  C   UNL     1      46.584   0.557   7.690  0.00  0.00    +0.000 A 
ATOM     17  C   UNL     1      47.317   1.205   6.724  0.00  0.00    +0.000 A 
ATOM     18  S   UNL     1      47.117   2.903   6.801  0.00  0.00    +0.000 S 
ENDBRANCH  11  14
ENDBRANCH   9  10
ENDBRANCH   3   9
BRANCH   6  19
ATOM     19  C   UNL     1      47.954   7.853  13.760  0.00  0.00    +0.000 C 
BRANCH  19  20
ATOM     20  N   UNL     1      47.894   7.551  15.173  0.00  0.00    +0.000 N 
ATOM     21  C   UNL     1      49.009   7.422  15.958  0.00  0.00    +0.000 C 
ATOM     22  O   UNL     1      50.147   7.402  15.501  0.00  0.00    +0.000 OA
ATOM     23  H   UNL     1      47.003   7.751  15.614  0.00  0.00    +0.000 HD
BRANCH  21  24
ATOM     24  C   UNL     1      48.772   7.289  17.403  0.00  0.00    +0.000 A 
ATOM     25  C   UNL     1      48.260   8.348  18.138  0.00  0.00    +0.000 A 
ATOM     26  S   UNL     1      47.972   7.968  19.777  0.00  0.00    +0.000 S 
ATOM     27  C   UNL     1      48.434   6.349  19.536  0.00  0.00    +0.000 A 
ATOM     28  N   UNL     1      48.282   5.419  20.517  0.00  0.00    +0.000 NA
ATOM     29  C   UNL     1      48.669   4.230  20.189  0.00  0.00    +0.000 A 
ATOM     30  N   UNL     1      49.243   3.899  18.989  0.00  0.00    +0.000 N 
ATOM     31  C   UNL     1      49.446   4.811  17.982  0.00  0.00    +0.000 A 
ATOM     32  O   UNL     1      50.043   4.502  16.957  0.00  0.00    +0.000 OA
ATOM     33  C   UNL     1      48.936   6.139  18.264  0.00  0.00    +0.000 A 
ATOM     34  H   UNL     1      49.585   2.967  18.817  0.00  0.00    +0.000 HD
ENDBRANCH  21  24
ENDBRANCH  19  20
ENDBRANCH   6  19
TORSDOF 7
ENDMDL
MODEL 3
REMARK VINA RESULT:    -7.634      2.313      3.149
REMARK INTER + INTRA:         -11.871
REMARK INTER:                 -10.623
REMARK INTRA:                  -1.248
REMARK UNBOUND:                -1.112
REMARK  Name = 
REMARK  8 active torsions:
REMARK  status: ('A' for Active; 'I' for Inactive)
REMARK    1  A    between atoms: C_1  and  O_2
REMARK    2  A    between atoms: O_2  and  C_3
REMARK    3  A    between atoms: C_5  and  C_6
REMARK    4  A    between atoms: C_6  and  N_7
REMARK    5  A    between atoms: C_8  and  C_10
REMARK    6  A    between atoms: C_17  and  C_18
REMARK    7  A    between atoms: C_18  and  N_19
REMARK    8  A    between atoms: C_20  and  C_22
REMARK                            x       y       z     vdW  Elec       q    Type
REMARK                         _______ _______ _______ _____ _____    ______ ____
ROOT
ATOM      1  C   UNL     1      47.089   6.072  13.736  0.00  0.00    +0.000 A 
ATOM      2  C   UNL     1      46.812   6.441  12.406  0.00  0.00    +0.000 A 
ATOM      3  C   UNL     1      45.968   5.666  11.596  0.00  0.00    +0.000 A 
ATOM      4  C   UNL     1      45.376   4.524  12.143  0.00  0.00    +0.000 A 
ATOM      5  C   UNL     1      45.646   4.148  13.461  0.00  0.00    +0.000 A 
ATOM      6  C   UNL     1      46.516   4.902  14.268  0.00  0.00    +0.000 A 
ENDROOT
BRANCH   1   8
ATOM      7  C   UNL     1      49.183   7.169  14.001  0.00  0.00    +0.000 C 
ATOM      8  O   UNL     1      47.932   6.774  14.558  0.00  0.00    +0.000 OA
ENDBRANCH   1   8
BRANCH   3   9
ATOM      9  C   UNL     1      45.683   6.076  10.174  0.00  0.00    +0.000 C 
BRANCH   9  10
ATOM     10  N   UNL     1      46.201   5.110   9.239  0.00  0.00    +0.000 N 
ATOM     11  C   UNL     1      45.390   4.199   8.588  0.00  0.00    +0.000 C 
ATOM     12  O   UNL     1      44.179   4.167   8.778  0.00  0.00    +0.000 OA
ATOM     13  H   UNL     1      47.182   5.135   8.993  0.00  0.00    +0.000 HD
BRANCH  11  14
ATOM     14  C   UNL     1      46.082   3.294   7.671  0.00  0.00    +0.000 A 
ATOM     15  C   UNL     1      46.631   3.614   6.440  0.00  0.00    +0.000 A 
ATOM     16  C   UNL     1      47.220   2.486   5.790  0.00  0.00    +0.000 A 
ATOM     17  C   UNL     1      47.103   1.340   6.541  0.00  0.00    +0.000 A 
ATOM     18  S   UNL     1      46.296   1.626   8.023  0.00  0.00    +0.000 S 
ENDBRANCH  11  14
ENDBRANCH   9  10
ENDBRANCH   3   9
BRANCH   6  19
ATOM     19  C   UNL     1      46.739   4.455  15.695  0.00  0.00    +0.000 C 
BRANCH  19  20
ATOM     20  N   UNL     1      48.152   4.414  15.998  0.00  0.00    +0.000 N 
ATOM     21  C   UNL     1      48.665   4.759  17.220  0.00  0.00    +0.000 C 
ATOM     22  O   UNL     1      47.990   5.275  18.105  0.00  0.00    +0.000 OA
ATOM     23  H   UNL     1      48.702   3.824  15.383  0.00  0.00    +0.000 HD
BRANCH  21  24
ATOM     24  C   UNL     1      50.098   4.494  17.420  0.00  0.00    +0.000 A 
ATOM     25  C   UNL     1      50.950   5.500  17.851  0.00  0.00    +0.000 A 
ATOM     26  S   UNL     1      52.553   4.974  18.110  0.00  0.00    +0.000 S 
ATOM     27  C   UNL     1      52.138   3.364  17.745  0.00  0.00    +0.000 A 
ATOM     28  N   UNL     1      53.028   2.350  17.919  0.00  0.00    +0.000 NA
ATOM     29  C   UNL     1      52.571   1.182  17.608  0.00  0.00    +0.000 A 
ATOM     30  N   UNL     1      51.325   0.944  17.089  0.00  0.00    +0.000 N 
ATOM     31  C   UNL     1      50.406   1.940  16.867  0.00  0.00    +0.000 A 
ATOM     32  O   UNL     1      49.336   1.703  16.319  0.00  0.00    +0.000 OA
ATOM     33  C   UNL     1      50.835   3.257  17.294  0.00  0.00    +0.000 A 
ATOM     34  H   UNL     1      51.051   0.016  16.804  0.00  0.00    +0.000 HD
ENDBRANCH  21  24
ENDBRANCH  19  20
ENDBRANCH   6  19
TORSDOF 7
ENDMDL
MODEL 4
REMARK VINA RESULT:    -7.334      2.298      3.379
REMARK INTER + INTRA:         -11.447
REMARK INTER:                 -10.133
REMARK INTRA:                  -1.314
REMARK UNBOUND:                -1.112
REMARK  Name = 
REMARK  8 active torsions:
REMARK  status: ('A' for Active; 'I' for Inactive)
REMARK    1  A    between atoms: C_1  and  O_2
REMARK    2  A    between atoms: O_2  and  C_3
REMARK    3  A    between atoms: C_5  and  C_6
REMARK    4  A    between atoms: C_6  and  N_7
REMARK    5  A    between atoms: C_8  and  C_10
REMARK    6  A    between atoms: C_17  and  C_18
REMARK    7  A    between atoms: C_18  and  N_19
REMARK    8  A    between atoms: C_20  and  C_22
REMARK                            x       y       z     vdW  Elec       q    Type
REMARK                         _______ _______ _______ _____ _____    ______ ____
ROOT
ATOM      1  C   UNL     1      47.028   5.340  13.325  0.00  0.00    +0.000 A 
ATOM      2  C   UNL     1      46.077   4.716  12.496  0.00  0.00    +0.000 A 
ATOM      3  C   UNL     1      45.306   5.456  11.587  0.00  0.00    +0.000 A 
ATOM      4  C   UNL     1      45.517   6.835  11.496  0.00  0.00    +0.000 A 
ATOM      5  C   UNL     1      46.457   7.464  12.315  0.00  0.00    +0.000 A 
ATOM      6  C   UNL     1      47.210   6.733  13.250  0.00  0.00    +0.000 A 
ENDROOT
BRANCH   1   8
ATOM      7  C   UNL     1      47.075   3.843  15.174  0.00  0.00    +0.000 C 
ATOM      8  O   UNL     1      47.782   4.669  14.253  0.00  0.00    +0.000 OA
ENDBRANCH   1   8
BRANCH   3   9
ATOM      9  C   UNL     1      44.292   4.771  10.708  0.00  0.00    +0.000 C 
BRANCH   9  10
ATOM     10  N   UNL     1      44.897   3.709   9.943  0.00  0.00    +0.000 N 
ATOM     11  C   UNL     1      45.577   3.940   8.762  0.00  0.00    +0.000 C 
ATOM     12  O   UNL     1      45.701   5.070   8.303  0.00  0.00    +0.000 OA
ATOM     13  H   UNL     1      44.885   2.766  10.309  0.00  0.00    +0.000 HD
BRANCH  11  14
ATOM     14  C   UNL     1      46.130   2.748   8.120  0.00  0.00    +0.000 A 
ATOM     15  C   UNL     1      45.896   1.428   8.469  0.00  0.00    +0.000 A 
ATOM     16  C   UNL     1      46.610   0.506   7.644  0.00  0.00    +0.000 A 
ATOM     17  C   UNL     1      47.368   1.147   6.691  0.00  0.00    +0.000 A 
ATOM     18  S   UNL     1      47.211   2.848   6.788  0.00  0.00    +0.000 S 
ENDBRANCH  11  14
ENDBRANCH   9  10
ENDBRANCH   3   9
BRANCH   6  19
ATOM     19  C   UNL     1      48.232   7.473  14.083  0.00  0.00    +0.000 C 
BRANCH  19  20
ATOM     20  N   UNL     1      48.038   7.194  15.489  0.00  0.00    +0.000 N 
ATOM     21  C   UNL     1      49.043   6.758  16.311  0.00  0.00    +0.000 C 
ATOM     22  O   UNL     1      50.147   6.423  15.893  0.00  0.00    +0.000 OA
ATOM     23  H   UNL     1      47.222   7.633  15.901  0.00  0.00    +0.000 HD
BRANCH  21  24
ATOM     24  C   UNL     1      48.726   6.691  17.745  0.00  0.00    +0.000 A 
ATOM     25  C   UNL     1      48.904   5.513  18.455  0.00  0.00    +0.000 A 
ATOM     26  S   UNL     1      48.566   5.661  20.121  0.00  0.00    +0.000 S 
ATOM     27  C   UNL     1      48.262   7.327  19.964  0.00  0.00    +0.000 A 
ATOM     28  N   UNL     1      48.057   8.113  21.056  0.00  0.00    +0.000 NA
ATOM     29  C   UNL     1      47.847   9.358  20.784  0.00  0.00    +0.000 A 
ATOM     30  N   UNL     1      47.770   9.879  19.518  0.00  0.00    +0.000 N 
ATOM     31  C   UNL     1      47.938   9.119  18.387  0.00  0.00    +0.000 A 
ATOM     32  O   UNL     1      47.774   9.598  17.271  0.00  0.00    +0.000 OA
ATOM     33  C   UNL     1      48.277   7.732  18.641  0.00  0.00    +0.000 A 
ATOM     34  H   UNL     1      47.537  10.848  19.370  0.00  0.00    +0.000 HD
ENDBRANCH  21  24
ENDBRANCH  19  20
ENDBRANCH   6  19
TORSDOF 7
ENDMDL
MODEL 5
REMARK VINA RESULT:    -6.852      3.345      8.415
REMARK INTER + INTRA:         -10.768
REMARK INTER:                  -9.667
REMARK INTRA:                  -1.102
REMARK UNBOUND:                -1.112
REMARK  Name = 
REMARK  8 active torsions:
REMARK  status: ('A' for Active; 'I' for Inactive)
REMARK    1  A    between atoms: C_1  and  O_2
REMARK    2  A    between atoms: O_2  and  C_3
REMARK    3  A    between atoms: C_5  and  C_6
REMARK    4  A    between atoms: C_6  and  N_7
REMARK    5  A    between atoms: C_8  and  C_10
REMARK    6  A    between atoms: C_17  and  C_18
REMARK    7  A    between atoms: C_18  and  N_19
REMARK    8  A    between atoms: C_20  and  C_22
REMARK                            x       y       z     vdW  Elec       q    Type
REMARK                         _______ _______ _______ _____ _____    ______ ____
ROOT
ATOM      1  C   UNL     1      49.913   6.562  16.099  0.00  0.00    +0.000 A 
ATOM      2  C   UNL     1      50.227   5.623  17.100  0.00  0.00    +0.000 A 
ATOM      3  C   UNL     1      49.359   4.563  17.401  0.00  0.00    +0.000 A 
ATOM      4  C   UNL     1      48.176   4.434  16.667  0.00  0.00    +0.000 A 
ATOM      5  C   UNL     1      47.855   5.362  15.673  0.00  0.00    +0.000 A 
ATOM      6  C   UNL     1      48.705   6.444  15.388  0.00  0.00    +0.000 A 
ENDROOT
BRANCH   1   8
ATOM      7  C   UNL     1      52.087   7.360  15.554  0.00  0.00    +0.000 C 
ATOM      8  O   UNL     1      50.709   7.635  15.789  0.00  0.00    +0.000 OA
ENDBRANCH   1   8
BRANCH   3   9
ATOM      9  C   UNL     1      49.711   3.567  18.476  0.00  0.00    +0.000 C 
BRANCH   9  10
ATOM     10  N   UNL     1      51.100   3.189  18.404  0.00  0.00    +0.000 N 
ATOM     11  C   UNL     1      51.537   2.108  17.661  0.00  0.00    +0.000 C 
ATOM     12  O   UNL     1      50.756   1.410  17.022  0.00  0.00    +0.000 OA
ATOM     13  H   UNL     1      51.795   3.769  18.855  0.00  0.00    +0.000 HD
BRANCH  11  14
ATOM     14  C   UNL     1      52.980   1.871  17.698  0.00  0.00    +0.000 A 
ATOM     15  C   UNL     1      53.979   2.826  17.788  0.00  0.00    +0.000 A 
ATOM     16  C   UNL     1      55.288   2.253  17.781  0.00  0.00    +0.000 A 
ATOM     17  C   UNL     1      55.250   0.882  17.684  0.00  0.00    +0.000 A 
ATOM     18  S   UNL     1      53.647   0.290  17.611  0.00  0.00    +0.000 S 
ENDBRANCH  11  14
ENDBRANCH   9  10
ENDBRANCH   3   9
BRANCH   6  19
ATOM     19  C   UNL     1      48.310   7.393  14.279  0.00  0.00    +0.000 C 
BRANCH  19  20
ATOM     20  N   UNL     1      47.001   7.055  13.765  0.00  0.00    +0.000 N 
ATOM     21  C   UNL     1      46.757   6.812  12.439  0.00  0.00    +0.000 C 
ATOM     22  O   UNL     1      47.591   7.010  11.562  0.00  0.00    +0.000 OA
ATOM     23  H   UNL     1      46.352   6.698  14.457  0.00  0.00    +0.000 HD
BRANCH  21  24
ATOM     24  C   UNL     1      45.416   6.311  12.108  0.00  0.00    +0.000 A 
ATOM     25  C   UNL     1      44.465   7.150  11.546  0.00  0.00    +0.000 A 
ATOM     26  S   UNL     1      43.004   6.362  11.151  0.00  0.00    +0.000 S 
ATOM     27  C   UNL     1      43.628   4.854  11.631  0.00  0.00    +0.000 A 
ATOM     28  N   UNL     1      42.936   3.703  11.416  0.00  0.00    +0.000 NA
ATOM     29  C   UNL     1      43.536   2.635  11.825  0.00  0.00    +0.000 A 
ATOM     30  N   UNL     1      44.742   2.619  12.478  0.00  0.00    +0.000 N 
ATOM     31  C   UNL     1      45.461   3.758  12.746  0.00  0.00    +0.000 A 
ATOM     32  O   UNL     1      46.490   3.716  13.410  0.00  0.00    +0.000 OA
ATOM     33  C   UNL     1      44.876   4.974  12.216  0.00  0.00    +0.000 A 
ATOM     34  H   UNL     1      45.128   1.758  12.832  0.00  0.00    +0.000 HD
ENDBRANCH  21  24
ENDBRANCH  19  20
ENDBRANCH   6  19
TORSDOF 7
ENDMDL
MODEL 6
REMARK VINA RESULT:    -6.614      1.697      1.979
REMARK INTER + INTRA:         -10.434
REMARK INTER:                  -9.422
REMARK INTRA:                  -1.012
REMARK UNBOUND:                -1.112
REMARK  Name = 
REMARK  8 active torsions:
REMARK  status: ('A' for Active; 'I' for Inactive)
REMARK    1  A    between atoms: C_1  and  O_2
REMARK    2  A    between atoms: O_2  and  C_3
REMARK    3  A    between atoms: C_5  and  C_6
REMARK    4  A    between atoms: C_6  and  N_7
REMARK    5  A    between atoms: C_8  and  C_10
REMARK    6  A    between atoms: C_17  and  C_18
REMARK    7  A    between atoms: C_18  and  N_19
REMARK    8  A    between atoms: C_20  and  C_22
REMARK                            x       y       z     vdW  Elec       q    Type
REMARK                         _______ _______ _______ _____ _____    ______ ____
ROOT
ATOM      1  C   UNL     1      45.902   8.773  12.497  0.00  0.00    +0.000 A 
ATOM      2  C   UNL     1      45.060   7.988  11.687  0.00  0.00    +0.000 A 
ATOM      3  C   UNL     1      45.184   6.591  11.648  0.00  0.00    +0.000 A 
ATOM      4  C   UNL     1      46.148   5.980  12.455  0.00  0.00    +0.000 A 
ATOM      5  C   UNL     1      46.990   6.750  13.260  0.00  0.00    +0.000 A 
ATOM      6  C   UNL     1      46.892   8.152  13.280  0.00  0.00    +0.000 A 
ENDROOT
BRANCH   1   8
ATOM      7  C   UNL     1      46.328  10.842  11.401  0.00  0.00    +0.000 C 
ATOM      8  O   UNL     1      45.847  10.142  12.545  0.00  0.00    +0.000 OA
ENDBRANCH   1   8
BRANCH   3   9
ATOM      9  C   UNL     1      44.274   5.766  10.774  0.00  0.00    +0.000 C 
BRANCH   9  10
ATOM     10  N   UNL     1      45.030   4.933   9.873  0.00  0.00    +0.000 N 
ATOM     11  C   UNL     1      44.676   3.625   9.599  0.00  0.00    +0.000 C 
ATOM     12  O   UNL     1      43.692   3.105  10.114  0.00  0.00    +0.000 OA
ATOM     13  H   UNL     1      45.811   5.331   9.368  0.00  0.00    +0.000 HD
BRANCH  11  14
ATOM     14  C   UNL     1      45.553   2.928   8.658  0.00  0.00    +0.000 A 
ATOM     15  C   UNL     1      45.781   1.564   8.585  0.00  0.00    +0.000 A 
ATOM     16  C   UNL     1      46.713   1.217   7.560  0.00  0.00    +0.000 A 
ATOM     17  C   UNL     1      47.170   2.323   6.882  0.00  0.00    +0.000 A 
ATOM     18  S   UNL     1      46.472   3.768   7.475  0.00  0.00    +0.000 S 
ENDBRANCH  11  14
ENDBRANCH   9  10
ENDBRANCH   3   9
BRANCH   6  19
ATOM     19  C   UNL     1      47.814   8.922  14.199  0.00  0.00    +0.000 C 
BRANCH  19  20
ATOM     20  N   UNL     1      48.217   8.099  15.318  0.00  0.00    +0.000 N 
ATOM     21  C   UNL     1      48.365   8.586  16.589  0.00  0.00    +0.000 C 
ATOM     22  O   UNL     1      48.318   9.783  16.854  0.00  0.00    +0.000 OA
ATOM     23  H   UNL     1      48.076   7.104  15.186  0.00  0.00    +0.000 HD
BRANCH  21  24
ATOM     24  C   UNL     1      48.607   7.588  17.642  0.00  0.00    +0.000 A 
ATOM     25  C   UNL     1      47.773   7.510  18.747  0.00  0.00    +0.000 A 
ATOM     26  S   UNL     1      48.164   6.232  19.809  0.00  0.00    +0.000 S 
ATOM     27  C   UNL     1      49.401   5.684  18.777  0.00  0.00    +0.000 A 
ATOM     28  N   UNL     1      50.056   4.517  19.019  0.00  0.00    +0.000 NA
ATOM     29  C   UNL     1      50.964   4.225  18.147  0.00  0.00    +0.000 A 
ATOM     30  N   UNL     1      51.313   5.021  17.087  0.00  0.00    +0.000 N 
ATOM     31  C   UNL     1      50.702   6.222  16.823  0.00  0.00    +0.000 A 
ATOM     32  O   UNL     1      51.099   6.950  15.920  0.00  0.00    +0.000 OA
ATOM     33  C   UNL     1      49.606   6.546  17.715  0.00  0.00    +0.000 A 
ATOM     34  H   UNL     1      52.076   4.769  16.479  0.00  0.00    +0.000 HD
ENDBRANCH  21  24
ENDBRANCH  19  20
ENDBRANCH   6  19
TORSDOF 7
ENDMDL
MODEL 7
REMARK VINA RESULT:    -6.546      3.208      4.932
REMARK INTER + INTRA:         -10.337
REMARK INTER:                  -9.126
REMARK INTRA:                  -1.211
REMARK UNBOUND:                -1.112
REMARK  Name = 
REMARK  8 active torsions:
REMARK  status: ('A' for Active; 'I' for Inactive)
REMARK    1  A    between atoms: C_1  and  O_2
REMARK    2  A    between atoms: O_2  and  C_3
REMARK    3  A    between atoms: C_5  and  C_6
REMARK    4  A    between atoms: C_6  and  N_7
REMARK    5  A    between atoms: C_8  and  C_10
REMARK    6  A    between atoms: C_17  and  C_18
REMARK    7  A    between atoms: C_18  and  N_19
REMARK    8  A    between atoms: C_20  and  C_22
REMARK                            x       y       z     vdW  Elec       q    Type
REMARK                         _______ _______ _______ _____ _____    ______ ____
ROOT
ATOM      1  C   UNL     1      46.798   6.013  13.127  0.00  0.00    +0.000 A 
ATOM      2  C   UNL     1      45.999   5.294  12.218  0.00  0.00    +0.000 A 
ATOM      3  C   UNL     1      45.091   5.948  11.372  0.00  0.00    +0.000 A 
ATOM      4  C   UNL     1      45.009   7.343  11.425  0.00  0.00    +0.000 A 
ATOM      5  C   UNL     1      45.796   8.065  12.325  0.00  0.00    +0.000 A 
ATOM      6  C   UNL     1      46.685   7.413  13.198  0.00  0.00    +0.000 A 
ENDROOT
BRANCH   1   8
ATOM      7  C   UNL     1      47.121   4.497  14.932  0.00  0.00    +0.000 C 
ATOM      8  O   UNL     1      47.675   5.421  13.999  0.00  0.00    +0.000 OA
ENDBRANCH   1   8
BRANCH   3   9
ATOM      9  C   UNL     1      44.243   5.162  10.405  0.00  0.00    +0.000 C 
BRANCH   9  10
ATOM     10  N   UNL     1      45.058   4.473   9.437  0.00  0.00    +0.000 N 
ATOM     11  C   UNL     1      44.970   3.109   9.229  0.00  0.00    +0.000 C 
ATOM     12  O   UNL     1      44.187   2.412   9.865  0.00  0.00    +0.000 OA
ATOM     13  H   UNL     1      45.673   5.007   8.837  0.00  0.00    +0.000 HD
BRANCH  11  14
ATOM     14  C   UNL     1      45.869   2.576   8.205  0.00  0.00    +0.000 A 
ATOM     15  C   UNL     1      46.322   1.272   8.089  0.00  0.00    +0.000 A 
ATOM     16  C   UNL     1      47.207   1.094   6.982  0.00  0.00    +0.000 A 
ATOM     17  C   UNL     1      47.405   2.264   6.287  0.00  0.00    +0.000 A 
ATOM     18  S   UNL     1      46.522   3.566   6.962  0.00  0.00    +0.000 S 
ENDBRANCH  11  14
ENDBRANCH   9  10
ENDBRANCH   3   9
BRANCH   6  19
ATOM     19  C   UNL     1      47.529   8.259  14.124  0.00  0.00    +0.000 C 
BRANCH  19  20
ATOM     20  N   UNL     1      48.931   8.128  13.794  0.00  0.00    +0.000 N 
ATOM     21  C   UNL     1      49.768   9.202  13.646  0.00  0.00    +0.000 C 
ATOM     22  O   UNL     1      49.368  10.361  13.630  0.00  0.00    +0.000 OA
ATOM     23  H   UNL     1      49.330   7.217  13.989  0.00  0.00    +0.000 HD
BRANCH  21  24
ATOM     24  C   UNL     1      51.197   8.892  13.485  0.00  0.00    +0.000 A 
ATOM     25  C   UNL     1      51.943   8.419  14.554  0.00  0.00    +0.000 A 
ATOM     26  S   UNL     1      53.555   8.034  14.146  0.00  0.00    +0.000 S 
ATOM     27  C   UNL     1      53.280   8.398  12.506  0.00  0.00    +0.000 A 
ATOM     28  N   UNL     1      54.223   8.141  11.560  0.00  0.00    +0.000 NA
ATOM     29  C   UNL     1      53.873   8.463  10.359  0.00  0.00    +0.000 A 
ATOM     30  N   UNL     1      52.688   9.067  10.026  0.00  0.00    +0.000 N 
ATOM     31  C   UNL     1      51.722   9.374  10.952  0.00  0.00    +0.000 A 
ATOM     32  O   UNL     1      50.713   9.995  10.633  0.00  0.00    +0.000 OA
ATOM     33  C   UNL     1      52.025   8.941  12.302  0.00  0.00    +0.000 A 
ATOM     34  H   UNL     1      52.501   9.354   9.078  0.00  0.00    +0.000 HD
ENDBRANCH  21  24
ENDBRANCH  19  20
ENDBRANCH   6  19
TORSDOF 7
ENDMDL
MODEL 8
REMARK VINA RESULT:    -6.498      3.069      4.730
REMARK INTER + INTRA:         -10.269
REMARK INTER:                  -8.986
REMARK INTRA:                  -1.284
REMARK UNBOUND:                -1.112
REMARK  Name = 
REMARK  8 active torsions:
REMARK  status: ('A' for Active; 'I' for Inactive)
REMARK    1  A    between atoms: C_1  and  O_2
REMARK    2  A    between atoms: O_2  and  C_3
REMARK    3  A    between atoms: C_5  and  C_6
REMARK    4  A    between atoms: C_6  and  N_7
REMARK    5  A    between atoms: C_8  and  C_10
REMARK    6  A    between atoms: C_17  and  C_18
REMARK    7  A    between atoms: C_18  and  N_19
REMARK    8  A    between atoms: C_20  and  C_22
REMARK                            x       y       z     vdW  Elec       q    Type
REMARK                         _______ _______ _______ _____ _____    ______ ____
ROOT
ATOM      1  C   UNL     1      48.323   5.961  15.401  0.00  0.00    +0.000 A 
ATOM      2  C   UNL     1      47.923   6.203  14.073  0.00  0.00    +0.000 A 
ATOM      3  C   UNL     1      47.819   7.509  13.571  0.00  0.00    +0.000 A 
ATOM      4  C   UNL     1      48.149   8.578  14.409  0.00  0.00    +0.000 A 
ATOM      5  C   UNL     1      48.545   8.348  15.728  0.00  0.00    +0.000 A 
ATOM      6  C   UNL     1      48.620   7.044  16.247  0.00  0.00    +0.000 A 
ENDROOT
BRANCH   1   8
ATOM      7  C   UNL     1      47.176   4.026  16.178  0.00  0.00    +0.000 C 
ATOM      8  O   UNL     1      48.407   4.708  15.951  0.00  0.00    +0.000 OA
ENDBRANCH   1   8
BRANCH   3   9
ATOM      9  C   UNL     1      47.388   7.749  12.147  0.00  0.00    +0.000 C 
BRANCH   9  10
ATOM     10  N   UNL     1      46.846   6.552  11.556  0.00  0.00    +0.000 N 
ATOM     11  C   UNL     1      45.503   6.415  11.258  0.00  0.00    +0.000 C 
ATOM     12  O   UNL     1      44.700   7.314  11.483  0.00  0.00    +0.000 OA
ATOM     13  H   UNL     1      47.473   5.805  11.286  0.00  0.00    +0.000 HD
BRANCH  11  14
ATOM     14  C   UNL     1      45.127   5.134  10.659  0.00  0.00    +0.000 A 
ATOM     15  C   UNL     1      45.314   4.741   9.344  0.00  0.00    +0.000 A 
ATOM     16  C   UNL     1      44.812   3.429   9.086  0.00  0.00    +0.000 A 
ATOM     17  C   UNL     1      44.256   2.859  10.207  0.00  0.00    +0.000 A 
ATOM     18  S   UNL     1      44.347   3.899  11.563  0.00  0.00    +0.000 S 
ENDBRANCH  11  14
ENDBRANCH   9  10
ENDBRANCH   3   9
BRANCH   6  19
ATOM     19  C   UNL     1      49.087   6.866  17.674  0.00  0.00    +0.000 C 
BRANCH  19  20
ATOM     20  N   UNL     1      50.358   6.178  17.711  0.00  0.00    +0.000 N 
ATOM     21  C   UNL     1      50.568   5.031  18.428  0.00  0.00    +0.000 C 
ATOM     22  O   UNL     1      49.744   4.579  19.217  0.00  0.00    +0.000 OA
ATOM     23  H   UNL     1      50.983   6.399  16.943  0.00  0.00    +0.000 HD
BRANCH  21  24
ATOM     24  C   UNL     1      51.860   4.362  18.219  0.00  0.00    +0.000 A 
ATOM     25  C   UNL     1      53.051   5.024  18.481  0.00  0.00    +0.000 A 
ATOM     26  S   UNL     1      54.437   4.052  18.263  0.00  0.00    +0.000 S 
ATOM     27  C   UNL     1      53.486   2.688  17.903  0.00  0.00    +0.000 A 
ATOM     28  N   UNL     1      54.046   1.457  17.757  0.00  0.00    +0.000 NA
ATOM     29  C   UNL     1      53.202   0.515  17.493  0.00  0.00    +0.000 A 
ATOM     30  N   UNL     1      51.856   0.702  17.309  0.00  0.00    +0.000 N 
ATOM     31  C   UNL     1      51.252   1.931  17.414  0.00  0.00    +0.000 A 
ATOM     32  O   UNL     1      50.063   2.077  17.155  0.00  0.00    +0.000 OA
ATOM     33  C   UNL     1      52.143   3.005  17.809  0.00  0.00    +0.000 A 
ATOM     34  H   UNL     1      51.258  -0.063  17.039  0.00  0.00    +0.000 HD
ENDBRANCH  21  24
ENDBRANCH  19  20
ENDBRANCH   6  19
TORSDOF 7
ENDMDL
MODEL 9
REMARK VINA RESULT:    -6.342      3.505      5.189
REMARK INTER + INTRA:         -10.050
REMARK INTER:                  -8.931
REMARK INTRA:                  -1.119
REMARK UNBOUND:                -1.112
REMARK  Name = 
REMARK  8 active torsions:
REMARK  status: ('A' for Active; 'I' for Inactive)
REMARK    1  A    between atoms: C_1  and  O_2
REMARK    2  A    between atoms: O_2  and  C_3
REMARK    3  A    between atoms: C_5  and  C_6
REMARK    4  A    between atoms: C_6  and  N_7
REMARK    5  A    between atoms: C_8  and  C_10
REMARK    6  A    between atoms: C_17  and  C_18
REMARK    7  A    between atoms: C_18  and  N_19
REMARK    8  A    between atoms: C_20  and  C_22
REMARK                            x       y       z     vdW  Elec       q    Type
REMARK                         _______ _______ _______ _____ _____    ______ ____
ROOT
ATOM      1  C   UNL     1      46.015   7.497  12.140  0.00  0.00    +0.000 A 
ATOM      2  C   UNL     1      45.123   6.819  11.288  0.00  0.00    +0.000 A 
ATOM      3  C   UNL     1      44.946   5.430  11.375  0.00  0.00    +0.000 A 
ATOM      4  C   UNL     1      45.656   4.724  12.350  0.00  0.00    +0.000 A 
ATOM      5  C   UNL     1      46.546   5.386  13.199  0.00  0.00    +0.000 A 
ATOM      6  C   UNL     1      46.751   6.773  13.096  0.00  0.00    +0.000 A 
ENDROOT
BRANCH   1   8
ATOM      7  C   UNL     1      45.111   9.698  12.163  0.00  0.00    +0.000 C 
ATOM      8  O   UNL     1      46.250   8.846  12.074  0.00  0.00    +0.000 OA
ENDBRANCH   1   8
BRANCH   3   9
ATOM      9  C   UNL     1      43.987   4.721  10.454  0.00  0.00    +0.000 C 
BRANCH   9  10
ATOM     10  N   UNL     1      44.658   3.704   9.685  0.00  0.00    +0.000 N 
ATOM     11  C   UNL     1      45.543   4.007   8.666  0.00  0.00    +0.000 C 
ATOM     12  O   UNL     1      45.802   5.167   8.365  0.00  0.00    +0.000 OA
ATOM     13  H   UNL     1      44.534   2.731   9.934  0.00  0.00    +0.000 HD
BRANCH  11  14
ATOM     14  C   UNL     1      46.135   2.851   7.993  0.00  0.00    +0.000 A 
ATOM     15  C   UNL     1      46.043   1.524   8.378  0.00  0.00    +0.000 A 
ATOM     16  C   UNL     1      46.757   0.647   7.505  0.00  0.00    +0.000 A 
ATOM     17  C   UNL     1      47.374   1.328   6.482  0.00  0.00    +0.000 A 
ATOM     18  S   UNL     1      47.085   3.013   6.570  0.00  0.00    +0.000 S 
ENDBRANCH  11  14
ENDBRANCH   9  10
ENDBRANCH   3   9
BRANCH   6  19
ATOM     19  C   UNL     1      47.704   7.431  14.068  0.00  0.00    +0.000 C 
BRANCH  19  20
ATOM     20  N   UNL     1      48.937   7.791  13.403  0.00  0.00    +0.000 N 
ATOM     21  C   UNL     1      49.500   9.036  13.492  0.00  0.00    +0.000 C 
ATOM     22  O   UNL     1      48.930   9.989  14.015  0.00  0.00    +0.000 OA
ATOM     23  H   UNL     1      49.521   7.006  13.137  0.00  0.00    +0.000 HD
BRANCH  21  24
ATOM     24  C   UNL     1      50.839   9.186  12.905  0.00  0.00    +0.000 A 
ATOM     25  C   UNL     1      51.932   8.535  13.458  0.00  0.00    +0.000 A 
ATOM     26  S   UNL     1      53.379   8.762  12.582  0.00  0.00    +0.000 S 
ATOM     27  C   UNL     1      52.572   9.660  11.383  0.00  0.00    +0.000 A 
ATOM     28  N   UNL     1      53.207  10.044  10.243  0.00  0.00    +0.000 NA
ATOM     29  C   UNL     1      52.468  10.713   9.421  0.00  0.00    +0.000 A 
ATOM     30  N   UNL     1      51.169  11.079   9.660  0.00  0.00    +0.000 N 
ATOM     31  C   UNL     1      50.498  10.742  10.810  0.00  0.00    +0.000 A 
ATOM     32  O   UNL     1      49.368  11.162  11.031  0.00  0.00    +0.000 OA
ATOM     33  C   UNL     1      51.253   9.904  11.721  0.00  0.00    +0.000 A 
ATOM     34  H   UNL     1      50.665  11.659   9.007  0.00  0.00    +0.000 HD
ENDBRANCH  21  24
ENDBRANCH  19  20
ENDBRANCH   6  19
TORSDOF 7
ENDMDL
