MODEL 1
REMARK VINA RESULT:    -7.022      0.000      0.000
REMARK INTER + INTRA:         -10.487
REMARK INTER:                  -9.486
REMARK INTRA:                  -1.001
REMARK UNBOUND:                -1.001
REMARK  Name = 
REMARK  6 active torsions:
REMARK  status: ('A' for Active; 'I' for Inactive)
REMARK    1  A    between atoms: C_2  and  C_20
REMARK    2  A    between atoms: N_3  and  C_4
REMARK    3  A    between atoms: C_4  and  C_5
REMARK    4  A    between atoms: C_8  and  C_9
REMARK    5  A    between atoms: C_9  and  N_10
REMARK    6  A    between atoms: C_11  and  C_13
REMARK                            x       y       z     vdW  Elec       q    Type
REMARK                         _______ _______ _______ _____ _____    ______ ____
ROOT
ATOM      1  C   UNL     1      47.290   3.425  16.582  0.00  0.00    +0.000 C 
ENDROOT
BRANCH   1   2
ATOM      2  C   UNL     1      48.672   3.726  17.108  0.00  0.00    +0.000 A 
ATOM      3  C   UNL     1      49.007   5.020  17.530  0.00  0.00    +0.000 A 
ATOM      4  C   UNL     1      50.278   5.295  18.056  0.00  0.00    +0.000 A 
ATOM      5  C   UNL     1      51.251   4.289  18.152  0.00  0.00    +0.000 A 
ATOM      6  C   UNL     1      50.917   2.999  17.715  0.00  0.00    +0.000 A 
ATOM      7  C   UNL     1      49.647   2.723  17.190  0.00  0.00    +0.000 A 
BRANCH   5   8
ATOM      8  C   UNL     1      52.633   4.592  18.679  0.00  0.00    +0.000 C 
BRANCH   8   9
ATOM      9  N   UNL     1      53.646   3.681  18.183  0.00  0.00    +0.000 N 
ATOM     10  C   UNL     1      54.209   2.745  19.031  0.00  0.00    +0.000 C 
ATOM     11  O   UNL     1      53.931   2.688  20.225  0.00  0.00    +0.000 OA
ATOM     12  H   UNL     1      53.762   3.598  17.182  0.00  0.00    +0.000 HD
BRANCH  10  13
ATOM     13  C   UNL     1      55.141   1.738  18.352  0.00  0.00    +0.000 C 
ATOM     14  C   UNL     1      54.670   1.312  16.955  0.00  0.00    +0.000 C 
ATOM     15  C   UNL     1      53.650   0.196  17.108  0.00  0.00    +0.000 C 
ATOM     16  S   UNL     1      54.272  -0.816  18.470  0.00  0.00    +0.000 S 
ATOM     17  C   UNL     1      55.344   0.469  19.172  0.00  0.00    +0.000 C 
ENDBRANCH  10  13
ENDBRANCH   8   9
ENDBRANCH   5   8
ENDBRANCH   1   2
BRANCH   1  20
ATOM     18  O   UNL     1      47.214   3.192  13.832  0.00  0.00    +0.000 OA
ATOM     19  C   UNL     1      46.743   4.210  14.333  0.00  0.00    +0.000 C 
ATOM     20  N   UNL     1      46.799   4.442  15.686  0.00  0.00    +0.000 N 
ATOM     21  H   UNL     1      46.226   5.179  16.089  0.00  0.00    +0.000 HD
BRANCH  19  22
ATOM     22  C   UNL     1      46.125   5.248  13.500  0.00  0.00    +0.000 A 
ATOM     23  C   UNL     1      46.833   6.402  13.193  0.00  0.00    +0.000 A 
ATOM     24  S   UNL     1      45.964   7.505  12.224  0.00  0.00    +0.000 S 
ATOM     25  C   UNL     1      44.626   6.456  12.139  0.00  0.00    +0.000 A 
ATOM     26  N   UNL     1      43.525   6.788  11.411  0.00  0.00    +0.000 NA
ATOM     27  C   UNL     1      42.600   5.887  11.403  0.00  0.00    +0.000 A 
ATOM     28  N   UNL     1      42.680   4.684  12.057  0.00  0.00    +0.000 N 
ATOM     29  C   UNL     1      43.758   4.323  12.834  0.00  0.00    +0.000 A 
ATOM     30  O   UNL     1      43.770   3.263  13.451  0.00  0.00    +0.000 OA
ATOM     31  C   UNL     1      44.831   5.295  12.860  0.00  0.00    +0.000 A 
ATOM     32  H   UNL     1      41.915   4.028  12.022  0.00  0.00    +0.000 HD
ENDBRANCH  19  22
ENDBRANCH   1  20
TORSDOF 6
ENDMDL
MODEL 2
REMARK VINA RESULT:    -6.819      4.062      9.530
REMARK INTER + INTRA:         -10.213
REMARK INTER:                  -9.047
REMARK INTRA:                  -1.165
REMARK UNBOUND:                -1.001
REMARK  Name = 
REMARK  6 active torsions:
REMARK  status: ('A' for Active; 'I' for Inactive)
REMARK    1  A    between atoms: C_2  and  C_20
REMARK    2  A    between atoms: N_3  and  C_4
REMARK    3  A    between atoms: C_4  and  C_5
REMARK    4  A    between atoms: C_8  and  C_9
REMARK    5  A    between atoms: C_9  and  N_10
REMARK    6  A    between atoms: C_11  and  C_13
REMARK                            x       y       z     vdW  Elec       q    Type
REMARK                         _______ _______ _______ _____ _____    ______ ____
ROOT
ATOM      1  C   UNL     1      47.394   3.692  15.422  0.00  0.00    +0.000 C 
ENDROOT
BRANCH   1   2
ATOM      2  C   UNL     1      46.841   4.318  14.165  0.00  0.00    +0.000 A 
ATOM      3  C   UNL     1      45.946   3.611  13.351  0.00  0.00    +0.000 A 
ATOM      4  C   UNL     1      45.400   4.204  12.202  0.00  0.00    +0.000 A 
ATOM      5  C   UNL     1      45.752   5.510  11.830  0.00  0.00    +0.000 A 
ATOM      6  C   UNL     1      46.658   6.210  12.639  0.00  0.00    +0.000 A 
ATOM      7  C   UNL     1      47.204   5.618  13.787  0.00  0.00    +0.000 A 
BRANCH   5   8
ATOM      8  C   UNL     1      45.198   6.136  10.573  0.00  0.00    +0.000 C 
BRANCH   8   9
ATOM      9  N   UNL     1      44.753   5.160   9.597  0.00  0.00    +0.000 N 
ATOM     10  C   UNL     1      45.591   4.785   8.563  0.00  0.00    +0.000 C 
ATOM     11  O   UNL     1      46.694   5.295   8.392  0.00  0.00    +0.000 OA
ATOM     12  H   UNL     1      43.932   4.611   9.814  0.00  0.00    +0.000 HD
BRANCH  10  13
ATOM     13  C   UNL     1      45.073   3.632   7.699  0.00  0.00    +0.000 C 
ATOM     14  C   UNL     1      44.626   2.410   8.512  0.00  0.00    +0.000 C 
ATOM     15  C   UNL     1      45.849   1.565   8.826  0.00  0.00    +0.000 C 
ATOM     16  S   UNL     1      46.863   1.644   7.332  0.00  0.00    +0.000 S 
ATOM     17  C   UNL     1      46.094   3.151   6.674  0.00  0.00    +0.000 C 
ENDBRANCH  10  13
ENDBRANCH   8   9
ENDBRANCH   5   8
ENDBRANCH   1   2
BRANCH   1  20
ATOM     18  O   UNL     1      49.637   3.254  16.971  0.00  0.00    +0.000 OA
ATOM     19  C   UNL     1      49.128   4.372  17.005  0.00  0.00    +0.000 C 
ATOM     20  N   UNL     1      47.971   4.661  16.321  0.00  0.00    +0.000 N 
ATOM     21  H   UNL     1      47.693   5.631  16.200  0.00  0.00    +0.000 HD
BRANCH  19  22
ATOM     22  C   UNL     1      49.716   5.449  17.811  0.00  0.00    +0.000 A 
ATOM     23  C   UNL     1      51.056   5.776  17.654  0.00  0.00    +0.000 A 
ATOM     24  S   UNL     1      51.577   7.042  18.672  0.00  0.00    +0.000 S 
ATOM     25  C   UNL     1      50.016   7.232  19.322  0.00  0.00    +0.000 A 
ATOM     26  N   UNL     1      49.757   8.199  20.245  0.00  0.00    +0.000 NA
ATOM     27  C   UNL     1      48.525   8.255  20.627  0.00  0.00    +0.000 A 
ATOM     28  N   UNL     1      47.530   7.432  20.166  0.00  0.00    +0.000 N 
ATOM     29  C   UNL     1      47.752   6.418  19.262  0.00  0.00    +0.000 A 
ATOM     30  O   UNL     1      46.849   5.665  18.916  0.00  0.00    +0.000 OA
ATOM     31  C   UNL     1      49.119   6.326  18.790  0.00  0.00    +0.000 A 
ATOM     32  H   UNL     1      46.588   7.519  20.516  0.00  0.00    +0.000 HD
ENDBRANCH  19  22
ENDBRANCH   1  20
TORSDOF 6
ENDMDL
MODEL 3
REMARK VINA RESULT:    -6.663      1.959      2.643
REMARK INTER + INTRA:         -10.002
REMARK INTER:                  -8.977
REMARK INTRA:                  -1.025
REMARK UNBOUND:                -1.001
REMARK  Name = 
REMARK  6 active torsions:
REMARK  status: ('A' for Active; 'I' for Inactive)
REMARK    1  A    between atoms: C_2  and  C_20
REMARK    2  A    between atoms: N_3  and  C_4
REMARK    3  A    between atoms: C_4  and  C_5
REMARK    4  A    between atoms: C_8  and  C_9
REMARK    5  A    between atoms: C_9  and  N_10
REMARK    6  A    between atoms: C_11  and  C_13
REMARK                            x       y       z     vdW  Elec       q    Type
REMARK                         _______ _______ _______ _____ _____    ______ ____
ROOT
ATOM      1  C   UNL     1      49.099   7.784  15.350  0.00  0.00    +0.000 C 
ENDROOT
BRANCH   1   2
ATOM      2  C   UNL     1      49.539   6.616  16.198  0.00  0.00    +0.000 A 
ATOM      3  C   UNL     1      50.898   6.400  16.464  0.00  0.00    +0.000 A 
ATOM      4  C   UNL     1      51.308   5.337  17.283  0.00  0.00    +0.000 A 
ATOM      5  C   UNL     1      50.371   4.453  17.838  0.00  0.00    +0.000 A 
ATOM      6  C   UNL     1      49.013   4.664  17.559  0.00  0.00    +0.000 A 
ATOM      7  C   UNL     1      48.603   5.725  16.740  0.00  0.00    +0.000 A 
BRANCH   5   8
ATOM      8  C   UNL     1      50.812   3.285  18.687  0.00  0.00    +0.000 C 
BRANCH   8   9
ATOM      9  N   UNL     1      52.169   2.857  18.409  0.00  0.00    +0.000 N 
ATOM     10  C   UNL     1      52.395   1.699  17.687  0.00  0.00    +0.000 C 
ATOM     11  O   UNL     1      51.482   0.968  17.315  0.00  0.00    +0.000 OA
ATOM     12  H   UNL     1      52.917   3.522  18.554  0.00  0.00    +0.000 HD
BRANCH  10  13
ATOM     13  C   UNL     1      53.858   1.444  17.319  0.00  0.00    +0.000 C 
ATOM     14  C   UNL     1      54.174  -0.032  17.043  0.00  0.00    +0.000 C 
ATOM     15  C   UNL     1      54.434  -0.726  18.369  0.00  0.00    +0.000 C 
ATOM     16  S   UNL     1      55.351   0.481  19.352  0.00  0.00    +0.000 S 
ATOM     17  C   UNL     1      54.833   1.927  18.386  0.00  0.00    +0.000 C 
ENDBRANCH  10  13
ENDBRANCH   8   9
ENDBRANCH   5   8
ENDBRANCH   1   2
BRANCH   1  20
ATOM     18  O   UNL     1      49.027   6.488  12.913  0.00  0.00    +0.000 OA
ATOM     19  C   UNL     1      47.956   6.803  13.426  0.00  0.00    +0.000 C 
ATOM     20  N   UNL     1      47.897   7.510  14.603  0.00  0.00    +0.000 N 
ATOM     21  H   UNL     1      47.014   7.572  15.103  0.00  0.00    +0.000 HD
BRANCH  19  22
ATOM     22  C   UNL     1      46.680   6.464  12.783  0.00  0.00    +0.000 A 
ATOM     23  C   UNL     1      45.945   7.451  12.142  0.00  0.00    +0.000 A 
ATOM     24  S   UNL     1      44.487   6.888  11.458  0.00  0.00    +0.000 S 
ATOM     25  C   UNL     1      44.811   5.292  11.953  0.00  0.00    +0.000 A 
ATOM     26  N   UNL     1      43.956   4.279  11.643  0.00  0.00    +0.000 NA
ATOM     27  C   UNL     1      44.341   3.114  12.048  0.00  0.00    +0.000 A 
ATOM     28  N   UNL     1      45.505   2.875  12.733  0.00  0.00    +0.000 N 
ATOM     29  C   UNL     1      46.380   3.873  13.098  0.00  0.00    +0.000 A 
ATOM     30  O   UNL     1      47.383   3.628  13.759  0.00  0.00    +0.000 OA
ATOM     31  C   UNL     1      46.000   5.197  12.650  0.00  0.00    +0.000 A 
ATOM     32  H   UNL     1      45.742   1.942  13.033  0.00  0.00    +0.000 HD
ENDBRANCH  19  22
ENDBRANCH   1  20
TORSDOF 6
ENDMDL
MODEL 4
REMARK VINA RESULT:    -6.619      6.986      7.897
REMARK INTER + INTRA:          -9.943
REMARK INTER:                  -8.954
REMARK INTRA:                  -0.989
REMARK UNBOUND:                -1.001
REMARK  Name = 
REMARK  6 active torsions:
REMARK  status: ('A' for Active; 'I' for Inactive)
REMARK    1  A    between atoms: C_2  and  C_20
REMARK    2  A    between atoms: N_3  and  C_4
REMARK    3  A    between atoms: C_4  and  C_5
REMARK    4  A    between atoms: C_8  and  C_9
REMARK    5  A    between atoms: C_9  and  N_10
REMARK    6  A    between atoms: C_11  and  C_13
REMARK                            x       y       z     vdW  Elec       q    Type
REMARK                         _______ _______ _______ _____ _____    ______ ____
ROOT
ATOM      1  C   UNL     1      46.461   8.200  12.697  0.00  0.00    +0.000 C 
ENDROOT
BRANCH   1   2
ATOM      2  C   UNL     1      47.868   8.416  12.195  0.00  0.00    +0.000 A 
ATOM      3  C   UNL     1      48.316   9.701  11.860  0.00  0.00    +0.000 A 
ATOM      4  C   UNL     1      49.636   9.910  11.431  0.00  0.00    +0.000 A 
ATOM      5  C   UNL     1      50.531   8.838  11.306  0.00  0.00    +0.000 A 
ATOM      6  C   UNL     1      50.076   7.552  11.629  0.00  0.00    +0.000 A 
ATOM      7  C   UNL     1      48.758   7.341  12.058  0.00  0.00    +0.000 A 
BRANCH   5   8
ATOM      8  C   UNL     1      51.939   9.055  10.805  0.00  0.00    +0.000 C 
BRANCH   8   9
ATOM      9  N   UNL     1      52.283   8.205   9.683  0.00  0.00    +0.000 N 
ATOM     10  C   UNL     1      53.258   7.233   9.823  0.00  0.00    +0.000 C 
ATOM     11  O   UNL     1      53.902   7.094  10.858  0.00  0.00    +0.000 OA
ATOM     12  H   UNL     1      51.656   8.189   8.889  0.00  0.00    +0.000 HD
BRANCH  10  13
ATOM     13  C   UNL     1      53.412   6.297   8.622  0.00  0.00    +0.000 C 
ATOM     14  C   UNL     1      54.863   6.143   8.147  0.00  0.00    +0.000 C 
ATOM     15  C   UNL     1      55.197   7.305   7.227  0.00  0.00    +0.000 C 
ATOM     16  S   UNL     1      53.694   7.577   6.261  0.00  0.00    +0.000 S 
ATOM     17  C   UNL     1      52.582   6.731   7.419  0.00  0.00    +0.000 C 
ENDBRANCH  10  13
ENDBRANCH   8   9
ENDBRANCH   5   8
ENDBRANCH   1   2
BRANCH   1  20
ATOM     18  O   UNL     1      44.161   7.522  11.329  0.00  0.00    +0.000 OA
ATOM     19  C   UNL     1      44.870   6.609  11.743  0.00  0.00    +0.000 C 
ATOM     20  N   UNL     1      45.997   6.850  12.492  0.00  0.00    +0.000 N 
ATOM     21  H   UNL     1      46.667   6.100  12.640  0.00  0.00    +0.000 HD
BRANCH  19  22
ATOM     22  C   UNL     1      44.527   5.205  11.484  0.00  0.00    +0.000 A 
ATOM     23  C   UNL     1      43.746   4.505  12.393  0.00  0.00    +0.000 A 
ATOM     24  S   UNL     1      43.450   2.886  11.941  0.00  0.00    +0.000 S 
ATOM     25  C   UNL     1      44.314   3.080  10.487  0.00  0.00    +0.000 A 
ATOM     26  N   UNL     1      44.414   2.057   9.594  0.00  0.00    +0.000 NA
ATOM     27  C   UNL     1      45.067   2.351   8.519  0.00  0.00    +0.000 A 
ATOM     28  N   UNL     1      45.624   3.576   8.258  0.00  0.00    +0.000 N 
ATOM     29  C   UNL     1      45.578   4.627   9.147  0.00  0.00    +0.000 A 
ATOM     30  O   UNL     1      46.137   5.690   8.903  0.00  0.00    +0.000 OA
ATOM     31  C   UNL     1      44.841   4.351  10.363  0.00  0.00    +0.000 A 
ATOM     32  H   UNL     1      46.133   3.737   7.403  0.00  0.00    +0.000 HD
ENDBRANCH  19  22
ENDBRANCH   1  20
TORSDOF 6
ENDMDL
MODEL 5
REMARK VINA RESULT:    -6.450      3.859      5.362
REMARK INTER + INTRA:          -9.713
REMARK INTER:                  -8.438
REMARK INTRA:                  -1.275
REMARK UNBOUND:                -1.001
REMARK  Name = 
REMARK  6 active torsions:
REMARK  status: ('A' for Active; 'I' for Inactive)
REMARK    1  A    between atoms: C_2  and  C_20
REMARK    2  A    between atoms: N_3  and  C_4
REMARK    3  A    between atoms: C_4  and  C_5
REMARK    4  A    between atoms: C_8  and  C_9
REMARK    5  A    between atoms: C_9  and  N_10
REMARK    6  A    between atoms: C_11  and  C_13
REMARK                            x       y       z     vdW  Elec       q    Type
REMARK                         _______ _______ _______ _____ _____    ______ ____
ROOT
ATOM      1  C   UNL     1      47.500   7.836  11.865  0.00  0.00    +0.000 C 
ENDROOT
BRANCH   1   2
ATOM      2  C   UNL     1      48.165   7.995  13.210  0.00  0.00    +0.000 A 
ATOM      3  C   UNL     1      49.297   7.237  13.540  0.00  0.00    +0.000 A 
ATOM      4  C   UNL     1      49.941   7.410  14.775  0.00  0.00    +0.000 A 
ATOM      5  C   UNL     1      49.455   8.329  15.717  0.00  0.00    +0.000 A 
ATOM      6  C   UNL     1      48.315   9.076  15.390  0.00  0.00    +0.000 A 
ATOM      7  C   UNL     1      47.671   8.903  14.156  0.00  0.00    +0.000 A 
BRANCH   5   8
ATOM      8  C   UNL     1      50.122   8.488  17.062  0.00  0.00    +0.000 C 
BRANCH   8   9
ATOM      9  N   UNL     1      50.447   7.223  17.691  0.00  0.00    +0.000 N 
ATOM     10  C   UNL     1      49.484   6.541  18.413  0.00  0.00    +0.000 C 
ATOM     11  O   UNL     1      48.359   6.995  18.601  0.00  0.00    +0.000 OA
ATOM     12  H   UNL     1      51.299   6.757  17.410  0.00  0.00    +0.000 HD
BRANCH  10  13
ATOM     13  C   UNL     1      49.900   5.147  18.886  0.00  0.00    +0.000 C 
ATOM     14  C   UNL     1      50.528   4.286  17.783  0.00  0.00    +0.000 C 
ATOM     15  C   UNL     1      49.412   3.632  16.985  0.00  0.00    +0.000 C 
ATOM     16  S   UNL     1      48.161   3.193  18.214  0.00  0.00    +0.000 S 
ATOM     17  C   UNL     1      48.744   4.351  19.483  0.00  0.00    +0.000 C 
ENDBRANCH  10  13
ENDBRANCH   8   9
ENDBRANCH   5   8
ENDBRANCH   1   2
BRANCH   1  20
ATOM     18  O   UNL     1      44.776   7.428  12.059  0.00  0.00    +0.000 OA
ATOM     19  C   UNL     1      45.479   6.465  11.764  0.00  0.00    +0.000 C 
ATOM     20  N   UNL     1      46.849   6.558  11.712  0.00  0.00    +0.000 N 
ATOM     21  H   UNL     1      47.383   5.815  11.268  0.00  0.00    +0.000 HD
BRANCH  19  22
ATOM     22  C   UNL     1      44.886   5.152  11.484  0.00  0.00    +0.000 A 
ATOM     23  C   UNL     1      44.102   4.528  12.444  0.00  0.00    +0.000 A 
ATOM     24  S   UNL     1      43.500   3.007  11.958  0.00  0.00    +0.000 S 
ATOM     25  C   UNL     1      44.226   3.152  10.425  0.00  0.00    +0.000 A 
ATOM     26  N   UNL     1      44.064   2.183   9.483  0.00  0.00    +0.000 NA
ATOM     27  C   UNL     1      44.638   2.436   8.354  0.00  0.00    +0.000 A 
ATOM     28  N   UNL     1      45.357   3.573   8.085  0.00  0.00    +0.000 N 
ATOM     29  C   UNL     1      45.577   4.560   9.019  0.00  0.00    +0.000 A 
ATOM     30  O   UNL     1      46.272   5.536   8.760  0.00  0.00    +0.000 OA
ATOM     31  C   UNL     1      44.937   4.329  10.298  0.00  0.00    +0.000 A 
ATOM     32  H   UNL     1      45.792   3.705   7.185  0.00  0.00    +0.000 HD
ENDBRANCH  19  22
ENDBRANCH   1  20
TORSDOF 6
ENDMDL
MODEL 6
REMARK VINA RESULT:    -6.424      3.879      9.207
REMARK INTER + INTRA:          -9.678
REMARK INTER:                  -8.497
REMARK INTRA:                  -1.181
REMARK UNBOUND:                -1.001
REMARK  Name = 
REMARK  6 active torsions:
REMARK  status: ('A' for Active; 'I' for Inactive)
REMARK    1  A    between atoms: C_2  and  C_20
REMARK    2  A    between atoms: N_3  and  C_4
REMARK    3  A    between atoms: C_4  and  C_5
REMARK    4  A    between atoms: C_8  and  C_9
REMARK    5  A    between atoms: C_9  and  N_10
REMARK    6  A    between atoms: C_11  and  C_13
REMARK                            x       y       z     vdW  Elec       q    Type
REMARK                         _______ _______ _______ _____ _____    ______ ____
ROOT
ATOM      1  C   UNL     1      50.049   8.035  13.872  0.00  0.00    +0.000 C 
ENDROOT
BRANCH   1   2
ATOM      2  C   UNL     1      48.689   8.079  13.220  0.00  0.00    +0.000 A 
ATOM      3  C   UNL     1      48.287   7.064  12.340  0.00  0.00    +0.000 A 
ATOM      4  C   UNL     1      47.008   7.082  11.762  0.00  0.00    +0.000 A 
ATOM      5  C   UNL     1      46.110   8.125  12.033  0.00  0.00    +0.000 A 
ATOM      6  C   UNL     1      46.521   9.146  12.902  0.00  0.00    +0.000 A 
ATOM      7  C   UNL     1      47.798   9.129  13.480  0.00  0.00    +0.000 A 
BRANCH   5   8
ATOM      8  C   UNL     1      44.750   8.168  11.381  0.00  0.00    +0.000 C 
BRANCH   8   9
ATOM      9  N   UNL     1      44.286   6.867  10.940  0.00  0.00    +0.000 N 
ATOM     10  C   UNL     1      43.812   5.952  11.862  0.00  0.00    +0.000 C 
ATOM     11  O   UNL     1      43.823   6.171  13.070  0.00  0.00    +0.000 OA
ATOM     12  H   UNL     1      44.112   6.734   9.952  0.00  0.00    +0.000 HD
BRANCH  10  13
ATOM     13  C   UNL     1      43.202   4.685  11.258  0.00  0.00    +0.000 C 
ATOM     14  C   UNL     1      43.385   3.439  12.133  0.00  0.00    +0.000 C 
ATOM     15  C   UNL     1      44.760   2.852  11.858  0.00  0.00    +0.000 C 
ATOM     16  S   UNL     1      45.001   3.053  10.078  0.00  0.00    +0.000 S 
ATOM     17  C   UNL     1      43.756   4.358   9.876  0.00  0.00    +0.000 C 
ENDBRANCH  10  13
ENDBRANCH   8   9
ENDBRANCH   5   8
ENDBRANCH   1   2
BRANCH   1  20
ATOM     18  O   UNL     1      49.363   8.471  16.510  0.00  0.00    +0.000 OA
ATOM     19  C   UNL     1      49.712   7.337  16.190  0.00  0.00    +0.000 C 
ATOM     20  N   UNL     1      50.136   7.044  14.916  0.00  0.00    +0.000 N 
ATOM     21  H   UNL     1      50.217   6.072  14.629  0.00  0.00    +0.000 HD
BRANCH  19  22
ATOM     22  C   UNL     1      49.724   6.243  17.168  0.00  0.00    +0.000 A 
ATOM     23  C   UNL     1      50.532   6.330  18.293  0.00  0.00    +0.000 A 
ATOM     24  S   UNL     1      50.431   4.970  19.319  0.00  0.00    +0.000 S 
ATOM     25  C   UNL     1      49.264   4.238  18.319  0.00  0.00    +0.000 A 
ATOM     26  N   UNL     1      48.713   3.039  18.653  0.00  0.00    +0.000 NA
ATOM     27  C   UNL     1      47.816   2.616  17.826  0.00  0.00    +0.000 A 
ATOM     28  N   UNL     1      47.420   3.287  16.698  0.00  0.00    +0.000 N 
ATOM     29  C   UNL     1      47.976   4.483  16.302  0.00  0.00    +0.000 A 
ATOM     30  O   UNL     1      47.638   5.026  15.256  0.00  0.00    +0.000 OA
ATOM     31  C   UNL     1      48.977   5.008  17.209  0.00  0.00    +0.000 A 
ATOM     32  H   UNL     1      46.722   2.895  16.084  0.00  0.00    +0.000 HD
ENDBRANCH  19  22
ENDBRANCH   1  20
TORSDOF 6
ENDMDL
MODEL 7
REMARK VINA RESULT:    -6.408      2.733      9.800
REMARK INTER + INTRA:          -9.657
REMARK INTER:                  -8.695
REMARK INTRA:                  -0.962
REMARK UNBOUND:                -1.001
REMARK  Name = 
REMARK  6 active torsions:
REMARK  status: ('A' for Active; 'I' for Inactive)
REMARK    1  A    between atoms: C_2  and  C_20
REMARK    2  A    between atoms: N_3  and  C_4
REMARK    3  A    between atoms: C_4  and  C_5
REMARK    4  A    between atoms: C_8  and  C_9
REMARK    5  A    between atoms: C_9  and  N_10
REMARK    6  A    between atoms: C_11  and  C_13
REMARK                            x       y       z     vdW  Elec       q    Type
REMARK                         _______ _______ _______ _____ _____    ______ ____
ROOT
ATOM      1  C   UNL     1      49.181   6.986  16.822  0.00  0.00    +0.000 C 
ENDROOT
BRANCH   1   2
ATOM      2  C   UNL     1      48.618   6.902  15.424  0.00  0.00    +0.000 A 
ATOM      3  C   UNL     1      48.769   7.969  14.529  0.00  0.00    +0.000 A 
ATOM      4  C   UNL     1      48.281   7.879  13.217  0.00  0.00    +0.000 A 
ATOM      5  C   UNL     1      47.611   6.728  12.775  0.00  0.00    +0.000 A 
ATOM      6  C   UNL     1      47.450   5.667  13.678  0.00  0.00    +0.000 A 
ATOM      7  C   UNL     1      47.937   5.757  14.989  0.00  0.00    +0.000 A 
BRANCH   5   8
ATOM      8  C   UNL     1      47.049   6.644  11.377  0.00  0.00    +0.000 C 
BRANCH   8   9
ATOM      9  N   UNL     1      45.800   5.911  11.307  0.00  0.00    +0.000 N 
ATOM     10  C   UNL     1      44.596   6.591  11.338  0.00  0.00    +0.000 C 
ATOM     11  O   UNL     1      44.532   7.808  11.488  0.00  0.00    +0.000 OA
ATOM     12  H   UNL     1      45.833   4.943  11.015  0.00  0.00    +0.000 HD
BRANCH  10  13
ATOM     13  C   UNL     1      43.359   5.724  11.091  0.00  0.00    +0.000 C 
ATOM     14  C   UNL     1      42.613   5.340  12.375  0.00  0.00    +0.000 C 
ATOM     15  C   UNL     1      43.290   4.122  12.982  0.00  0.00    +0.000 C 
ATOM     16  S   UNL     1      43.748   3.095  11.568  0.00  0.00    +0.000 S 
ATOM     17  C   UNL     1      43.677   4.434  10.344  0.00  0.00    +0.000 C 
ENDBRANCH  10  13
ENDBRANCH   8   9
ENDBRANCH   5   8
ENDBRANCH   1   2
BRANCH   1  20
ATOM     18  O   UNL     1      50.367   6.528  19.273  0.00  0.00    +0.000 OA
ATOM     19  C   UNL     1      50.727   5.835  18.325  0.00  0.00    +0.000 C 
ATOM     20  N   UNL     1      50.242   6.038  17.055  0.00  0.00    +0.000 N 
ATOM     21  H   UNL     1      50.395   5.328  16.343  0.00  0.00    +0.000 HD
BRANCH  19  22
ATOM     22  C   UNL     1      51.724   4.772  18.499  0.00  0.00    +0.000 A 
ATOM     23  C   UNL     1      52.894   5.029  19.201  0.00  0.00    +0.000 A 
ATOM     24  S   UNL     1      53.944   3.688  19.301  0.00  0.00    +0.000 S 
ATOM     25  C   UNL     1      52.848   2.701  18.451  0.00  0.00    +0.000 A 
ATOM     26  N   UNL     1      53.126   1.388  18.222  0.00  0.00    +0.000 NA
ATOM     27  C   UNL     1      52.194   0.748  17.598  0.00  0.00    +0.000 A 
ATOM     28  N   UNL     1      51.011   1.304  17.185  0.00  0.00    +0.000 N 
ATOM     29  C   UNL     1      50.704   2.634  17.363  0.00  0.00    +0.000 A 
ATOM     30  O   UNL     1      49.660   3.109  16.930  0.00  0.00    +0.000 OA
ATOM     31  C   UNL     1      51.713   3.392  18.075  0.00  0.00    +0.000 A 
ATOM     32  H   UNL     1      50.328   0.751  16.689  0.00  0.00    +0.000 HD
ENDBRANCH  19  22
ENDBRANCH   1  20
TORSDOF 6
ENDMDL
MODEL 8
REMARK VINA RESULT:    -6.400      5.183      9.516
REMARK INTER + INTRA:          -9.646
REMARK INTER:                  -9.098
REMARK INTRA:                  -0.548
REMARK UNBOUND:                -1.001
REMARK  Name = 
REMARK  6 active torsions:
REMARK  status: ('A' for Active; 'I' for Inactive)
REMARK    1  A    between atoms: C_2  and  C_20
REMARK    2  A    between atoms: N_3  and  C_4
REMARK    3  A    between atoms: C_4  and  C_5
REMARK    4  A    between atoms: C_8  and  C_9
REMARK    5  A    between atoms: C_9  and  N_10
REMARK    6  A    between atoms: C_11  and  C_13
REMARK                            x       y       z     vdW  Elec       q    Type
REMARK                         _______ _______ _______ _____ _____    ______ ____
ROOT
ATOM      1  C   UNL     1      48.126   7.570  13.662  0.00  0.00    +0.000 C 
ENDROOT
BRANCH   1   2
ATOM      2  C   UNL     1      46.919   6.805  13.177  0.00  0.00    +0.000 A 
ATOM      3  C   UNL     1      46.605   5.551  13.718  0.00  0.00    +0.000 A 
ATOM      4  C   UNL     1      45.462   4.854  13.298  0.00  0.00    +0.000 A 
ATOM      5  C   UNL     1      44.618   5.386  12.311  0.00  0.00    +0.000 A 
ATOM      6  C   UNL     1      44.942   6.634  11.762  0.00  0.00    +0.000 A 
ATOM      7  C   UNL     1      46.084   7.331  12.182  0.00  0.00    +0.000 A 
BRANCH   5   8
ATOM      8  C   UNL     1      43.410   4.620  11.828  0.00  0.00    +0.000 C 
BRANCH   8   9
ATOM      9  N   UNL     1      43.533   4.166  10.457  0.00  0.00    +0.000 N 
ATOM     10  C   UNL     1      44.421   3.154  10.140  0.00  0.00    +0.000 C 
ATOM     11  O   UNL     1      45.170   2.653  10.972  0.00  0.00    +0.000 OA
ATOM     12  H   UNL     1      42.815   4.440   9.799  0.00  0.00    +0.000 HD
BRANCH  10  13
ATOM     13  C   UNL     1      44.339   2.653   8.696  0.00  0.00    +0.000 C 
ATOM     14  C   UNL     1      45.174   1.393   8.435  0.00  0.00    +0.000 C 
ATOM     15  C   UNL     1      46.608   1.811   8.160  0.00  0.00    +0.000 C 
ATOM     16  S   UNL     1      46.470   3.322   7.178  0.00  0.00    +0.000 S 
ATOM     17  C   UNL     1      44.767   3.703   7.677  0.00  0.00    +0.000 C 
ENDBRANCH  10  13
ENDBRANCH   8   9
ENDBRANCH   5   8
ENDBRANCH   1   2
BRANCH   1  20
ATOM     18  O   UNL     1      49.613   6.235  15.567  0.00  0.00    +0.000 OA
ATOM     19  C   UNL     1      48.907   7.168  15.943  0.00  0.00    +0.000 C 
ATOM     20  N   UNL     1      48.082   7.845  15.076  0.00  0.00    +0.000 N 
ATOM     21  H   UNL     1      47.675   8.730  15.366  0.00  0.00    +0.000 HD
BRANCH  19  22
ATOM     22  C   UNL     1      48.887   7.584  17.350  0.00  0.00    +0.000 A 
ATOM     23  C   UNL     1      49.472   8.786  17.724  0.00  0.00    +0.000 A 
ATOM     24  S   UNL     1      49.366   9.111  19.396  0.00  0.00    +0.000 S 
ATOM     25  C   UNL     1      48.488   7.679  19.671  0.00  0.00    +0.000 A 
ATOM     26  N   UNL     1      48.041   7.364  20.918  0.00  0.00    +0.000 NA
ATOM     27  C   UNL     1      47.360   6.269  20.979  0.00  0.00    +0.000 A 
ATOM     28  N   UNL     1      47.084   5.464  19.903  0.00  0.00    +0.000 N 
ATOM     29  C   UNL     1      47.546   5.724  18.632  0.00  0.00    +0.000 A 
ATOM     30  O   UNL     1      47.328   4.951  17.706  0.00  0.00    +0.000 OA
ATOM     31  C   UNL     1      48.303   6.953  18.510  0.00  0.00    +0.000 A 
ATOM     32  H   UNL     1      46.556   4.612  20.020  0.00  0.00    +0.000 HD
ENDBRANCH  19  22
ENDBRANCH   1  20
TORSDOF 6
ENDMDL
