MODEL 1
REMARK VINA RESULT:    -8.962      0.000      0.000
REMARK INTER + INTRA:         -12.033
REMARK INTER:                 -11.582
REMARK INTRA:                  -0.451
REMARK UNBOUND:                -0.451
REMARK  Name = 
REMARK  6 active torsions:
REMARK  status: ('A' for Active; 'I' for Inactive)
REMARK    1  A    between atoms: C_1  and  C_2
REMARK    2  A    between atoms: C_7  and  C_8
REMARK    3  A    between atoms: C_10  and  C_11
REMARK    4  A    between atoms: C_11  and  C_12
REMARK    5  A    between atoms: C_12  and  N_13
REMARK    6  A    between atoms: C_17  and  C_18
REMARK                            x       y       z     vdW  Elec       q    Type
REMARK                         _______ _______ _______ _____ _____    ______ ____
ROOT
ATOM      1  C   UNL     1      46.684   6.846  12.791  0.00  0.00    +0.000 A 
ATOM      2  C   UNL     1      45.429   6.435  12.296  0.00  0.00    +0.000 A 
ATOM      3  C   UNL     1      44.752   5.338  12.828  0.00  0.00    +0.000 A 
ATOM      4  N   UNL     1      45.315   4.526  13.742  0.00  0.00    +0.000 NA
ATOM      5  C   UNL     1      46.553   4.856  14.167  0.00  0.00    +0.000 A 
ATOM      6  C   UNL     1      47.250   5.997  13.768  0.00  0.00    +0.000 A 
ATOM      7 CL   UNL     1      48.752   6.278  14.579  0.00  0.00    +0.000 Cl
ENDROOT
BRANCH   1  14
ATOM      8  C   UNL     1      45.210   9.601  12.560  0.00  0.00    +0.000 C 
ATOM      9  C   UNL     1      46.647   9.365  12.186  0.00  0.00    +0.000 A 
ATOM     10  N   UNL     1      47.243  10.500  11.720  0.00  0.00    +0.000 NA
ATOM     11  C   UNL     1      48.535  10.446  11.357  0.00  0.00    +0.000 A 
ATOM     12  C   UNL     1      49.276   9.290  11.404  0.00  0.00    +0.000 A 
ATOM     13  C   UNL     1      48.647   8.123  11.837  0.00  0.00    +0.000 A 
ATOM     14  C   UNL     1      47.307   8.113  12.280  0.00  0.00    +0.000 A 
ENDBRANCH   1  14
BRANCH   3  15
ATOM     15  C   UNL     1      43.324   5.055  12.433  0.00  0.00    +0.000 C 
BRANCH  15  16
ATOM     16  C   UNL     1      43.271   4.042  11.299  0.00  0.00    +0.000 C 
BRANCH  16  17
ATOM     17  N   UNL     1      43.614   4.669  10.029  0.00  0.00    +0.000 N 
ATOM     18  C   UNL     1      44.493   3.904   9.274  0.00  0.00    +0.000 A 
ATOM     19  N   UNL     1      44.499   2.570   9.402  0.00  0.00    +0.000 NA
ATOM     20  C   UNL     1      45.389   1.871   8.683  0.00  0.00    +0.000 A 
ATOM     21  C   UNL     1      46.290   2.455   7.827  0.00  0.00    +0.000 A 
ATOM     22  C   UNL     1      46.208   3.825   7.753  0.00  0.00    +0.000 A 
ATOM     23  N   UNL     1      45.334   4.567   8.469  0.00  0.00    +0.000 NA
ATOM     24  H   UNL     1      44.016   5.596  10.070  0.00  0.00    +0.000 HD
BRANCH  21  25
ATOM     25  C   UNL     1      47.275   1.665   7.057  0.00  0.00    +0.000 C 
ATOM     26  F   UNL     1      48.508   2.240   7.003  0.00  0.00    +0.000 F 
ATOM     27  F   UNL     1      47.465   0.421   7.574  0.00  0.00    +0.000 F 
ATOM     28  F   UNL     1      46.896   1.479   5.763  0.00  0.00    +0.000 F 
ENDBRANCH  21  25
ENDBRANCH  16  17
ENDBRANCH  15  16
ENDBRANCH   3  15
TORSDOF 5
ENDMDL
MODEL 2
REMARK VINA RESULT:    -8.913      1.785      2.258
REMARK INTER + INTRA:         -11.969
REMARK INTER:                 -10.973
REMARK INTRA:                  -0.996
REMARK UNBOUND:                -0.451
REMARK  Name = 
REMARK  6 active torsions:
REMARK  status: ('A' for Active; 'I' for Inactive)
REMARK    1  A    between atoms: C_1  and  C_2
REMARK    2  A    between atoms: C_7  and  C_8
REMARK    3  A    between atoms: C_10  and  C_11
REMARK    4  A    between atoms: C_11  and  C_12
REMARK    5  A    between atoms: C_12  and  N_13
REMARK    6  A    between atoms: C_17  and  C_18
REMARK                            x       y       z     vdW  Elec       q    Type
REMARK                         _______ _______ _______ _____ _____    ______ ____
ROOT
ATOM      1  C   UNL     1      46.826   6.652  12.762  0.00  0.00    +0.000 A 
ATOM      2  C   UNL     1      46.613   5.260  12.708  0.00  0.00    +0.000 A 
ATOM      3  C   UNL     1      45.333   4.714  12.605  0.00  0.00    +0.000 A 
ATOM      4  N   UNL     1      44.225   5.473  12.695  0.00  0.00    +0.000 NA
ATOM      5  C   UNL     1      44.409   6.803  12.834  0.00  0.00    +0.000 A 
ATOM      6  C   UNL     1      45.653   7.436  12.831  0.00  0.00    +0.000 A 
ATOM      7 CL   UNL     1      45.613   9.165  12.862  0.00  0.00    +0.000 Cl
ENDROOT
BRANCH   1  14
ATOM      8  C   UNL     1      48.720   6.859  15.250  0.00  0.00    +0.000 C 
ATOM      9  C   UNL     1      49.092   7.275  13.854  0.00  0.00    +0.000 A 
ATOM     10  N   UNL     1      50.363   7.768  13.793  0.00  0.00    +0.000 NA
ATOM     11  C   UNL     1      50.840   8.171  12.604  0.00  0.00    +0.000 A 
ATOM     12  C   UNL     1      50.095   8.138  11.450  0.00  0.00    +0.000 A 
ATOM     13  C   UNL     1      48.782   7.677  11.529  0.00  0.00    +0.000 A 
ATOM     14  C   UNL     1      48.227   7.192  12.733  0.00  0.00    +0.000 A 
ENDBRANCH   1  14
BRANCH   3  15
ATOM     15  C   UNL     1      45.147   3.244  12.329  0.00  0.00    +0.000 C 
BRANCH  15  16
ATOM     16  C   UNL     1      43.865   3.001  11.547  0.00  0.00    +0.000 C 
BRANCH  16  17
ATOM     17  N   UNL     1      43.810   3.853  10.367  0.00  0.00    +0.000 N 
ATOM     18  C   UNL     1      44.682   3.442   9.368  0.00  0.00    +0.000 A 
ATOM     19  N   UNL     1      45.019   2.149   9.264  0.00  0.00    +0.000 NA
ATOM     20  C   UNL     1      45.894   1.800   8.310  0.00  0.00    +0.000 A 
ATOM     21  C   UNL     1      46.460   2.700   7.441  0.00  0.00    +0.000 A 
ATOM     22  C   UNL     1      46.053   4.002   7.615  0.00  0.00    +0.000 A 
ATOM     23  N   UNL     1      45.181   4.397   8.571  0.00  0.00    +0.000 NA
ATOM     24  H   UNL     1      43.988   4.839  10.505  0.00  0.00    +0.000 HD
BRANCH  21  25
ATOM     25  C   UNL     1      47.437   2.294   6.407  0.00  0.00    +0.000 C 
ATOM     26  F   UNL     1      48.714   2.669   6.692  0.00  0.00    +0.000 F 
ATOM     27  F   UNL     1      47.474   0.947   6.225  0.00  0.00    +0.000 F 
ATOM     28  F   UNL     1      47.157   2.831   5.188  0.00  0.00    +0.000 F 
ENDBRANCH  21  25
ENDBRANCH  16  17
ENDBRANCH  15  16
ENDBRANCH   3  15
TORSDOF 5
ENDMDL
MODEL 3
REMARK VINA RESULT:    -7.884      2.037      3.222
REMARK INTER + INTRA:         -10.640
REMARK INTER:                 -10.818
REMARK INTRA:                   0.178
REMARK UNBOUND:                -0.451
REMARK  Name = 
REMARK  6 active torsions:
REMARK  status: ('A' for Active; 'I' for Inactive)
REMARK    1  A    between atoms: C_1  and  C_2
REMARK    2  A    between atoms: C_7  and  C_8
REMARK    3  A    between atoms: C_10  and  C_11
REMARK    4  A    between atoms: C_11  and  C_12
REMARK    5  A    between atoms: C_12  and  N_13
REMARK    6  A    between atoms: C_17  and  C_18
REMARK                            x       y       z     vdW  Elec       q    Type
REMARK                         _______ _______ _______ _____ _____    ______ ____
ROOT
ATOM      1  C   UNL     1      47.199   6.258  13.973  0.00  0.00    +0.000 A 
ATOM      2  C   UNL     1      46.568   5.051  13.609  0.00  0.00    +0.000 A 
ATOM      3  C   UNL     1      45.579   5.005  12.626  0.00  0.00    +0.000 A 
ATOM      4  N   UNL     1      45.071   6.122  12.072  0.00  0.00    +0.000 NA
ATOM      5  C   UNL     1      45.605   7.295  12.472  0.00  0.00    +0.000 A 
ATOM      6  C   UNL     1      46.671   7.418  13.364  0.00  0.00    +0.000 A 
ATOM      7 CL   UNL     1      47.276   9.023  13.590  0.00  0.00    +0.000 Cl
ENDROOT
BRANCH   1  14
ATOM      8  C   UNL     1      47.382   4.423  16.506  0.00  0.00    +0.000 C 
ATOM      9  C   UNL     1      48.444   5.396  16.075  0.00  0.00    +0.000 A 
ATOM     10  N   UNL     1      49.509   5.395  16.928  0.00  0.00    +0.000 NA
ATOM     11  C   UNL     1      50.545   6.209  16.665  0.00  0.00    +0.000 A 
ATOM     12  C   UNL     1      50.568   7.065  15.590  0.00  0.00    +0.000 A 
ATOM     13  C   UNL     1      49.456   7.094  14.749  0.00  0.00    +0.000 A 
ATOM     14  C   UNL     1      48.352   6.235  14.935  0.00  0.00    +0.000 A 
ENDBRANCH   1  14
BRANCH   3  15
ATOM     15  C   UNL     1      45.080   3.682  12.104  0.00  0.00    +0.000 C 
BRANCH  15  16
ATOM     16  C   UNL     1      43.691   3.829  11.503  0.00  0.00    +0.000 C 
BRANCH  16  17
ATOM     17  N   UNL     1      43.761   4.431  10.178  0.00  0.00    +0.000 N 
ATOM     18  C   UNL     1      44.581   3.722   9.310  0.00  0.00    +0.000 A 
ATOM     19  N   UNL     1      44.744   2.402   9.472  0.00  0.00    +0.000 NA
ATOM     20  C   UNL     1      45.575   1.762   8.637  0.00  0.00    +0.000 A 
ATOM     21  C   UNL     1      46.263   2.392   7.630  0.00  0.00    +0.000 A 
ATOM     22  C   UNL     1      46.031   3.743   7.533  0.00  0.00    +0.000 A 
ATOM     23  N   UNL     1      45.211   4.428   8.362  0.00  0.00    +0.000 NA
ATOM     24  H   UNL     1      44.067   5.394  10.128  0.00  0.00    +0.000 HD
BRANCH  21  25
ATOM     25  C   UNL     1      47.188   1.668   6.731  0.00  0.00    +0.000 C 
ATOM     26  F   UNL     1      48.472   1.639   7.183  0.00  0.00    +0.000 F 
ATOM     27  F   UNL     1      46.828   0.370   6.548  0.00  0.00    +0.000 F 
ATOM     28  F   UNL     1      47.246   2.221   5.489  0.00  0.00    +0.000 F 
ENDBRANCH  21  25
ENDBRANCH  16  17
ENDBRANCH  15  16
ENDBRANCH   3  15
TORSDOF 5
ENDMDL
MODEL 4
REMARK VINA RESULT:    -7.552      4.594      7.736
REMARK INTER + INTRA:         -10.211
REMARK INTER:                  -9.316
REMARK INTRA:                  -0.895
REMARK UNBOUND:                -0.451
REMARK  Name = 
REMARK  6 active torsions:
REMARK  status: ('A' for Active; 'I' for Inactive)
REMARK    1  A    between atoms: C_1  and  C_2
REMARK    2  A    between atoms: C_7  and  C_8
REMARK    3  A    between atoms: C_10  and  C_11
REMARK    4  A    between atoms: C_11  and  C_12
REMARK    5  A    between atoms: C_12  and  N_13
REMARK    6  A    between atoms: C_17  and  C_18
REMARK                            x       y       z     vdW  Elec       q    Type
REMARK                         _______ _______ _______ _____ _____    ______ ____
ROOT
ATOM      1  C   UNL     1      45.473   6.044  11.000  0.00  0.00    +0.000 A 
ATOM      2  C   UNL     1      46.765   6.537  11.271  0.00  0.00    +0.000 A 
ATOM      3  C   UNL     1      46.974   7.632  12.110  0.00  0.00    +0.000 A 
ATOM      4  N   UNL     1      45.954   8.365  12.594  0.00  0.00    +0.000 NA
ATOM      5  C   UNL     1      44.707   7.957  12.274  0.00  0.00    +0.000 A 
ATOM      6  C   UNL     1      44.414   6.810  11.535  0.00  0.00    +0.000 A 
ATOM      7 CL   UNL     1      42.734   6.418  11.398  0.00  0.00    +0.000 Cl
ENDROOT
BRANCH   1  14
ATOM      8  C   UNL     1      44.519   3.298  12.168  0.00  0.00    +0.000 C 
ATOM      9  C   UNL     1      44.866   3.540  10.726  0.00  0.00    +0.000 A 
ATOM     10  N   UNL     1      44.725   2.411   9.973  0.00  0.00    +0.000 NA
ATOM     11  C   UNL     1      44.990   2.477   8.658  0.00  0.00    +0.000 A 
ATOM     12  C   UNL     1      45.427   3.624   8.041  0.00  0.00    +0.000 A 
ATOM     13  C   UNL     1      45.614   4.761   8.825  0.00  0.00    +0.000 A 
ATOM     14  C   UNL     1      45.311   4.781  10.203  0.00  0.00    +0.000 A 
ENDBRANCH   1  14
BRANCH   3  15
ATOM     15  C   UNL     1      48.367   8.000  12.556  0.00  0.00    +0.000 C 
BRANCH  15  16
ATOM     16  C   UNL     1      48.410   8.215  14.062  0.00  0.00    +0.000 C 
BRANCH  16  17
ATOM     17  N   UNL     1      49.582   7.573  14.642  0.00  0.00    +0.000 N 
ATOM     18  C   UNL     1      49.259   6.465  15.414  0.00  0.00    +0.000 A 
ATOM     19  N   UNL     1      48.157   5.756  15.137  0.00  0.00    +0.000 NA
ATOM     20  C   UNL     1      47.860   4.716  15.931  0.00  0.00    +0.000 A 
ATOM     21  C   UNL     1      48.628   4.348  17.008  0.00  0.00    +0.000 A 
ATOM     22  C   UNL     1      49.742   5.126  17.213  0.00  0.00    +0.000 A 
ATOM     23  N   UNL     1      50.071   6.189  16.444  0.00  0.00    +0.000 NA
ATOM     24  H   UNL     1      50.182   8.150  15.218  0.00  0.00    +0.000 HD
BRANCH  21  25
ATOM     25  C   UNL     1      48.272   3.207  17.880  0.00  0.00    +0.000 C 
ATOM     26  F   UNL     1      47.040   2.690  17.619  0.00  0.00    +0.000 F 
ATOM     27  F   UNL     1      49.144   2.171  17.765  0.00  0.00    +0.000 F 
ATOM     28  F   UNL     1      48.260   3.544  19.198  0.00  0.00    +0.000 F 
ENDBRANCH  21  25
ENDBRANCH  16  17
ENDBRANCH  15  16
ENDBRANCH   3  15
TORSDOF 5
ENDMDL
MODEL 5
REMARK VINA RESULT:    -7.408      2.433      3.068
REMARK INTER + INTRA:         -10.024
REMARK INTER:                  -9.125
REMARK INTRA:                  -0.900
REMARK UNBOUND:                -0.451
REMARK  Name = 
REMARK  6 active torsions:
REMARK  status: ('A' for Active; 'I' for Inactive)
REMARK    1  A    between atoms: C_1  and  C_2
REMARK    2  A    between atoms: C_7  and  C_8
REMARK    3  A    between atoms: C_10  and  C_11
REMARK    4  A    between atoms: C_11  and  C_12
REMARK    5  A    between atoms: C_12  and  N_13
REMARK    6  A    between atoms: C_17  and  C_18
REMARK                            x       y       z     vdW  Elec       q    Type
REMARK                         _______ _______ _______ _____ _____    ______ ____
ROOT
ATOM      1  C   UNL     1      47.825   7.737  13.540  0.00  0.00    +0.000 A 
ATOM      2  C   UNL     1      46.452   7.435  13.436  0.00  0.00    +0.000 A 
ATOM      3  C   UNL     1      45.914   6.839  12.295  0.00  0.00    +0.000 A 
ATOM      4  N   UNL     1      46.642   6.647  11.179  0.00  0.00    +0.000 NA
ATOM      5  C   UNL     1      47.941   7.009  11.231  0.00  0.00    +0.000 A 
ATOM      6  C   UNL     1      48.580   7.507  12.368  0.00  0.00    +0.000 A 
ATOM      7 CL   UNL     1      50.288   7.744  12.222  0.00  0.00    +0.000 Cl
ENDROOT
BRANCH   1  14
ATOM      8  C   UNL     1      48.595   5.945  15.992  0.00  0.00    +0.000 C 
ATOM      9  C   UNL     1      48.740   7.440  15.945  0.00  0.00    +0.000 A 
ATOM     10  N   UNL     1      49.245   7.938  17.111  0.00  0.00    +0.000 NA
ATOM     11  C   UNL     1      49.442   9.263  17.214  0.00  0.00    +0.000 A 
ATOM     12  C   UNL     1      49.128  10.144  16.208  0.00  0.00    +0.000 A 
ATOM     13  C   UNL     1      48.570   9.634  15.037  0.00  0.00    +0.000 A 
ATOM     14  C   UNL     1      48.378   8.250  14.838  0.00  0.00    +0.000 A 
ENDBRANCH   1  14
BRANCH   3  15
ATOM     15  C   UNL     1      44.495   6.329  12.295  0.00  0.00    +0.000 C 
BRANCH  15  16
ATOM     16  C   UNL     1      44.386   5.040  11.495  0.00  0.00    +0.000 C 
BRANCH  16  17
ATOM     17  N   UNL     1      44.416   5.314  10.065  0.00  0.00    +0.000 N 
ATOM     18  C   UNL     1      45.014   4.295   9.335  0.00  0.00    +0.000 A 
ATOM     19  N   UNL     1      44.974   3.035   9.790  0.00  0.00    +0.000 NA
ATOM     20  C   UNL     1      45.598   2.087   9.075  0.00  0.00    +0.000 A 
ATOM     21  C   UNL     1      46.272   2.346   7.907  0.00  0.00    +0.000 A 
ATOM     22  C   UNL     1      46.255   3.662   7.513  0.00  0.00    +0.000 A 
ATOM     23  N   UNL     1      45.649   4.650   8.210  0.00  0.00    +0.000 NA
ATOM     24  H   UNL     1      44.869   6.170   9.772  0.00  0.00    +0.000 HD
BRANCH  21  25
ATOM     25  C   UNL     1      46.967   1.286   7.144  0.00  0.00    +0.000 C 
ATOM     26  F   UNL     1      46.670   1.291   5.816  0.00  0.00    +0.000 F 
ATOM     27  F   UNL     1      48.320   1.388   7.225  0.00  0.00    +0.000 F 
ATOM     28  F   UNL     1      46.657   0.037   7.588  0.00  0.00    +0.000 F 
ENDBRANCH  21  25
ENDBRANCH  16  17
ENDBRANCH  15  16
ENDBRANCH   3  15
TORSDOF 5
ENDMDL
MODEL 6
REMARK VINA RESULT:    -7.231      5.916      7.549
REMARK INTER + INTRA:          -9.796
REMARK INTER:                  -8.988
REMARK INTRA:                  -0.808
REMARK UNBOUND:                -0.451
REMARK  Name = 
REMARK  6 active torsions:
REMARK  status: ('A' for Active; 'I' for Inactive)
REMARK    1  A    between atoms: C_1  and  C_2
REMARK    2  A    between atoms: C_7  and  C_8
REMARK    3  A    between atoms: C_10  and  C_11
REMARK    4  A    between atoms: C_11  and  C_12
REMARK    5  A    between atoms: C_12  and  N_13
REMARK    6  A    between atoms: C_17  and  C_18
REMARK                            x       y       z     vdW  Elec       q    Type
REMARK                         _______ _______ _______ _____ _____    ______ ____
ROOT
ATOM      1  C   UNL     1      51.339   3.703  18.110  0.00  0.00    +0.000 A 
ATOM      2  C   UNL     1      49.994   3.951  17.770  0.00  0.00    +0.000 A 
ATOM      3  C   UNL     1      49.201   2.985  17.148  0.00  0.00    +0.000 A 
ATOM      4  N   UNL     1      49.710   1.818  16.711  0.00  0.00    +0.000 NA
ATOM      5  C   UNL     1      51.020   1.598  16.953  0.00  0.00    +0.000 A 
ATOM      6  C   UNL     1      51.851   2.464  17.666  0.00  0.00    +0.000 A 
ATOM      7 CL   UNL     1      53.449   1.878  17.978  0.00  0.00    +0.000 Cl
ENDROOT
BRANCH   1  14
ATOM      8  C   UNL     1      53.139   5.947  16.868  0.00  0.00    +0.000 C 
ATOM      9  C   UNL     1      52.912   5.748  18.341  0.00  0.00    +0.000 A 
ATOM     10  N   UNL     1      53.595   6.664  19.088  0.00  0.00    +0.000 NA
ATOM     11  C   UNL     1      53.479   6.619  20.426  0.00  0.00    +0.000 A 
ATOM     12  C   UNL     1      52.728   5.671  21.078  0.00  0.00    +0.000 A 
ATOM     13  C   UNL     1      52.071   4.710  20.311  0.00  0.00    +0.000 A 
ATOM     14  C   UNL     1      52.107   4.723  18.900  0.00  0.00    +0.000 A 
ENDBRANCH   1  14
BRANCH   3  15
ATOM     15  C   UNL     1      47.716   3.196  16.995  0.00  0.00    +0.000 C 
BRANCH  15  16
ATOM     16  C   UNL     1      47.423   4.135  15.835  0.00  0.00    +0.000 C 
BRANCH  16  17
ATOM     17  N   UNL     1      47.358   3.400  14.579  0.00  0.00    +0.000 N 
ATOM     18  C   UNL     1      46.388   3.895  13.718  0.00  0.00    +0.000 A 
ATOM     19  N   UNL     1      46.042   5.188  13.773  0.00  0.00    +0.000 NA
ATOM     20  C   UNL     1      45.073   5.618  12.950  0.00  0.00    +0.000 A 
ATOM     21  C   UNL     1      44.423   4.799  12.061  0.00  0.00    +0.000 A 
ATOM     22  C   UNL     1      44.846   3.491  12.067  0.00  0.00    +0.000 A 
ATOM     23  N   UNL     1      45.811   3.015  12.888  0.00  0.00    +0.000 NA
ATOM     24  H   UNL     1      47.196   2.403  14.639  0.00  0.00    +0.000 HD
BRANCH  21  25
ATOM     25  C   UNL     1      43.345   5.291  11.175  0.00  0.00    +0.000 C 
ATOM     26  F   UNL     1      42.097   4.955  11.602  0.00  0.00    +0.000 F 
ATOM     27  F   UNL     1      43.347   6.645  11.055  0.00  0.00    +0.000 F 
ATOM     28  F   UNL     1      43.447   4.801   9.910  0.00  0.00    +0.000 F 
ENDBRANCH  21  25
ENDBRANCH  16  17
ENDBRANCH  15  16
ENDBRANCH   3  15
TORSDOF 5
ENDMDL
MODEL 7
REMARK VINA RESULT:    -7.208      4.671      6.961
REMARK INTER + INTRA:          -9.766
REMARK INTER:                  -8.896
REMARK INTRA:                  -0.870
REMARK UNBOUND:                -0.451
REMARK  Name = 
REMARK  6 active torsions:
REMARK  status: ('A' for Active; 'I' for Inactive)
REMARK    1  A    between atoms: C_1  and  C_2
REMARK    2  A    between atoms: C_7  and  C_8
REMARK    3  A    between atoms: C_10  and  C_11
REMARK    4  A    between atoms: C_11  and  C_12
REMARK    5  A    between atoms: C_12  and  N_13
REMARK    6  A    between atoms: C_17  and  C_18
REMARK                            x       y       z     vdW  Elec       q    Type
REMARK                         _______ _______ _______ _____ _____    ______ ____
ROOT
ATOM      1  C   UNL     1      49.675   5.092  17.807  0.00  0.00    +0.000 A 
ATOM      2  C   UNL     1      49.440   5.885  16.666  0.00  0.00    +0.000 A 
ATOM      3  C   UNL     1      48.888   7.164  16.759  0.00  0.00    +0.000 A 
ATOM      4  N   UNL     1      48.420   7.656  17.920  0.00  0.00    +0.000 NA
ATOM      5  C   UNL     1      48.558   6.874  19.012  0.00  0.00    +0.000 A 
ATOM      6  C   UNL     1      49.199   5.634  19.022  0.00  0.00    +0.000 A 
ATOM      7 CL   UNL     1      49.387   4.903  20.579  0.00  0.00    +0.000 Cl
ENDROOT
BRANCH   1  14
ATOM      8  C   UNL     1      48.417   2.469  16.643  0.00  0.00    +0.000 C 
ATOM      9  C   UNL     1      49.834   2.597  17.129  0.00  0.00    +0.000 A 
ATOM     10  N   UNL     1      50.518   1.423  17.012  0.00  0.00    +0.000 NA
ATOM     11  C   UNL     1      51.805   1.386  17.397  0.00  0.00    +0.000 A 
ATOM     12  C   UNL     1      52.455   2.471  17.934  0.00  0.00    +0.000 A 
ATOM     13  C   UNL     1      51.735   3.655  18.094  0.00  0.00    +0.000 A 
ATOM     14  C   UNL     1      50.396   3.782  17.668  0.00  0.00    +0.000 A 
ENDBRANCH   1  14
BRANCH   3  15
ATOM     15  C   UNL     1      48.852   8.071  15.555  0.00  0.00    +0.000 C 
BRANCH  15  16
ATOM     16  C   UNL     1      48.490   7.287  14.302  0.00  0.00    +0.000 C 
BRANCH  16  17
ATOM     17  N   UNL     1      47.175   7.677  13.810  0.00  0.00    +0.000 N 
ATOM     18  C   UNL     1      46.474   6.615  13.254  0.00  0.00    +0.000 A 
ATOM     19  N   UNL     1      46.703   5.366  13.681  0.00  0.00    +0.000 NA
ATOM     20  C   UNL     1      46.033   4.365  13.091  0.00  0.00    +0.000 A 
ATOM     21  C   UNL     1      45.131   4.560  12.074  0.00  0.00    +0.000 A 
ATOM     22  C   UNL     1      44.954   5.872  11.705  0.00  0.00    +0.000 A 
ATOM     23  N   UNL     1      45.618   6.908  12.266  0.00  0.00    +0.000 NA
ATOM     24  H   UNL     1      47.144   8.422  13.126  0.00  0.00    +0.000 HD
BRANCH  21  25
ATOM     25  C   UNL     1      44.417   3.438  11.426  0.00  0.00    +0.000 C 
ATOM     26  F   UNL     1      43.849   2.574  12.311  0.00  0.00    +0.000 F 
ATOM     27  F   UNL     1      43.409   3.860  10.616  0.00  0.00    +0.000 F 
ATOM     28  F   UNL     1      45.235   2.682  10.644  0.00  0.00    +0.000 F 
ENDBRANCH  21  25
ENDBRANCH  16  17
ENDBRANCH  15  16
ENDBRANCH   3  15
TORSDOF 5
ENDMDL
MODEL 8
REMARK VINA RESULT:    -7.068      5.089      8.145
REMARK INTER + INTRA:          -9.585
REMARK INTER:                  -8.550
REMARK INTRA:                  -1.035
REMARK UNBOUND:                -0.451
REMARK  Name = 
REMARK  6 active torsions:
REMARK  status: ('A' for Active; 'I' for Inactive)
REMARK    1  A    between atoms: C_1  and  C_2
REMARK    2  A    between atoms: C_7  and  C_8
REMARK    3  A    between atoms: C_10  and  C_11
REMARK    4  A    between atoms: C_11  and  C_12
REMARK    5  A    between atoms: C_12  and  N_13
REMARK    6  A    between atoms: C_17  and  C_18
REMARK                            x       y       z     vdW  Elec       q    Type
REMARK                         _______ _______ _______ _____ _____    ______ ____
ROOT
ATOM      1  C   UNL     1      45.519   6.027  11.246  0.00  0.00    +0.000 A 
ATOM      2  C   UNL     1      46.854   6.217  11.657  0.00  0.00    +0.000 A 
ATOM      3  C   UNL     1      47.215   7.241  12.533  0.00  0.00    +0.000 A 
ATOM      4  N   UNL     1      46.341   8.188  12.923  0.00  0.00    +0.000 NA
ATOM      5  C   UNL     1      45.075   8.070  12.470  0.00  0.00    +0.000 A 
ATOM      6  C   UNL     1      44.610   7.015  11.684  0.00  0.00    +0.000 A 
ATOM      7 CL   UNL     1      42.909   7.011  11.369  0.00  0.00    +0.000 Cl
ENDROOT
BRANCH   1  14
ATOM      8  C   UNL     1      44.172   3.420  12.344  0.00  0.00    +0.000 C 
ATOM      9  C   UNL     1      44.539   3.653  10.905  0.00  0.00    +0.000 A 
ATOM     10  N   UNL     1      44.221   2.583  10.121  0.00  0.00    +0.000 NA
ATOM     11  C   UNL     1      44.481   2.650   8.804  0.00  0.00    +0.000 A 
ATOM     12  C   UNL     1      45.080   3.737   8.216  0.00  0.00    +0.000 A 
ATOM     13  C   UNL     1      45.444   4.808   9.031  0.00  0.00    +0.000 A 
ATOM     14  C   UNL     1      45.160   4.829  10.414  0.00  0.00    +0.000 A 
ENDBRANCH   1  14
BRANCH   3  15
ATOM     15  C   UNL     1      48.601   7.288  13.126  0.00  0.00    +0.000 C 
BRANCH  15  16
ATOM     16  C   UNL     1      48.616   8.129  14.394  0.00  0.00    +0.000 C 
BRANCH  16  17
ATOM     17  N   UNL     1      48.054   7.386  15.514  0.00  0.00    +0.000 N 
ATOM     18  C   UNL     1      48.990   6.575  16.142  0.00  0.00    +0.000 A 
ATOM     19  N   UNL     1      50.286   6.913  16.126  0.00  0.00    +0.000 NA
ATOM     20  C   UNL     1      51.162   6.083  16.711  0.00  0.00    +0.000 A 
ATOM     21  C   UNL     1      50.795   4.909  17.321  0.00  0.00    +0.000 A 
ATOM     22  C   UNL     1      49.446   4.645  17.296  0.00  0.00    +0.000 A 
ATOM     23  N   UNL     1      48.532   5.449  16.707  0.00  0.00    +0.000 NA
ATOM     24  H   UNL     1      47.258   6.793  15.318  0.00  0.00    +0.000 HD
BRANCH  21  25
ATOM     25  C   UNL     1      51.781   4.000  17.945  0.00  0.00    +0.000 C 
ATOM     26  F   UNL     1      53.073   4.350  17.697  0.00  0.00    +0.000 F 
ATOM     27  F   UNL     1      51.660   3.949  19.298  0.00  0.00    +0.000 F 
ATOM     28  F   UNL     1      51.656   2.717  17.508  0.00  0.00    +0.000 F 
ENDBRANCH  21  25
ENDBRANCH  16  17
ENDBRANCH  15  16
ENDBRANCH   3  15
TORSDOF 5
ENDMDL
MODEL 9
REMARK VINA RESULT:    -6.922      4.493      7.679
REMARK INTER + INTRA:          -9.396
REMARK INTER:                  -8.313
REMARK INTRA:                  -1.083
REMARK UNBOUND:                -0.451
REMARK  Name = 
REMARK  6 active torsions:
REMARK  status: ('A' for Active; 'I' for Inactive)
REMARK    1  A    between atoms: C_1  and  C_2
REMARK    2  A    between atoms: C_7  and  C_8
REMARK    3  A    between atoms: C_10  and  C_11
REMARK    4  A    between atoms: C_11  and  C_12
REMARK    5  A    between atoms: C_12  and  N_13
REMARK    6  A    between atoms: C_17  and  C_18
REMARK                            x       y       z     vdW  Elec       q    Type
REMARK                         _______ _______ _______ _____ _____    ______ ____
ROOT
ATOM      1  C   UNL     1      45.432   7.422  11.884  0.00  0.00    +0.000 A 
ATOM      2  C   UNL     1      46.765   7.537  12.327  0.00  0.00    +0.000 A 
ATOM      3  C   UNL     1      47.380   8.778  12.501  0.00  0.00    +0.000 A 
ATOM      4  N   UNL     1      46.787   9.926  12.123  0.00  0.00    +0.000 NA
ATOM      5  C   UNL     1      45.540   9.828  11.615  0.00  0.00    +0.000 A 
ATOM      6  C   UNL     1      44.817   8.639  11.514  0.00  0.00    +0.000 A 
ATOM      7 CL   UNL     1      43.180   8.803  10.980  0.00  0.00    +0.000 Cl
ENDROOT
BRANCH   1  14
ATOM      8  C   UNL     1      45.698   5.365   9.537  0.00  0.00    +0.000 C 
ATOM      9  C   UNL     1      44.903   5.134  10.791  0.00  0.00    +0.000 A 
ATOM     10  N   UNL     1      44.294   3.913  10.789  0.00  0.00    +0.000 NA
ATOM     11  C   UNL     1      43.555   3.560  11.854  0.00  0.00    +0.000 A 
ATOM     12  C   UNL     1      43.359   4.387  12.933  0.00  0.00    +0.000 A 
ATOM     13  C   UNL     1      43.945   5.651  12.908  0.00  0.00    +0.000 A 
ATOM     14  C   UNL     1      44.774   6.073  11.846  0.00  0.00    +0.000 A 
ENDBRANCH   1  14
BRANCH   3  15
ATOM     15  C   UNL     1      48.722   8.879  13.181  0.00  0.00    +0.000 C 
BRANCH  15  16
ATOM     16  C   UNL     1      48.604   8.532  14.657  0.00  0.00    +0.000 C 
BRANCH  16  17
ATOM     17  N   UNL     1      49.730   7.715  15.088  0.00  0.00    +0.000 N 
ATOM     18  C   UNL     1      49.333   6.518  15.669  0.00  0.00    +0.000 A 
ATOM     19  N   UNL     1      48.175   5.950  15.305  0.00  0.00    +0.000 NA
ATOM     20  C   UNL     1      47.810   4.815  15.918  0.00  0.00    +0.000 A 
ATOM     21  C   UNL     1      48.562   4.211  16.896  0.00  0.00    +0.000 A 
ATOM     22  C   UNL     1      49.736   4.858  17.200  0.00  0.00    +0.000 A 
ATOM     23  N   UNL     1      50.135   6.010  16.614  0.00  0.00    +0.000 NA
ATOM     24  H   UNL     1      50.381   8.138  15.737  0.00  0.00    +0.000 HD
BRANCH  21  25
ATOM     25  C   UNL     1      48.131   2.968  17.570  0.00  0.00    +0.000 C 
ATOM     26  F   UNL     1      46.785   2.767  17.527  0.00  0.00    +0.000 F 
ATOM     27  F   UNL     1      48.692   1.856  17.023  0.00  0.00    +0.000 F 
ATOM     28  F   UNL     1      48.466   2.947  18.889  0.00  0.00    +0.000 F 
ENDBRANCH  21  25
ENDBRANCH  16  17
ENDBRANCH  15  16
ENDBRANCH   3  15
TORSDOF 5
ENDMDL
