MODEL 1
REMARK VINA RESULT:    -8.988      0.000      0.000
REMARK INTER + INTRA:         -14.492
REMARK INTER:                 -13.454
REMARK INTRA:                  -1.038
REMARK UNBOUND:                -1.038
REMARK  Name = 
REMARK  10 active torsions:
REMARK  status: ('A' for Active; 'I' for Inactive)
REMARK    1  A    between atoms: C_1  and  C_2
REMARK    2  A    between atoms: C_2  and  N_3
REMARK    3  A    between atoms: C_2  and  C_20
REMARK    4  A    between atoms: N_3  and  C_4
REMARK    5  A    between atoms: C_4  and  C_5
REMARK    6  A    between atoms: C_8  and  C_9
REMARK    7  A    between atoms: C_9  and  O_10
REMARK    8  A    between atoms: C_9  and  C_11
REMARK    9  A    between atoms: C_11  and  C_12
REMARK   10  A    between atoms: C_20  and  C_22
REMARK                            x       y       z     vdW  Elec       q    Type
REMARK                         _______ _______ _______ _____ _____    ______ ____
ROOT
ATOM      1  N   UNL     1      47.842   5.130  15.764  0.00  0.00    +0.000 NA
ATOM      2  H   UNL     1      47.954   4.137  15.546  0.00  0.00    +0.000 HD
ENDROOT
BRANCH   1   4
ATOM      3  C   UNL     1      48.564   6.930  17.217  0.00  0.00    +0.000 C 
ATOM      4  C   UNL     1      48.943   5.572  16.635  0.00  0.00    +0.000 C 
BRANCH   4   5
ATOM      5  C   UNL     1      49.199   4.536  17.760  0.00  0.00    +0.000 C 
ATOM      6  O   UNL     1      48.265   4.013  18.365  0.00  0.00    +0.000 OA
BRANCH   5   7
ATOM      7  C   UNL     1      50.592   4.199  18.083  0.00  0.00    +0.000 A 
ATOM      8  C   UNL     1      51.446   5.067  18.741  0.00  0.00    +0.000 A 
ATOM      9  S   UNL     1      52.961   4.371  19.106  0.00  0.00    +0.000 S 
ATOM     10  C   UNL     1      52.521   2.895  18.384  0.00  0.00    +0.000 A 
ATOM     11  N   UNL     1      53.365   1.829  18.394  0.00  0.00    +0.000 NA
ATOM     12  C   UNL     1      52.884   0.768  17.835  0.00  0.00    +0.000 A 
ATOM     13  N   UNL     1      51.652   0.689  17.233  0.00  0.00    +0.000 N 
ATOM     14  C   UNL     1      50.839   1.789  17.057  0.00  0.00    +0.000 A 
ATOM     15  O   UNL     1      49.916   1.778  16.249  0.00  0.00    +0.000 OA
ATOM     16  C   UNL     1      51.264   2.955  17.813  0.00  0.00    +0.000 A 
ATOM     17  H   UNL     1      51.385  -0.145  16.730  0.00  0.00    +0.000 HD
ENDBRANCH   5   7
ENDBRANCH   4   5
ENDBRANCH   1   4
BRANCH   1  18
ATOM     18  C   UNL     1      47.816   5.885  14.507  0.00  0.00    +0.000 C 
BRANCH  18  19
ATOM     19  C   UNL     1      46.880   5.268  13.494  0.00  0.00    +0.000 A 
ATOM     20  C   UNL     1      46.436   6.029  12.420  0.00  0.00    +0.000 A 
ATOM     21  C   UNL     1      45.543   5.458  11.523  0.00  0.00    +0.000 A 
ATOM     22  C   UNL     1      45.123   4.135  11.698  0.00  0.00    +0.000 A 
ATOM     23  C   UNL     1      45.626   3.454  12.802  0.00  0.00    +0.000 A 
ATOM     24  N   UNL     1      46.487   3.987  13.695  0.00  0.00    +0.000 NA
BRANCH  22  25
ATOM     25  C   UNL     1      44.116   3.460  10.804  0.00  0.00    +0.000 C 
BRANCH  25  26
ATOM     26  O   UNL     1      42.835   3.676  11.392  0.00  0.00    +0.000 OA
ATOM     27  H   UNL     1      42.767   3.100  12.173  0.00  0.00    +0.000 HD
ENDBRANCH  25  26
BRANCH  25  28
ATOM     28  C   UNL     1      44.157   3.953   9.347  0.00  0.00    +0.000 C 
BRANCH  28  29
ATOM     29  C   UNL     1      45.207   3.290   8.500  0.00  0.00    +0.000 A 
ATOM     30  C   UNL     1      45.545   1.950   8.676  0.00  0.00    +0.000 A 
ATOM     31  C   UNL     1      46.546   1.406   7.880  0.00  0.00    +0.000 A 
ATOM     32  C   UNL     1      47.188   2.203   6.944  0.00  0.00    +0.000 A 
ATOM     33  C   UNL     1      46.799   3.529   6.838  0.00  0.00    +0.000 A 
ATOM     34  N   UNL     1      45.830   4.084   7.595  0.00  0.00    +0.000 NA
ENDBRANCH  28  29
ENDBRANCH  25  28
ENDBRANCH  22  25
ENDBRANCH  18  19
ENDBRANCH   1  18
TORSDOF 9
ENDMDL
MODEL 2
REMARK VINA RESULT:    -8.073      2.035      2.842
REMARK INTER + INTRA:         -13.123
REMARK INTER:                 -11.916
REMARK INTRA:                  -1.207
REMARK UNBOUND:                -1.038
REMARK  Name = 
REMARK  10 active torsions:
REMARK  status: ('A' for Active; 'I' for Inactive)
REMARK    1  A    between atoms: C_1  and  C_2
REMARK    2  A    between atoms: C_2  and  N_3
REMARK    3  A    between atoms: C_2  and  C_20
REMARK    4  A    between atoms: N_3  and  C_4
REMARK    5  A    between atoms: C_4  and  C_5
REMARK    6  A    between atoms: C_8  and  C_9
REMARK    7  A    between atoms: C_9  and  O_10
REMARK    8  A    between atoms: C_9  and  C_11
REMARK    9  A    between atoms: C_11  and  C_12
REMARK   10  A    between atoms: C_20  and  C_22
REMARK                            x       y       z     vdW  Elec       q    Type
REMARK                         _______ _______ _______ _____ _____    ______ ____
ROOT
ATOM      1  N   UNL     1      48.114   4.501  15.709  0.00  0.00    +0.000 NA
ATOM      2  H   UNL     1      49.116   4.662  15.834  0.00  0.00    +0.000 HD
ENDROOT
BRANCH   1   4
ATOM      3  C   UNL     1      47.187   3.001  17.373  0.00  0.00    +0.000 C 
ATOM      4  C   UNL     1      47.451   4.463  17.023  0.00  0.00    +0.000 C 
BRANCH   4   5
ATOM      5  C   UNL     1      48.335   5.143  18.100  0.00  0.00    +0.000 C 
ATOM      6  O   UNL     1      47.834   5.687  19.082  0.00  0.00    +0.000 OA
BRANCH   5   7
ATOM      7  C   UNL     1      49.792   5.119  17.911  0.00  0.00    +0.000 A 
ATOM      8  C   UNL     1      50.602   4.115  18.411  0.00  0.00    +0.000 A 
ATOM      9  S   UNL     1      52.233   4.265  17.931  0.00  0.00    +0.000 S 
ATOM     10  C   UNL     1      51.903   5.684  17.052  0.00  0.00    +0.000 A 
ATOM     11  N   UNL     1      52.877   6.313  16.342  0.00  0.00    +0.000 NA
ATOM     12  C   UNL     1      52.472   7.360  15.702  0.00  0.00    +0.000 A 
ATOM     13  N   UNL     1      51.191   7.855  15.739  0.00  0.00    +0.000 N 
ATOM     14  C   UNL     1      50.221   7.344  16.574  0.00  0.00    +0.000 A 
ATOM     15  O   UNL     1      49.207   7.981  16.839  0.00  0.00    +0.000 OA
ATOM     16  C   UNL     1      50.583   6.074  17.180  0.00  0.00    +0.000 A 
ATOM     17  H   UNL     1      50.974   8.734  15.292  0.00  0.00    +0.000 HD
ENDBRANCH   5   7
ENDBRANCH   4   5
ENDBRANCH   1   4
BRANCH   1  18
ATOM     18  C   UNL     1      47.570   5.570  14.864  0.00  0.00    +0.000 C 
BRANCH  18  19
ATOM     19  C   UNL     1      46.689   5.028  13.763  0.00  0.00    +0.000 A 
ATOM     20  C   UNL     1      46.133   5.903  12.838  0.00  0.00    +0.000 A 
ATOM     21  C   UNL     1      45.292   5.392  11.859  0.00  0.00    +0.000 A 
ATOM     22  C   UNL     1      45.033   4.018  11.803  0.00  0.00    +0.000 A 
ATOM     23  C   UNL     1      45.639   3.223  12.772  0.00  0.00    +0.000 A 
ATOM     24  N   UNL     1      46.452   3.694  13.740  0.00  0.00    +0.000 NA
BRANCH  22  25
ATOM     25  C   UNL     1      44.091   3.391  10.809  0.00  0.00    +0.000 C 
BRANCH  25  26
ATOM     26  O   UNL     1      42.772   3.579  11.319  0.00  0.00    +0.000 OA
ATOM     27  H   UNL     1      42.755   3.232  12.228  0.00  0.00    +0.000 HD
ENDBRANCH  25  26
BRANCH  25  28
ATOM     28  C   UNL     1      44.231   3.957   9.386  0.00  0.00    +0.000 C 
BRANCH  28  29
ATOM     29  C   UNL     1      45.254   3.254   8.539  0.00  0.00    +0.000 A 
ATOM     30  C   UNL     1      45.546   1.904   8.722  0.00  0.00    +0.000 A 
ATOM     31  C   UNL     1      46.525   1.323   7.925  0.00  0.00    +0.000 A 
ATOM     32  C   UNL     1      47.190   2.092   6.981  0.00  0.00    +0.000 A 
ATOM     33  C   UNL     1      46.846   3.429   6.869  0.00  0.00    +0.000 A 
ATOM     34  N   UNL     1      45.900   4.022   7.627  0.00  0.00    +0.000 NA
ENDBRANCH  28  29
ENDBRANCH  25  28
ENDBRANCH  22  25
ENDBRANCH  18  19
ENDBRANCH   1  18
TORSDOF 9
ENDMDL
MODEL 3
REMARK VINA RESULT:    -7.977      1.810      2.383
REMARK INTER + INTRA:         -12.979
REMARK INTER:                 -11.769
REMARK INTRA:                  -1.210
REMARK UNBOUND:                -1.038
REMARK  Name = 
REMARK  10 active torsions:
REMARK  status: ('A' for Active; 'I' for Inactive)
REMARK    1  A    between atoms: C_1  and  C_2
REMARK    2  A    between atoms: C_2  and  N_3
REMARK    3  A    between atoms: C_2  and  C_20
REMARK    4  A    between atoms: N_3  and  C_4
REMARK    5  A    between atoms: C_4  and  C_5
REMARK    6  A    between atoms: C_8  and  C_9
REMARK    7  A    between atoms: C_9  and  O_10
REMARK    8  A    between atoms: C_9  and  C_11
REMARK    9  A    between atoms: C_11  and  C_12
REMARK   10  A    between atoms: C_20  and  C_22
REMARK                            x       y       z     vdW  Elec       q    Type
REMARK                         _______ _______ _______ _____ _____    ______ ____
ROOT
ATOM      1  N   UNL     1      48.806   6.310  14.640  0.00  0.00    +0.000 NA
ATOM      2  H   UNL     1      49.598   6.045  14.051  0.00  0.00    +0.000 HD
ENDROOT
BRANCH   1   4
ATOM      3  C   UNL     1      48.757   8.522  15.630  0.00  0.00    +0.000 C 
ATOM      4  C   UNL     1      49.284   7.099  15.788  0.00  0.00    +0.000 C 
BRANCH   4   5
ATOM      5  C   UNL     1      48.801   6.470  17.120  0.00  0.00    +0.000 C 
ATOM      6  O   UNL     1      48.489   7.175  18.078  0.00  0.00    +0.000 OA
BRANCH   5   7
ATOM      7  C   UNL     1      48.729   5.005  17.205  0.00  0.00    +0.000 A 
ATOM      8  C   UNL     1      47.552   4.297  17.041  0.00  0.00    +0.000 A 
ATOM      9  S   UNL     1      47.779   2.605  17.056  0.00  0.00    +0.000 S 
ATOM     10  C   UNL     1      49.455   2.774  17.295  0.00  0.00    +0.000 A 
ATOM     11  N   UNL     1      50.269   1.687  17.350  0.00  0.00    +0.000 NA
ATOM     12  C   UNL     1      51.520   1.972  17.505  0.00  0.00    +0.000 A 
ATOM     13  N   UNL     1      52.023   3.241  17.649  0.00  0.00    +0.000 N 
ATOM     14  C   UNL     1      51.215   4.352  17.765  0.00  0.00    +0.000 A 
ATOM     15  O   UNL     1      51.644   5.410  18.214  0.00  0.00    +0.000 OA
ATOM     16  C   UNL     1      49.824   4.099  17.430  0.00  0.00    +0.000 A 
ATOM     17  H   UNL     1      53.000   3.379  17.867  0.00  0.00    +0.000 HD
ENDBRANCH   5   7
ENDBRANCH   4   5
ENDBRANCH   1   4
BRANCH   1  18
ATOM     18  C   UNL     1      47.852   7.072  13.826  0.00  0.00    +0.000 C 
BRANCH  18  19
ATOM     19  C   UNL     1      46.984   6.171  12.978  0.00  0.00    +0.000 A 
ATOM     20  C   UNL     1      46.548   6.613  11.736  0.00  0.00    +0.000 A 
ATOM     21  C   UNL     1      45.717   5.788  10.990  0.00  0.00    +0.000 A 
ATOM     22  C   UNL     1      45.350   4.531  11.482  0.00  0.00    +0.000 A 
ATOM     23  C   UNL     1      45.841   4.177  12.735  0.00  0.00    +0.000 A 
ATOM     24  N   UNL     1      46.642   4.962  13.486  0.00  0.00    +0.000 NA
BRANCH  22  25
ATOM     25  C   UNL     1      44.409   3.600  10.762  0.00  0.00    +0.000 C 
BRANCH  25  26
ATOM     26  O   UNL     1      43.134   3.744  11.385  0.00  0.00    +0.000 OA
ATOM     27  H   UNL     1      42.465   3.395  10.771  0.00  0.00    +0.000 HD
ENDBRANCH  25  26
BRANCH  25  28
ATOM     28  C   UNL     1      44.329   3.856   9.247  0.00  0.00    +0.000 C 
BRANCH  28  29
ATOM     29  C   UNL     1      45.374   3.133   8.443  0.00  0.00    +0.000 A 
ATOM     30  C   UNL     1      46.132   3.792   7.477  0.00  0.00    +0.000 A 
ATOM     31  C   UNL     1      47.060   3.058   6.748  0.00  0.00    +0.000 A 
ATOM     32  C   UNL     1      47.204   1.699   6.987  0.00  0.00    +0.000 A 
ATOM     33  C   UNL     1      46.405   1.119   7.959  0.00  0.00    +0.000 A 
ATOM     34  N   UNL     1      45.496   1.805   8.684  0.00  0.00    +0.000 NA
ENDBRANCH  28  29
ENDBRANCH  25  28
ENDBRANCH  22  25
ENDBRANCH  18  19
ENDBRANCH   1  18
TORSDOF 9
ENDMDL
MODEL 4
REMARK VINA RESULT:    -7.914      3.035      4.527
REMARK INTER + INTRA:         -12.885
REMARK INTER:                 -11.594
REMARK INTRA:                  -1.291
REMARK UNBOUND:                -1.038
REMARK  Name = 
REMARK  10 active torsions:
REMARK  status: ('A' for Active; 'I' for Inactive)
REMARK    1  A    between atoms: C_1  and  C_2
REMARK    2  A    between atoms: C_2  and  N_3
REMARK    3  A    between atoms: C_2  and  C_20
REMARK    4  A    between atoms: N_3  and  C_4
REMARK    5  A    between atoms: C_4  and  C_5
REMARK    6  A    between atoms: C_8  and  C_9
REMARK    7  A    between atoms: C_9  and  O_10
REMARK    8  A    between atoms: C_9  and  C_11
REMARK    9  A    between atoms: C_11  and  C_12
REMARK   10  A    between atoms: C_20  and  C_22
REMARK                            x       y       z     vdW  Elec       q    Type
REMARK                         _______ _______ _______ _____ _____    ______ ____
ROOT
ATOM      1  N   UNL     1      47.566   5.280  15.563  0.00  0.00    +0.000 NA
ATOM      2  H   UNL     1      46.893   6.050  15.555  0.00  0.00    +0.000 HD
ENDROOT
BRANCH   1   4
ATOM      3  C   UNL     1      48.608   3.647  17.019  0.00  0.00    +0.000 C 
ATOM      4  C   UNL     1      48.063   5.070  16.932  0.00  0.00    +0.000 C 
BRANCH   4   5
ATOM      5  C   UNL     1      49.160   6.109  17.280  0.00  0.00    +0.000 C 
ATOM      6  O   UNL     1      50.269   5.753  17.673  0.00  0.00    +0.000 OA
BRANCH   5   7
ATOM      7  C   UNL     1      48.832   7.533  17.128  0.00  0.00    +0.000 A 
ATOM      8  C   UNL     1      48.227   8.279  18.125  0.00  0.00    +0.000 A 
ATOM      9  S   UNL     1      48.086   9.934  17.732  0.00  0.00    +0.000 S 
ATOM     10  C   UNL     1      48.818   9.695  16.214  0.00  0.00    +0.000 A 
ATOM     11  N   UNL     1      49.050  10.739  15.375  0.00  0.00    +0.000 NA
ATOM     12  C   UNL     1      49.638  10.410  14.273  0.00  0.00    +0.000 A 
ATOM     13  N   UNL     1      49.980   9.128  13.919  0.00  0.00    +0.000 N 
ATOM     14  C   UNL     1      49.613   8.028  14.665  0.00  0.00    +0.000 A 
ATOM     15  O   UNL     1      49.630   6.898  14.189  0.00  0.00    +0.000 OA
ATOM     16  C   UNL     1      49.102   8.363  15.984  0.00  0.00    +0.000 A 
ATOM     17  H   UNL     1      50.347   8.936  12.997  0.00  0.00    +0.000 HD
ENDBRANCH   5   7
ENDBRANCH   4   5
ENDBRANCH   1   4
BRANCH   1  18
ATOM     18  C   UNL     1      46.906   4.078  15.041  0.00  0.00    +0.000 C 
BRANCH  18  19
ATOM     19  C   UNL     1      46.390   4.280  13.635  0.00  0.00    +0.000 A 
ATOM     20  C   UNL     1      46.550   5.514  13.018  0.00  0.00    +0.000 A 
ATOM     21  C   UNL     1      46.032   5.693  11.742  0.00  0.00    +0.000 A 
ATOM     22  C   UNL     1      45.383   4.637  11.094  0.00  0.00    +0.000 A 
ATOM     23  C   UNL     1      45.276   3.438  11.792  0.00  0.00    +0.000 A 
ATOM     24  N   UNL     1      45.761   3.240  13.037  0.00  0.00    +0.000 NA
BRANCH  22  25
ATOM     25  C   UNL     1      44.746   4.764   9.735  0.00  0.00    +0.000 C 
BRANCH  25  26
ATOM     26  O   UNL     1      45.665   5.487   8.917  0.00  0.00    +0.000 OA
ATOM     27  H   UNL     1      45.300   5.514   8.015  0.00  0.00    +0.000 HD
ENDBRANCH  25  26
BRANCH  25  28
ATOM     28  C   UNL     1      44.371   3.413   9.101  0.00  0.00    +0.000 C 
BRANCH  28  29
ATOM     29  C   UNL     1      45.412   2.859   8.168  0.00  0.00    +0.000 A 
ATOM     30  C   UNL     1      46.015   1.625   8.402  0.00  0.00    +0.000 A 
ATOM     31  C   UNL     1      46.992   1.185   7.516  0.00  0.00    +0.000 A 
ATOM     32  C   UNL     1      47.348   1.978   6.436  0.00  0.00    +0.000 A 
ATOM     33  C   UNL     1      46.705   3.196   6.280  0.00  0.00    +0.000 A 
ATOM     34  N   UNL     1      45.753   3.650   7.122  0.00  0.00    +0.000 NA
ENDBRANCH  28  29
ENDBRANCH  25  28
ENDBRANCH  22  25
ENDBRANCH  18  19
ENDBRANCH   1  18
TORSDOF 9
ENDMDL
MODEL 5
REMARK VINA RESULT:    -7.651      2.171      2.869
REMARK INTER + INTRA:         -12.490
REMARK INTER:                 -11.392
REMARK INTRA:                  -1.098
REMARK UNBOUND:                -1.038
REMARK  Name = 
REMARK  10 active torsions:
REMARK  status: ('A' for Active; 'I' for Inactive)
REMARK    1  A    between atoms: C_1  and  C_2
REMARK    2  A    between atoms: C_2  and  N_3
REMARK    3  A    between atoms: C_2  and  C_20
REMARK    4  A    between atoms: N_3  and  C_4
REMARK    5  A    between atoms: C_4  and  C_5
REMARK    6  A    between atoms: C_8  and  C_9
REMARK    7  A    between atoms: C_9  and  O_10
REMARK    8  A    between atoms: C_9  and  C_11
REMARK    9  A    between atoms: C_11  and  C_12
REMARK   10  A    between atoms: C_20  and  C_22
REMARK                            x       y       z     vdW  Elec       q    Type
REMARK                         _______ _______ _______ _____ _____    ______ ____
ROOT
ATOM      1  N   UNL     1      49.031   6.584  13.269  0.00  0.00    +0.000 NA
ATOM      2  H   UNL     1      49.057   6.426  12.259  0.00  0.00    +0.000 HD
ENDROOT
BRANCH   1   4
ATOM      3  C   UNL     1      49.133   8.993  13.019  0.00  0.00    +0.000 C 
ATOM      4  C   UNL     1      49.834   7.771  13.605  0.00  0.00    +0.000 C 
BRANCH   4   5
ATOM      5  C   UNL     1      49.995   7.904  15.141  0.00  0.00    +0.000 C 
ATOM      6  O   UNL     1      49.294   8.680  15.788  0.00  0.00    +0.000 OA
BRANCH   5   7
ATOM      7  C   UNL     1      51.012   7.075  15.802  0.00  0.00    +0.000 A 
ATOM      8  C   UNL     1      52.372   7.259  15.618  0.00  0.00    +0.000 A 
ATOM      9  S   UNL     1      53.326   6.247  16.608  0.00  0.00    +0.000 S 
ATOM     10  C   UNL     1      51.948   5.528  17.299  0.00  0.00    +0.000 A 
ATOM     11  N   UNL     1      52.062   4.592  18.279  0.00  0.00    +0.000 NA
ATOM     12  C   UNL     1      50.931   4.158  18.728  0.00  0.00    +0.000 A 
ATOM     13  N   UNL     1      49.700   4.546  18.260  0.00  0.00    +0.000 N 
ATOM     14  C   UNL     1      49.547   5.364  17.161  0.00  0.00    +0.000 A 
ATOM     15  O   UNL     1      48.479   5.438  16.563  0.00  0.00    +0.000 OA
ATOM     16  C   UNL     1      50.781   6.004  16.734  0.00  0.00    +0.000 A 
ATOM     17  H   UNL     1      48.863   4.089  18.592  0.00  0.00    +0.000 HD
ENDBRANCH   5   7
ENDBRANCH   4   5
ENDBRANCH   1   4
BRANCH   1  18
ATOM     18  C   UNL     1      47.633   6.748  13.681  0.00  0.00    +0.000 C 
BRANCH  18  19
ATOM     19  C   UNL     1      46.710   5.808  12.941  0.00  0.00    +0.000 A 
ATOM     20  C   UNL     1      46.465   4.542  13.459  0.00  0.00    +0.000 A 
ATOM     21  C   UNL     1      45.648   3.677  12.743  0.00  0.00    +0.000 A 
ATOM     22  C   UNL     1      45.073   4.091  11.536  0.00  0.00    +0.000 A 
ATOM     23  C   UNL     1      45.376   5.378  11.102  0.00  0.00    +0.000 A 
ATOM     24  N   UNL     1      46.175   6.236  11.772  0.00  0.00    +0.000 NA
BRANCH  22  25
ATOM     25  C   UNL     1      44.222   3.197  10.673  0.00  0.00    +0.000 C 
BRANCH  25  26
ATOM     26  O   UNL     1      42.908   3.220  11.228  0.00  0.00    +0.000 OA
ATOM     27  H   UNL     1      42.399   3.900  10.753  0.00  0.00    +0.000 HD
ENDBRANCH  25  26
BRANCH  25  28
ATOM     28  C   UNL     1      44.213   3.602   9.188  0.00  0.00    +0.000 C 
BRANCH  28  29
ATOM     29  C   UNL     1      45.300   2.965   8.368  0.00  0.00    +0.000 A 
ATOM     30  C   UNL     1      45.691   1.644   8.579  0.00  0.00    +0.000 A 
ATOM     31  C   UNL     1      46.723   1.125   7.806  0.00  0.00    +0.000 A 
ATOM     32  C   UNL     1      47.341   1.927   6.858  0.00  0.00    +0.000 A 
ATOM     33  C   UNL     1      46.898   3.232   6.717  0.00  0.00    +0.000 A 
ATOM     34  N   UNL     1      45.899   3.763   7.451  0.00  0.00    +0.000 NA
ENDBRANCH  28  29
ENDBRANCH  25  28
ENDBRANCH  22  25
ENDBRANCH  18  19
ENDBRANCH   1  18
TORSDOF 9
ENDMDL
MODEL 6
REMARK VINA RESULT:    -7.349      3.368      3.956
REMARK INTER + INTRA:         -12.038
REMARK INTER:                 -10.826
REMARK INTRA:                  -1.213
REMARK UNBOUND:                -1.038
REMARK  Name = 
REMARK  10 active torsions:
REMARK  status: ('A' for Active; 'I' for Inactive)
REMARK    1  A    between atoms: C_1  and  C_2
REMARK    2  A    between atoms: C_2  and  N_3
REMARK    3  A    between atoms: C_2  and  C_20
REMARK    4  A    between atoms: N_3  and  C_4
REMARK    5  A    between atoms: C_4  and  C_5
REMARK    6  A    between atoms: C_8  and  C_9
REMARK    7  A    between atoms: C_9  and  O_10
REMARK    8  A    between atoms: C_9  and  C_11
REMARK    9  A    between atoms: C_11  and  C_12
REMARK   10  A    between atoms: C_20  and  C_22
REMARK                            x       y       z     vdW  Elec       q    Type
REMARK                         _______ _______ _______ _____ _____    ______ ____
ROOT
ATOM      1  N   UNL     1      49.222   6.499  13.205  0.00  0.00    +0.000 NA
ATOM      2  H   UNL     1      49.119   6.133  12.256  0.00  0.00    +0.000 HD
ENDROOT
BRANCH   1   4
ATOM      3  C   UNL     1      49.006   8.769  12.384  0.00  0.00    +0.000 C 
ATOM      4  C   UNL     1      49.898   7.806  13.161  0.00  0.00    +0.000 C 
BRANCH   4   5
ATOM      5  C   UNL     1      50.166   8.329  14.596  0.00  0.00    +0.000 C 
ATOM      6  O   UNL     1      49.644   9.366  15.001  0.00  0.00    +0.000 OA
BRANCH   5   7
ATOM      7  C   UNL     1      51.066   7.550  15.457  0.00  0.00    +0.000 A 
ATOM      8  C   UNL     1      50.618   6.777  16.514  0.00  0.00    +0.000 A 
ATOM      9  S   UNL     1      51.861   5.873  17.259  0.00  0.00    +0.000 S 
ATOM     10  C   UNL     1      53.032   6.501  16.196  0.00  0.00    +0.000 A 
ATOM     11  N   UNL     1      54.327   6.093  16.259  0.00  0.00    +0.000 NA
ATOM     12  C   UNL     1      55.095   6.632  15.372  0.00  0.00    +0.000 A 
ATOM     13  N   UNL     1      54.693   7.571  14.453  0.00  0.00    +0.000 N 
ATOM     14  C   UNL     1      53.433   8.131  14.466  0.00  0.00    +0.000 A 
ATOM     15  O   UNL     1      53.193   9.177  13.872  0.00  0.00    +0.000 OA
ATOM     16  C   UNL     1      52.496   7.436  15.332  0.00  0.00    +0.000 A 
ATOM     17  H   UNL     1      55.373   8.021  13.857  0.00  0.00    +0.000 HD
ENDBRANCH   5   7
ENDBRANCH   4   5
ENDBRANCH   1   4
BRANCH   1  18
ATOM     18  C   UNL     1      47.891   6.604  13.813  0.00  0.00    +0.000 C 
BRANCH  18  19
ATOM     19  C   UNL     1      46.864   5.776  13.075  0.00  0.00    +0.000 A 
ATOM     20  C   UNL     1      46.620   4.469  13.480  0.00  0.00    +0.000 A 
ATOM     21  C   UNL     1      45.704   3.711  12.764  0.00  0.00    +0.000 A 
ATOM     22  C   UNL     1      45.033   4.269  11.671  0.00  0.00    +0.000 A 
ATOM     23  C   UNL     1      45.343   5.585  11.345  0.00  0.00    +0.000 A 
ATOM     24  N   UNL     1      46.236   6.343  12.017  0.00  0.00    +0.000 NA
BRANCH  22  25
ATOM     25  C   UNL     1      44.067   3.498  10.808  0.00  0.00    +0.000 C 
BRANCH  25  26
ATOM     26  O   UNL     1      42.771   3.687  11.374  0.00  0.00    +0.000 OA
ATOM     27  H   UNL     1      42.318   2.826  11.369  0.00  0.00    +0.000 HD
ENDBRANCH  25  26
BRANCH  25  28
ATOM     28  C   UNL     1      44.101   3.909   9.326  0.00  0.00    +0.000 C 
BRANCH  28  29
ATOM     29  C   UNL     1      45.176   3.233   8.522  0.00  0.00    +0.000 A 
ATOM     30  C   UNL     1      45.491   1.890   8.713  0.00  0.00    +0.000 A 
ATOM     31  C   UNL     1      46.517   1.334   7.957  0.00  0.00    +0.000 A 
ATOM     32  C   UNL     1      47.204   2.122   7.046  0.00  0.00    +0.000 A 
ATOM     33  C   UNL     1      46.835   3.452   6.924  0.00  0.00    +0.000 A 
ATOM     34  N   UNL     1      45.843   4.019   7.642  0.00  0.00    +0.000 NA
ENDBRANCH  28  29
ENDBRANCH  25  28
ENDBRANCH  22  25
ENDBRANCH  18  19
ENDBRANCH   1  18
TORSDOF 9
ENDMDL
MODEL 7
REMARK VINA RESULT:    -7.092      4.329      5.150
REMARK INTER + INTRA:         -11.653
REMARK INTER:                 -10.755
REMARK INTRA:                  -0.899
REMARK UNBOUND:                -1.038
REMARK  Name = 
REMARK  10 active torsions:
REMARK  status: ('A' for Active; 'I' for Inactive)
REMARK    1  A    between atoms: C_1  and  C_2
REMARK    2  A    between atoms: C_2  and  N_3
REMARK    3  A    between atoms: C_2  and  C_20
REMARK    4  A    between atoms: N_3  and  C_4
REMARK    5  A    between atoms: C_4  and  C_5
REMARK    6  A    between atoms: C_8  and  C_9
REMARK    7  A    between atoms: C_9  and  O_10
REMARK    8  A    between atoms: C_9  and  C_11
REMARK    9  A    between atoms: C_11  and  C_12
REMARK   10  A    between atoms: C_20  and  C_22
REMARK                            x       y       z     vdW  Elec       q    Type
REMARK                         _______ _______ _______ _____ _____    ______ ____
ROOT
ATOM      1  N   UNL     1      47.562   7.528  14.022  0.00  0.00    +0.000 NA
ATOM      2  H   UNL     1      46.623   7.681  14.396  0.00  0.00    +0.000 HD
ENDROOT
BRANCH   1   4
ATOM      3  C   UNL     1      49.641   7.062  15.179  0.00  0.00    +0.000 C 
ATOM      4  C   UNL     1      48.560   8.111  14.934  0.00  0.00    +0.000 C 
BRANCH   4   5
ATOM      5  C   UNL     1      49.165   9.403  14.327  0.00  0.00    +0.000 C 
ATOM      6  O   UNL     1      48.499  10.432  14.233  0.00  0.00    +0.000 OA
BRANCH   5   7
ATOM      7  C   UNL     1      50.559   9.361  13.867  0.00  0.00    +0.000 A 
ATOM      8  C   UNL     1      51.602   9.949  14.561  0.00  0.00    +0.000 A 
ATOM      9  S   UNL     1      53.131   9.632  13.871  0.00  0.00    +0.000 S 
ATOM     10  C   UNL     1      52.439   8.711  12.619  0.00  0.00    +0.000 A 
ATOM     11  N   UNL     1      53.216   8.095  11.688  0.00  0.00    +0.000 NA
ATOM     12  C   UNL     1      52.553   7.408  10.818  0.00  0.00    +0.000 A 
ATOM     13  N   UNL     1      51.184   7.312  10.772  0.00  0.00    +0.000 N 
ATOM     14  C   UNL     1      50.359   8.052  11.593  0.00  0.00    +0.000 A 
ATOM     15  O   UNL     1      49.171   8.208  11.332  0.00  0.00    +0.000 OA
ATOM     16  C   UNL     1      51.059   8.703  12.688  0.00  0.00    +0.000 A 
ATOM     17  H   UNL     1      50.734   6.838  10.003  0.00  0.00    +0.000 HD
ENDBRANCH   5   7
ENDBRANCH   4   5
ENDBRANCH   1   4
BRANCH   1  18
ATOM     18  C   UNL     1      47.769   6.086  13.852  0.00  0.00    +0.000 C 
BRANCH  18  19
ATOM     19  C   UNL     1      46.729   5.467  12.948  0.00  0.00    +0.000 A 
ATOM     20  C   UNL     1      46.282   4.176  13.202  0.00  0.00    +0.000 A 
ATOM     21  C   UNL     1      45.357   3.609  12.335  0.00  0.00    +0.000 A 
ATOM     22  C   UNL     1      44.877   4.341  11.244  0.00  0.00    +0.000 A 
ATOM     23  C   UNL     1      45.383   5.626  11.075  0.00  0.00    +0.000 A 
ATOM     24  N   UNL     1      46.289   6.199  11.896  0.00  0.00    +0.000 NA
BRANCH  22  25
ATOM     25  C   UNL     1      43.917   3.781  10.227  0.00  0.00    +0.000 C 
BRANCH  25  26
ATOM     26  O   UNL     1      43.803   4.755   9.191  0.00  0.00    +0.000 OA
ATOM     27  H   UNL     1      44.629   5.268   9.176  0.00  0.00    +0.000 HD
ENDBRANCH  25  26
BRANCH  25  28
ATOM     28  C   UNL     1      44.341   2.411   9.669  0.00  0.00    +0.000 C 
BRANCH  28  29
ATOM     29  C   UNL     1      45.415   2.478   8.619  0.00  0.00    +0.000 A 
ATOM     30  C   UNL     1      46.150   1.351   8.258  0.00  0.00    +0.000 A 
ATOM     31  C   UNL     1      47.150   1.488   7.302  0.00  0.00    +0.000 A 
ATOM     32  C   UNL     1      47.399   2.732   6.741  0.00  0.00    +0.000 A 
ATOM     33  C   UNL     1      46.628   3.804   7.162  0.00  0.00    +0.000 A 
ATOM     34  N   UNL     1      45.651   3.702   8.087  0.00  0.00    +0.000 NA
ENDBRANCH  28  29
ENDBRANCH  25  28
ENDBRANCH  22  25
ENDBRANCH  18  19
ENDBRANCH   1  18
TORSDOF 9
ENDMDL
MODEL 8
REMARK VINA RESULT:    -6.603      4.012      8.807
REMARK INTER + INTRA:         -10.923
REMARK INTER:                  -9.930
REMARK INTRA:                  -0.992
REMARK UNBOUND:                -1.038
REMARK  Name = 
REMARK  10 active torsions:
REMARK  status: ('A' for Active; 'I' for Inactive)
REMARK    1  A    between atoms: C_1  and  C_2
REMARK    2  A    between atoms: C_2  and  N_3
REMARK    3  A    between atoms: C_2  and  C_20
REMARK    4  A    between atoms: N_3  and  C_4
REMARK    5  A    between atoms: C_4  and  C_5
REMARK    6  A    between atoms: C_8  and  C_9
REMARK    7  A    between atoms: C_9  and  O_10
REMARK    8  A    between atoms: C_9  and  C_11
REMARK    9  A    between atoms: C_11  and  C_12
REMARK   10  A    between atoms: C_20  and  C_22
REMARK                            x       y       z     vdW  Elec       q    Type
REMARK                         _______ _______ _______ _____ _____    ______ ____
ROOT
ATOM      1  N   UNL     1      47.140   8.622  14.248  0.00  0.00    +0.000 NA
ATOM      2  H   UNL     1      46.498   9.384  14.475  0.00  0.00    +0.000 HD
ENDROOT
BRANCH   1   4
ATOM      3  C   UNL     1      48.257   8.676  12.098  0.00  0.00    +0.000 C 
ATOM      4  C   UNL     1      46.988   8.252  12.831  0.00  0.00    +0.000 C 
BRANCH   4   5
ATOM      5  C   UNL     1      46.746   6.727  12.689  0.00  0.00    +0.000 C 
ATOM      6  O   UNL     1      47.638   5.917  12.933  0.00  0.00    +0.000 OA
BRANCH   5   7
ATOM      7  C   UNL     1      45.417   6.278  12.251  0.00  0.00    +0.000 A 
ATOM      8  C   UNL     1      44.471   7.134  11.714  0.00  0.00    +0.000 A 
ATOM      9  S   UNL     1      43.069   6.327  11.167  0.00  0.00    +0.000 S 
ATOM     10  C   UNL     1      43.685   4.814  11.646  0.00  0.00    +0.000 A 
ATOM     11  N   UNL     1      42.989   3.669  11.415  0.00  0.00    +0.000 NA
ATOM     12  C   UNL     1      43.594   2.596  11.806  0.00  0.00    +0.000 A 
ATOM     13  N   UNL     1      44.812   2.569  12.440  0.00  0.00    +0.000 N 
ATOM     14  C   UNL     1      45.468   3.714  12.838  0.00  0.00    +0.000 A 
ATOM     15  O   UNL     1      46.366   3.679  13.672  0.00  0.00    +0.000 OA
ATOM     16  C   UNL     1      44.909   4.932  12.274  0.00  0.00    +0.000 A 
ATOM     17  H   UNL     1      45.175   1.700  12.805  0.00  0.00    +0.000 HD
ENDBRANCH   5   7
ENDBRANCH   4   5
ENDBRANCH   1   4
BRANCH   1  18
ATOM     18  C   UNL     1      48.509   9.059  14.545  0.00  0.00    +0.000 C 
BRANCH  18  19
ATOM     19  C   UNL     1      49.106   8.301  15.707  0.00  0.00    +0.000 A 
ATOM     20  C   UNL     1      50.144   7.406  15.479  0.00  0.00    +0.000 A 
ATOM     21  C   UNL     1      50.651   6.687  16.553  0.00  0.00    +0.000 A 
ATOM     22  C   UNL     1      50.133   6.884  17.838  0.00  0.00    +0.000 A 
ATOM     23  C   UNL     1      49.096   7.805  17.965  0.00  0.00    +0.000 A 
ATOM     24  N   UNL     1      48.577   8.509  16.937  0.00  0.00    +0.000 NA
BRANCH  22  25
ATOM     25  C   UNL     1      50.588   6.107  19.045  0.00  0.00    +0.000 C 
BRANCH  25  26
ATOM     26  O   UNL     1      50.863   7.062  20.068  0.00  0.00    +0.000 OA
ATOM     27  H   UNL     1      50.178   6.966  20.753  0.00  0.00    +0.000 HD
ENDBRANCH  25  26
BRANCH  25  28
ATOM     28  C   UNL     1      49.572   5.052  19.517  0.00  0.00    +0.000 C 
BRANCH  28  29
ATOM     29  C   UNL     1      49.163   4.069  18.456  0.00  0.00    +0.000 A 
ATOM     30  C   UNL     1      50.082   3.191  17.886  0.00  0.00    +0.000 A 
ATOM     31  C   UNL     1      49.645   2.328  16.887  0.00  0.00    +0.000 A 
ATOM     32  C   UNL     1      48.321   2.366  16.477  0.00  0.00    +0.000 A 
ATOM     33  C   UNL     1      47.474   3.276  17.089  0.00  0.00    +0.000 A 
ATOM     34  N   UNL     1      47.868   4.125  18.061  0.00  0.00    +0.000 NA
ENDBRANCH  28  29
ENDBRANCH  25  28
ENDBRANCH  22  25
ENDBRANCH  18  19
ENDBRANCH   1  18
TORSDOF 9
ENDMDL
MODEL 9
REMARK VINA RESULT:    -6.451      2.882      4.382
REMARK INTER + INTRA:         -10.694
REMARK INTER:                  -8.853
REMARK INTRA:                  -1.840
REMARK UNBOUND:                -1.038
REMARK  Name = 
REMARK  10 active torsions:
REMARK  status: ('A' for Active; 'I' for Inactive)
REMARK    1  A    between atoms: C_1  and  C_2
REMARK    2  A    between atoms: C_2  and  N_3
REMARK    3  A    between atoms: C_2  and  C_20
REMARK    4  A    between atoms: N_3  and  C_4
REMARK    5  A    between atoms: C_4  and  C_5
REMARK    6  A    between atoms: C_8  and  C_9
REMARK    7  A    between atoms: C_9  and  O_10
REMARK    8  A    between atoms: C_9  and  C_11
REMARK    9  A    between atoms: C_11  and  C_12
REMARK   10  A    between atoms: C_20  and  C_22
REMARK                            x       y       z     vdW  Elec       q    Type
REMARK                         _______ _______ _______ _____ _____    ______ ____
ROOT
ATOM      1  N   UNL     1      50.865   8.144  16.767  0.00  0.00    +0.000 NA
ATOM      2  H   UNL     1      49.962   7.764  17.060  0.00  0.00    +0.000 HD
ENDROOT
BRANCH   1   4
ATOM      3  C   UNL     1      52.835   8.480  18.138  0.00  0.00    +0.000 C 
ATOM      4  C   UNL     1      51.951   7.435  17.464  0.00  0.00    +0.000 C 
BRANCH   4   5
ATOM      5  C   UNL     1      51.374   6.439  18.502  0.00  0.00    +0.000 C 
ATOM      6  O   UNL     1      51.340   6.718  19.699  0.00  0.00    +0.000 OA
BRANCH   5   7
ATOM      7  C   UNL     1      50.869   5.149  18.012  0.00  0.00    +0.000 A 
ATOM      8  C   UNL     1      51.687   4.056  17.784  0.00  0.00    +0.000 A 
ATOM      9  S   UNL     1      50.823   2.650  17.348  0.00  0.00    +0.000 S 
ATOM     10  C   UNL     1      49.333   3.468  17.441  0.00  0.00    +0.000 A 
ATOM     11  N   UNL     1      48.160   2.815  17.227  0.00  0.00    +0.000 NA
ATOM     12  C   UNL     1      47.111   3.557  17.361  0.00  0.00    +0.000 A 
ATOM     13  N   UNL     1      47.132   4.900  17.651  0.00  0.00    +0.000 N 
ATOM     14  C   UNL     1      48.300   5.629  17.710  0.00  0.00    +0.000 A 
ATOM     15  O   UNL     1      48.293   6.853  17.642  0.00  0.00    +0.000 OA
ATOM     16  C   UNL     1      49.499   4.808  17.732  0.00  0.00    +0.000 A 
ATOM     17  H   UNL     1      46.275   5.434  17.641  0.00  0.00    +0.000 HD
ENDBRANCH   5   7
ENDBRANCH   4   5
ENDBRANCH   1   4
BRANCH   1  18
ATOM     18  C   UNL     1      50.981   8.005  15.311  0.00  0.00    +0.000 C 
BRANCH  18  19
ATOM     19  C   UNL     1      49.633   7.838  14.649  0.00  0.00    +0.000 A 
ATOM     20  C   UNL     1      48.858   8.959  14.382  0.00  0.00    +0.000 A 
ATOM     21  C   UNL     1      47.604   8.782  13.811  0.00  0.00    +0.000 A 
ATOM     22  C   UNL     1      47.152   7.495  13.498  0.00  0.00    +0.000 A 
ATOM     23  C   UNL     1      48.002   6.436  13.801  0.00  0.00    +0.000 A 
ATOM     24  N   UNL     1      49.221   6.579  14.364  0.00  0.00    +0.000 NA
BRANCH  22  25
ATOM     25  C   UNL     1      45.785   7.212  12.930  0.00  0.00    +0.000 C 
BRANCH  25  26
ATOM     26  O   UNL     1      45.128   8.471  12.795  0.00  0.00    +0.000 OA
ATOM     27  H   UNL     1      45.354   8.829  11.919  0.00  0.00    +0.000 HD
ENDBRANCH  25  26
BRANCH  25  28
ATOM     28  C   UNL     1      45.819   6.448  11.595  0.00  0.00    +0.000 C 
BRANCH  28  29
ATOM     29  C   UNL     1      44.975   5.205  11.573  0.00  0.00    +0.000 A 
ATOM     30  C   UNL     1      44.264   4.789  12.697  0.00  0.00    +0.000 A 
ATOM     31  C   UNL     1      43.526   3.613  12.619  0.00  0.00    +0.000 A 
ATOM     32  C   UNL     1      43.521   2.882  11.440  0.00  0.00    +0.000 A 
ATOM     33  C   UNL     1      44.261   3.361  10.371  0.00  0.00    +0.000 A 
ATOM     34  N   UNL     1      44.986   4.499  10.416  0.00  0.00    +0.000 NA
ENDBRANCH  28  29
ENDBRANCH  25  28
ENDBRANCH  22  25
ENDBRANCH  18  19
ENDBRANCH   1  18
TORSDOF 9
ENDMDL
