MODEL 1
REMARK VINA RESULT:    -9.061      0.000      0.000
REMARK INTER + INTRA:         -11.870
REMARK INTER:                 -11.180
REMARK INTRA:                  -0.690
REMARK UNBOUND:                -0.690
REMARK  Name = 
REMARK  4 active torsions:
REMARK  status: ('A' for Active; 'I' for Inactive)
REMARK    1  A    between atoms: C_2  and  C_4
REMARK    2  A    between atoms: N_8  and  C_9
REMARK    3  A    between atoms: C_9  and  C_10
REMARK    4  A    between atoms: C_13  and  C_14
REMARK                            x       y       z     vdW  Elec       q    Type
REMARK                         _______ _______ _______ _____ _____    ______ ____
ROOT
ATOM      1  C   UNL     1      46.408   2.300   7.701  0.00  0.00    +0.000 A 
ATOM      2  C   UNL     1      45.596   1.803   8.714  0.00  0.00    +0.000 A 
ATOM      3  C   UNL     1      44.738   2.675   9.383  0.00  0.00    +0.000 A 
ATOM      4  C   UNL     1      44.722   4.029   9.054  0.00  0.00    +0.000 A 
ATOM      5  N   UNL     1      43.841   4.929   9.636  0.00  0.00    +0.000 N 
ATOM      6  N   UNL     1      45.527   4.525   8.095  0.00  0.00    +0.000 NA
ATOM      7  C   UNL     1      46.353   3.660   7.442  0.00  0.00    +0.000 A 
ATOM      8  H   UNL     1      44.113   5.866   9.341  0.00  0.00    +0.000 HD
ENDROOT
BRANCH   1  10
ATOM      9  N   UNL     1      48.446   2.025   6.408  0.00  0.00    +0.000 N 
ATOM     10  C   UNL     1      47.315   1.440   6.912  0.00  0.00    +0.000 C 
ATOM     11  O   UNL     1      47.086   0.252   6.741  0.00  0.00    +0.000 OA
ATOM     12  H   UNL     1      49.110   1.406   5.956  0.00  0.00    +0.000 HD
ATOM     13  H   UNL     1      48.794   2.915   6.735  0.00  0.00    +0.000 HD
ENDBRANCH   1  10
BRANCH   5  14
ATOM     14  C   UNL     1      43.569   4.785  11.054  0.00  0.00    +0.000 C 
BRANCH  14  15
ATOM     15  C   UNL     1      44.741   5.255  11.880  0.00  0.00    +0.000 A 
ATOM     16  C   UNL     1      45.309   4.417  12.847  0.00  0.00    +0.000 A 
ATOM     17  C   UNL     1      46.442   4.819  13.562  0.00  0.00    +0.000 A 
ATOM     18  C   UNL     1      47.038   6.072  13.346  0.00  0.00    +0.000 A 
ATOM     19  C   UNL     1      46.431   6.918  12.399  0.00  0.00    +0.000 A 
ATOM     20  C   UNL     1      45.299   6.520  11.678  0.00  0.00    +0.000 A 
BRANCH  18  21
ATOM     21  C   UNL     1      48.237   6.506  14.088  0.00  0.00    +0.000 A 
ATOM     22  C   UNL     1      49.223   7.334  13.547  0.00  0.00    +0.000 A 
ATOM     23  N   UNL     1      50.347   7.704  14.214  0.00  0.00    +0.000 NA
ATOM     24  C   UNL     1      50.454   7.214  15.467  0.00  0.00    +0.000 A 
ATOM     25  C   UNL     1      49.481   6.409  16.030  0.00  0.00    +0.000 A 
ATOM     26  N   UNL     1      48.360   6.047  15.363  0.00  0.00    +0.000 NA
ENDBRANCH  18  21
ENDBRANCH  14  15
ENDBRANCH   5  14
TORSDOF 4
ENDMDL
MODEL 2
REMARK VINA RESULT:    -7.957      2.710      7.267
REMARK INTER + INTRA:         -10.508
REMARK INTER:                 -10.160
REMARK INTRA:                  -0.348
REMARK UNBOUND:                -0.690
REMARK  Name = 
REMARK  4 active torsions:
REMARK  status: ('A' for Active; 'I' for Inactive)
REMARK    1  A    between atoms: C_2  and  C_4
REMARK    2  A    between atoms: N_8  and  C_9
REMARK    3  A    between atoms: C_9  and  C_10
REMARK    4  A    between atoms: C_13  and  C_14
REMARK                            x       y       z     vdW  Elec       q    Type
REMARK                         _______ _______ _______ _____ _____    ______ ____
ROOT
ATOM      1  C   UNL     1      47.410   5.979  13.688  0.00  0.00    +0.000 A 
ATOM      2  C   UNL     1      46.426   6.665  12.985  0.00  0.00    +0.000 A 
ATOM      3  C   UNL     1      45.180   6.065  12.804  0.00  0.00    +0.000 A 
ATOM      4  C   UNL     1      44.944   4.785  13.299  0.00  0.00    +0.000 A 
ATOM      5  N   UNL     1      43.704   4.167  13.209  0.00  0.00    +0.000 N 
ATOM      6  N   UNL     1      45.899   4.101  13.955  0.00  0.00    +0.000 NA
ATOM      7  C   UNL     1      47.109   4.702  14.133  0.00  0.00    +0.000 A 
ATOM      8  H   UNL     1      43.815   3.200  13.510  0.00  0.00    +0.000 HD
ENDROOT
BRANCH   1  10
ATOM      9  N   UNL     1      49.456   7.017  12.890  0.00  0.00    +0.000 N 
ATOM     10  C   UNL     1      48.742   6.556  13.963  0.00  0.00    +0.000 C 
ATOM     11  O   UNL     1      49.179   6.649  15.101  0.00  0.00    +0.000 OA
ATOM     12  H   UNL     1      50.321   7.502  13.099  0.00  0.00    +0.000 HD
ATOM     13  H   UNL     1      49.036   7.192  11.988  0.00  0.00    +0.000 HD
ENDBRANCH   1  10
BRANCH   5  14
ATOM     14  C   UNL     1      42.947   4.347  11.985  0.00  0.00    +0.000 C 
BRANCH  14  15
ATOM     15  C   UNL     1      43.757   3.927  10.783  0.00  0.00    +0.000 A 
ATOM     16  C   UNL     1      44.214   4.882   9.867  0.00  0.00    +0.000 A 
ATOM     17  C   UNL     1      45.028   4.508   8.793  0.00  0.00    +0.000 A 
ATOM     18  C   UNL     1      45.402   3.169   8.589  0.00  0.00    +0.000 A 
ATOM     19  C   UNL     1      44.901   2.216   9.496  0.00  0.00    +0.000 A 
ATOM     20  C   UNL     1      44.089   2.586  10.575  0.00  0.00    +0.000 A 
BRANCH  18  21
ATOM     21  C   UNL     1      46.266   2.761   7.465  0.00  0.00    +0.000 A 
ATOM     22  C   UNL     1      47.030   1.592   7.462  0.00  0.00    +0.000 A 
ATOM     23  N   UNL     1      47.855   1.233   6.445  0.00  0.00    +0.000 NA
ATOM     24  C   UNL     1      47.890   2.093   5.407  0.00  0.00    +0.000 A 
ATOM     25  C   UNL     1      47.126   3.246   5.379  0.00  0.00    +0.000 A 
ATOM     26  N   UNL     1      46.301   3.598   6.392  0.00  0.00    +0.000 NA
ENDBRANCH  18  21
ENDBRANCH  14  15
ENDBRANCH   5  14
TORSDOF 4
ENDMDL
MODEL 3
REMARK VINA RESULT:    -6.860      1.896      2.321
REMARK INTER + INTRA:          -9.154
REMARK INTER:                  -8.892
REMARK INTRA:                  -0.262
REMARK UNBOUND:                -0.690
REMARK  Name = 
REMARK  4 active torsions:
REMARK  status: ('A' for Active; 'I' for Inactive)
REMARK    1  A    between atoms: C_2  and  C_4
REMARK    2  A    between atoms: N_8  and  C_9
REMARK    3  A    between atoms: C_9  and  C_10
REMARK    4  A    between atoms: C_13  and  C_14
REMARK                            x       y       z     vdW  Elec       q    Type
REMARK                         _______ _______ _______ _____ _____    ______ ____
ROOT
ATOM      1  C   UNL     1      46.432   2.585   7.432  0.00  0.00    +0.000 A 
ATOM      2  C   UNL     1      46.305   3.839   8.017  0.00  0.00    +0.000 A 
ATOM      3  C   UNL     1      45.548   3.970   9.182  0.00  0.00    +0.000 A 
ATOM      4  C   UNL     1      44.909   2.859   9.727  0.00  0.00    +0.000 A 
ATOM      5  N   UNL     1      44.202   2.915  10.920  0.00  0.00    +0.000 N 
ATOM      6  N   UNL     1      45.002   1.646   9.151  0.00  0.00    +0.000 NA
ATOM      7  C   UNL     1      45.752   1.530   8.019  0.00  0.00    +0.000 A 
ATOM      8  H   UNL     1      43.717   2.027  11.036  0.00  0.00    +0.000 HD
ENDROOT
BRANCH   1  10
ATOM      9  N   UNL     1      47.136   3.256   5.206  0.00  0.00    +0.000 N 
ATOM     10  C   UNL     1      47.249   2.347   6.224  0.00  0.00    +0.000 C 
ATOM     11  O   UNL     1      48.017   1.400   6.144  0.00  0.00    +0.000 OA
ATOM     12  H   UNL     1      47.773   3.142   4.427  0.00  0.00    +0.000 HD
ATOM     13  H   UNL     1      46.720   4.169   5.332  0.00  0.00    +0.000 HD
ENDBRANCH   1  10
BRANCH   5  14
ATOM     14  C   UNL     1      43.394   4.094  11.170  0.00  0.00    +0.000 C 
BRANCH  14  15
ATOM     15  C   UNL     1      44.244   5.234  11.676  0.00  0.00    +0.000 A 
ATOM     16  C   UNL     1      45.285   4.995  12.580  0.00  0.00    +0.000 A 
ATOM     17  C   UNL     1      46.124   6.036  12.994  0.00  0.00    +0.000 A 
ATOM     18  C   UNL     1      45.943   7.350  12.529  0.00  0.00    +0.000 A 
ATOM     19  C   UNL     1      44.867   7.580  11.652  0.00  0.00    +0.000 A 
ATOM     20  C   UNL     1      44.028   6.541  11.231  0.00  0.00    +0.000 A 
BRANCH  18  21
ATOM     21  C   UNL     1      46.824   8.456  12.951  0.00  0.00    +0.000 A 
ATOM     22  C   UNL     1      46.945   9.657  12.250  0.00  0.00    +0.000 A 
ATOM     23  N   UNL     1      47.784  10.662  12.614  0.00  0.00    +0.000 NA
ATOM     24  C   UNL     1      48.508  10.426  13.728  0.00  0.00    +0.000 A 
ATOM     25  C   UNL     1      48.389   9.252  14.449  0.00  0.00    +0.000 A 
ATOM     26  N   UNL     1      47.549   8.255  14.085  0.00  0.00    +0.000 NA
ENDBRANCH  18  21
ENDBRANCH  14  15
ENDBRANCH   5  14
TORSDOF 4
ENDMDL
MODEL 4
REMARK VINA RESULT:    -6.557      4.513      6.671
REMARK INTER + INTRA:          -8.780
REMARK INTER:                  -8.372
REMARK INTRA:                  -0.408
REMARK UNBOUND:                -0.690
REMARK  Name = 
REMARK  4 active torsions:
REMARK  status: ('A' for Active; 'I' for Inactive)
REMARK    1  A    between atoms: C_2  and  C_4
REMARK    2  A    between atoms: N_8  and  C_9
REMARK    3  A    between atoms: C_9  and  C_10
REMARK    4  A    between atoms: C_13  and  C_14
REMARK                            x       y       z     vdW  Elec       q    Type
REMARK                         _______ _______ _______ _____ _____    ______ ____
ROOT
ATOM      1  C   UNL     1      44.521   4.862  11.918  0.00  0.00    +0.000 A 
ATOM      2  C   UNL     1      45.076   5.727  12.854  0.00  0.00    +0.000 A 
ATOM      3  C   UNL     1      46.003   5.230  13.770  0.00  0.00    +0.000 A 
ATOM      4  C   UNL     1      46.339   3.878  13.758  0.00  0.00    +0.000 A 
ATOM      5  N   UNL     1      47.305   3.342  14.598  0.00  0.00    +0.000 N 
ATOM      6  N   UNL     1      45.785   3.027  12.876  0.00  0.00    +0.000 NA
ATOM      7  C   UNL     1      44.888   3.527  11.979  0.00  0.00    +0.000 A 
ATOM      8  H   UNL     1      47.273   2.328  14.503  0.00  0.00    +0.000 HD
ENDROOT
BRANCH   1  10
ATOM      9  N   UNL     1      42.849   6.448  11.150  0.00  0.00    +0.000 N 
ATOM     10  C   UNL     1      43.565   5.311  10.884  0.00  0.00    +0.000 C 
ATOM     11  O   UNL     1      43.440   4.717   9.824  0.00  0.00    +0.000 OA
ATOM     12  H   UNL     1      42.273   6.804  10.395  0.00  0.00    +0.000 HD
ATOM     13  H   UNL     1      43.103   7.096  11.881  0.00  0.00    +0.000 HD
ENDBRANCH   1  10
BRANCH   5  14
ATOM     14  C   UNL     1      47.357   3.829  15.964  0.00  0.00    +0.000 C 
BRANCH  14  15
ATOM     15  C   UNL     1      48.674   3.479  16.613  0.00  0.00    +0.000 A 
ATOM     16  C   UNL     1      49.169   2.171  16.552  0.00  0.00    +0.000 A 
ATOM     17  C   UNL     1      50.423   1.857  17.086  0.00  0.00    +0.000 A 
ATOM     18  C   UNL     1      51.219   2.834  17.709  0.00  0.00    +0.000 A 
ATOM     19  C   UNL     1      50.689   4.135  17.797  0.00  0.00    +0.000 A 
ATOM     20  C   UNL     1      49.436   4.455  17.261  0.00  0.00    +0.000 A 
BRANCH  18  21
ATOM     21  C   UNL     1      52.546   2.519  18.270  0.00  0.00    +0.000 A 
ATOM     22  C   UNL     1      53.243   1.341  17.992  0.00  0.00    +0.000 A 
ATOM     23  N   UNL     1      54.448   1.031  18.537  0.00  0.00    +0.000 NA
ATOM     24  C   UNL     1      54.947   1.957  19.382  0.00  0.00    +0.000 A 
ATOM     25  C   UNL     1      54.285   3.139  19.656  0.00  0.00    +0.000 A 
ATOM     26  N   UNL     1      53.086   3.446  19.107  0.00  0.00    +0.000 NA
ENDBRANCH  18  21
ENDBRANCH  14  15
ENDBRANCH   5  14
TORSDOF 4
ENDMDL
MODEL 5
REMARK VINA RESULT:    -6.393      4.706      7.008
REMARK INTER + INTRA:          -8.578
REMARK INTER:                  -8.085
REMARK INTRA:                  -0.492
REMARK UNBOUND:                -0.690
REMARK  Name = 
REMARK  4 active torsions:
REMARK  status: ('A' for Active; 'I' for Inactive)
REMARK    1  A    between atoms: C_2  and  C_4
REMARK    2  A    between atoms: N_8  and  C_9
REMARK    3  A    between atoms: C_9  and  C_10
REMARK    4  A    between atoms: C_13  and  C_14
REMARK                            x       y       z     vdW  Elec       q    Type
REMARK                         _______ _______ _______ _____ _____    ______ ____
ROOT
ATOM      1  C   UNL     1      45.920   5.661  12.114  0.00  0.00    +0.000 A 
ATOM      2  C   UNL     1      47.094   6.068  12.738  0.00  0.00    +0.000 A 
ATOM      3  C   UNL     1      47.487   5.437  13.918  0.00  0.00    +0.000 A 
ATOM      4  C   UNL     1      46.693   4.434  14.471  0.00  0.00    +0.000 A 
ATOM      5  N   UNL     1      47.068   3.725  15.604  0.00  0.00    +0.000 N 
ATOM      6  N   UNL     1      45.540   4.054  13.890  0.00  0.00    +0.000 NA
ATOM      7  C   UNL     1      45.173   4.672  12.732  0.00  0.00    +0.000 A 
ATOM      8  H   UNL     1      46.275   3.154  15.890  0.00  0.00    +0.000 HD
ENDROOT
BRANCH   1  10
ATOM      9  N   UNL     1      44.609   7.321  10.919  0.00  0.00    +0.000 N 
ATOM     10  C   UNL     1      45.451   6.244  10.839  0.00  0.00    +0.000 C 
ATOM     11  O   UNL     1      45.822   5.808   9.760  0.00  0.00    +0.000 OA
ATOM     12  H   UNL     1      44.376   7.775  10.043  0.00  0.00    +0.000 HD
ATOM     13  H   UNL     1      44.488   7.860  11.765  0.00  0.00    +0.000 HD
ENDBRANCH   1  10
BRANCH   5  14
ATOM     14  C   UNL     1      47.717   4.457  16.675  0.00  0.00    +0.000 C 
BRANCH  14  15
ATOM     15  C   UNL     1      49.021   3.804  17.064  0.00  0.00    +0.000 A 
ATOM     16  C   UNL     1      49.211   2.431  16.873  0.00  0.00    +0.000 A 
ATOM     17  C   UNL     1      50.443   1.834  17.161  0.00  0.00    +0.000 A 
ATOM     18  C   UNL     1      51.521   2.584  17.660  0.00  0.00    +0.000 A 
ATOM     19  C   UNL     1      51.300   3.956  17.883  0.00  0.00    +0.000 A 
ATOM     20  C   UNL     1      50.071   4.560  17.593  0.00  0.00    +0.000 A 
BRANCH  18  21
ATOM     21  C   UNL     1      52.828   1.970  17.961  0.00  0.00    +0.000 A 
ATOM     22  C   UNL     1      54.015   2.696  18.074  0.00  0.00    +0.000 A 
ATOM     23  N   UNL     1      55.226   2.129  18.314  0.00  0.00    +0.000 NA
ATOM     24  C   UNL     1      55.212   0.786  18.444  0.00  0.00    +0.000 A 
ATOM     25  C   UNL     1      54.045   0.049  18.356  0.00  0.00    +0.000 A 
ATOM     26  N   UNL     1      52.840   0.619  18.123  0.00  0.00    +0.000 NA
ENDBRANCH  18  21
ENDBRANCH  14  15
ENDBRANCH   5  14
TORSDOF 4
ENDMDL
MODEL 6
REMARK VINA RESULT:    -6.104      3.356      7.450
REMARK INTER + INTRA:          -8.221
REMARK INTER:                  -7.724
REMARK INTRA:                  -0.497
REMARK UNBOUND:                -0.690
REMARK  Name = 
REMARK  4 active torsions:
REMARK  status: ('A' for Active; 'I' for Inactive)
REMARK    1  A    between atoms: C_2  and  C_4
REMARK    2  A    between atoms: N_8  and  C_9
REMARK    3  A    between atoms: C_9  and  C_10
REMARK    4  A    between atoms: C_13  and  C_14
REMARK                            x       y       z     vdW  Elec       q    Type
REMARK                         _______ _______ _______ _____ _____    ______ ____
ROOT
ATOM      1  C   UNL     1      46.225   8.918  12.208  0.00  0.00    +0.000 A 
ATOM      2  C   UNL     1      44.983   8.908  11.583  0.00  0.00    +0.000 A 
ATOM      3  C   UNL     1      44.099   7.862  11.849  0.00  0.00    +0.000 A 
ATOM      4  C   UNL     1      44.476   6.832  12.708  0.00  0.00    +0.000 A 
ATOM      5  N   UNL     1      43.613   5.804  13.063  0.00  0.00    +0.000 N 
ATOM      6  N   UNL     1      45.687   6.817  13.294  0.00  0.00    +0.000 NA
ATOM      7  C   UNL     1      46.537   7.850  13.034  0.00  0.00    +0.000 A 
ATOM      8  H   UNL     1      44.152   5.110  13.579  0.00  0.00    +0.000 HD
ENDROOT
BRANCH   1  10
ATOM      9  N   UNL     1      46.819  11.266  12.396  0.00  0.00    +0.000 N 
ATOM     10  C   UNL     1      47.205  10.007  12.018  0.00  0.00    +0.000 C 
ATOM     11  O   UNL     1      48.323   9.795  11.574  0.00  0.00    +0.000 OA
ATOM     12  H   UNL     1      47.531  11.986  12.357  0.00  0.00    +0.000 HD
ATOM     13  H   UNL     1      46.021  11.437  12.992  0.00  0.00    +0.000 HD
ENDBRANCH   1  10
BRANCH   5  14
ATOM     14  C   UNL     1      42.744   5.267  12.034  0.00  0.00    +0.000 C 
BRANCH  14  15
ATOM     15  C   UNL     1      43.535   4.500  11.003  0.00  0.00    +0.000 A 
ATOM     16  C   UNL     1      43.868   5.093   9.779  0.00  0.00    +0.000 A 
ATOM     17  C   UNL     1      44.666   4.414   8.852  0.00  0.00    +0.000 A 
ATOM     18  C   UNL     1      45.147   3.119   9.108  0.00  0.00    +0.000 A 
ATOM     19  C   UNL     1      44.770   2.523  10.326  0.00  0.00    +0.000 A 
ATOM     20  C   UNL     1      43.975   3.198  11.260  0.00  0.00    +0.000 A 
BRANCH  18  21
ATOM     21  C   UNL     1      45.995   2.394   8.142  0.00  0.00    +0.000 A 
ATOM     22  C   UNL     1      46.640   3.009   7.067  0.00  0.00    +0.000 A 
ATOM     23  N   UNL     1      47.389   2.339   6.154  0.00  0.00    +0.000 NA
ATOM     24  C   UNL     1      47.480   1.009   6.357  0.00  0.00    +0.000 A 
ATOM     25  C   UNL     1      46.867   0.382   7.425  0.00  0.00    +0.000 A 
ATOM     26  N   UNL     1      46.124   1.054   8.336  0.00  0.00    +0.000 NA
ENDBRANCH  18  21
ENDBRANCH  14  15
ENDBRANCH   5  14
TORSDOF 4
ENDMDL
