MODEL 1
REMARK VINA RESULT:    -7.682      0.000      0.000
REMARK INTER + INTRA:         -10.113
REMARK INTER:                  -9.703
REMARK INTRA:                  -0.409
REMARK UNBOUND:                -0.409
REMARK  Name = 
REMARK  5 active torsions:
REMARK  status: ('A' for Active; 'I' for Inactive)
REMARK    1  A    between atoms: N_1  and  C_2
REMARK    2  A    between atoms: C_2  and  C_3
REMARK    3  A    between atoms: C_3  and  C_4
REMARK    4  A    between atoms: C_7  and  C_8
REMARK    5  A    between atoms: C_8  and  N_9
REMARK                            x       y       z     vdW  Elec       q    Type
REMARK                         _______ _______ _______ _____ _____    ______ ____
ROOT
ATOM      1  C   UNL     1      45.605   2.882   7.846  0.00  0.00    +0.000 A 
ATOM      2  C   UNL     1      45.269   1.877   8.766  0.00  0.00    +0.000 A 
ATOM      3  C   UNL     1      44.528   2.175   9.912  0.00  0.00    +0.000 A 
ATOM      4  C   UNL     1      44.114   3.490  10.182  0.00  0.00    +0.000 A 
ATOM      5  C   UNL     1      44.459   4.492   9.268  0.00  0.00    +0.000 A 
ATOM      6  C   UNL     1      45.194   4.190   8.118  0.00  0.00    +0.000 A 
ENDROOT
BRANCH   1   7
ATOM      7  C   UNL     1      46.473   2.627   6.630  0.00  0.00    +0.000 C 
BRANCH   7   8
ATOM      8  C   UNL     1      47.773   1.847   6.871  0.00  0.00    +0.000 C 
BRANCH   8   9
ATOM      9  N   UNL     1      48.607   1.828   5.667  0.00  0.00    +0.000 NA
ATOM     10  H   UNL     1      48.842   0.864   5.437  0.00  0.00    +0.000 HD
ATOM     11  H   UNL     1      49.491   2.299   5.855  0.00  0.00    +0.000 HD
ENDBRANCH   8   9
ENDBRANCH   7   8
ENDBRANCH   1   7
BRANCH   4  12
ATOM     12  C   UNL     1      43.415   3.842  11.479  0.00  0.00    +0.000 C 
BRANCH  12  13
ATOM     13  N   UNL     1      43.929   5.107  11.995  0.00  0.00    +0.000 N 
ATOM     14  N   UNL     1      43.373   6.270  11.582  0.00  0.00    +0.000 NA
ATOM     15  C   UNL     1      44.338   7.165  11.802  0.00  0.00    +0.000 A 
ATOM     16  C   UNL     1      45.470   6.603  12.434  0.00  0.00    +0.000 A 
ATOM     17  C   UNL     1      46.743   7.055  12.815  0.00  0.00    +0.000 A 
ATOM     18  C   UNL     1      47.582   6.164  13.487  0.00  0.00    +0.000 A 
ATOM     19  F   UNL     1      48.815   6.564  13.827  0.00  0.00    +0.000 F 
ATOM     20  C   UNL     1      47.175   4.875  13.815  0.00  0.00    +0.000 A 
ATOM     21  C   UNL     1      45.925   4.399  13.413  0.00  0.00    +0.000 A 
ATOM     22  C   UNL     1      45.111   5.281  12.686  0.00  0.00    +0.000 A 
ENDBRANCH  12  13
ENDBRANCH   4  12
TORSDOF 5
ENDMDL
MODEL 2
REMARK VINA RESULT:    -7.607      1.370      2.146
REMARK INTER + INTRA:         -10.018
REMARK INTER:                  -9.506
REMARK INTRA:                  -0.512
REMARK UNBOUND:                -0.409
REMARK  Name = 
REMARK  5 active torsions:
REMARK  status: ('A' for Active; 'I' for Inactive)
REMARK    1  A    between atoms: N_1  and  C_2
REMARK    2  A    between atoms: C_2  and  C_3
REMARK    3  A    between atoms: C_3  and  C_4
REMARK    4  A    between atoms: C_7  and  C_8
REMARK    5  A    between atoms: C_8  and  N_9
REMARK                            x       y       z     vdW  Elec       q    Type
REMARK                         _______ _______ _______ _____ _____    ______ ____
ROOT
ATOM      1  C   UNL     1      45.826   3.057   7.856  0.00  0.00    +0.000 A 
ATOM      2  C   UNL     1      45.250   2.310   8.895  0.00  0.00    +0.000 A 
ATOM      3  C   UNL     1      44.844   2.929  10.080  0.00  0.00    +0.000 A 
ATOM      4  C   UNL     1      45.017   4.309  10.270  0.00  0.00    +0.000 A 
ATOM      5  C   UNL     1      45.602   5.050   9.236  0.00  0.00    +0.000 A 
ATOM      6  C   UNL     1      46.000   4.431   8.047  0.00  0.00    +0.000 A 
ENDROOT
BRANCH   1   7
ATOM      7  C   UNL     1      46.356   2.425   6.584  0.00  0.00    +0.000 C 
BRANCH   7   8
ATOM      8  C   UNL     1      47.626   1.575   6.723  0.00  0.00    +0.000 C 
BRANCH   8   9
ATOM      9  N   UNL     1      48.579   1.874   5.651  0.00  0.00    +0.000 NA
ATOM     10  H   UNL     1      48.567   2.875   5.461  0.00  0.00    +0.000 HD
ATOM     11  H   UNL     1      48.282   1.417   4.790  0.00  0.00    +0.000 HD
ENDBRANCH   8   9
ENDBRANCH   7   8
ENDBRANCH   1   7
BRANCH   4  12
ATOM     12  C   UNL     1      44.691   4.966  11.595  0.00  0.00    +0.000 C 
BRANCH  12  13
ATOM     13  N   UNL     1      45.850   4.906  12.480  0.00  0.00    +0.000 N 
ATOM     14  N   UNL     1      45.890   3.976  13.464  0.00  0.00    +0.000 NA
ATOM     15  C   UNL     1      46.749   4.497  14.342  0.00  0.00    +0.000 A 
ATOM     16  C   UNL     1      47.326   5.705  13.890  0.00  0.00    +0.000 A 
ATOM     17  C   UNL     1      48.198   6.668  14.421  0.00  0.00    +0.000 A 
ATOM     18  C   UNL     1      48.579   7.731  13.601  0.00  0.00    +0.000 A 
ATOM     19  F   UNL     1      49.381   8.682  14.100  0.00  0.00    +0.000 F 
ATOM     20  C   UNL     1      48.151   7.834  12.281  0.00  0.00    +0.000 A 
ATOM     21  C   UNL     1      47.256   6.902  11.750  0.00  0.00    +0.000 A 
ATOM     22  C   UNL     1      46.831   5.869  12.599  0.00  0.00    +0.000 A 
ENDBRANCH  12  13
ENDBRANCH   4  12
TORSDOF 5
ENDMDL
MODEL 3
REMARK VINA RESULT:    -7.093      2.804      6.344
REMARK INTER + INTRA:          -9.368
REMARK INTER:                  -8.877
REMARK INTRA:                  -0.491
REMARK UNBOUND:                -0.409
REMARK  Name = 
REMARK  5 active torsions:
REMARK  status: ('A' for Active; 'I' for Inactive)
REMARK    1  A    between atoms: N_1  and  C_2
REMARK    2  A    between atoms: C_2  and  C_3
REMARK    3  A    between atoms: C_3  and  C_4
REMARK    4  A    between atoms: C_7  and  C_8
REMARK    5  A    between atoms: C_8  and  N_9
REMARK                            x       y       z     vdW  Elec       q    Type
REMARK                         _______ _______ _______ _____ _____    ______ ____
ROOT
ATOM      1  C   UNL     1      47.303   5.592  13.920  0.00  0.00    +0.000 A 
ATOM      2  C   UNL     1      46.185   4.745  13.961  0.00  0.00    +0.000 A 
ATOM      3  C   UNL     1      45.288   4.693  12.891  0.00  0.00    +0.000 A 
ATOM      4  C   UNL     1      45.471   5.499  11.755  0.00  0.00    +0.000 A 
ATOM      5  C   UNL     1      46.582   6.351  11.722  0.00  0.00    +0.000 A 
ATOM      6  C   UNL     1      47.483   6.394  12.790  0.00  0.00    +0.000 A 
ENDROOT
BRANCH   1   7
ATOM      7  C   UNL     1      48.262   5.744  15.085  0.00  0.00    +0.000 C 
BRANCH   7   8
ATOM      8  C   UNL     1      47.936   4.934  16.347  0.00  0.00    +0.000 C 
BRANCH   8   9
ATOM      9  N   UNL     1      48.890   3.837  16.529  0.00  0.00    +0.000 NA
ATOM     10  H   UNL     1      49.838   4.197  16.435  0.00  0.00    +0.000 HD
ATOM     11  H   UNL     1      48.771   3.153  15.783  0.00  0.00    +0.000 HD
ENDBRANCH   8   9
ENDBRANCH   7   8
ENDBRANCH   1   7
BRANCH   4  12
ATOM     12  C   UNL     1      44.441   5.538  10.646  0.00  0.00    +0.000 C 
BRANCH  12  13
ATOM     13  N   UNL     1      44.345   4.230  10.007  0.00  0.00    +0.000 N 
ATOM     14  N   UNL     1      43.600   3.259  10.587  0.00  0.00    +0.000 NA
ATOM     15  C   UNL     1      44.116   2.136  10.082  0.00  0.00    +0.000 A 
ATOM     16  C   UNL     1      45.122   2.381   9.121  0.00  0.00    +0.000 A 
ATOM     17  C   UNL     1      46.007   1.599   8.363  0.00  0.00    +0.000 A 
ATOM     18  C   UNL     1      46.842   2.249   7.452  0.00  0.00    +0.000 A 
ATOM     19  F   UNL     1      47.721   1.525   6.745  0.00  0.00    +0.000 F 
ATOM     20  C   UNL     1      46.788   3.625   7.256  0.00  0.00    +0.000 A 
ATOM     21  C   UNL     1      45.936   4.420   8.026  0.00  0.00    +0.000 A 
ATOM     22  C   UNL     1      45.144   3.767   8.982  0.00  0.00    +0.000 A 
ENDBRANCH  12  13
ENDBRANCH   4  12
TORSDOF 5
ENDMDL
MODEL 4
REMARK VINA RESULT:    -6.062      2.023      2.815
REMARK INTER + INTRA:          -8.066
REMARK INTER:                  -7.775
REMARK INTRA:                  -0.291
REMARK UNBOUND:                -0.409
REMARK  Name = 
REMARK  5 active torsions:
REMARK  status: ('A' for Active; 'I' for Inactive)
REMARK    1  A    between atoms: N_1  and  C_2
REMARK    2  A    between atoms: C_2  and  C_3
REMARK    3  A    between atoms: C_3  and  C_4
REMARK    4  A    between atoms: C_7  and  C_8
REMARK    5  A    between atoms: C_8  and  N_9
REMARK                            x       y       z     vdW  Elec       q    Type
REMARK                         _______ _______ _______ _____ _____    ______ ____
ROOT
ATOM      1  C   UNL     1      45.244   3.802   9.053  0.00  0.00    +0.000 A 
ATOM      2  C   UNL     1      45.623   5.144   9.204  0.00  0.00    +0.000 A 
ATOM      3  C   UNL     1      45.649   5.741  10.467  0.00  0.00    +0.000 A 
ATOM      4  C   UNL     1      45.280   5.020  11.615  0.00  0.00    +0.000 A 
ATOM      5  C   UNL     1      44.892   3.684  11.459  0.00  0.00    +0.000 A 
ATOM      6  C   UNL     1      44.875   3.086  10.195  0.00  0.00    +0.000 A 
ENDROOT
BRANCH   1   7
ATOM      7  C   UNL     1      45.122   3.129   7.699  0.00  0.00    +0.000 C 
BRANCH   7   8
ATOM      8  C   UNL     1      46.437   2.834   6.964  0.00  0.00    +0.000 C 
BRANCH   8   9
ATOM      9  N   UNL     1      46.883   3.999   6.195  0.00  0.00    +0.000 NA
ATOM     10  H   UNL     1      46.242   4.155   5.419  0.00  0.00    +0.000 HD
ATOM     11  H   UNL     1      47.792   3.806   5.778  0.00  0.00    +0.000 HD
ENDBRANCH   8   9
ENDBRANCH   7   8
ENDBRANCH   1   7
BRANCH   4  12
ATOM     12  C   UNL     1      45.190   5.692  12.969  0.00  0.00    +0.000 C 
BRANCH  12  13
ATOM     13  N   UNL     1      45.793   7.019  12.909  0.00  0.00    +0.000 N 
ATOM     14  N   UNL     1      45.003   8.102  12.719  0.00  0.00    +0.000 NA
ATOM     15  C   UNL     1      45.845   9.009  12.218  0.00  0.00    +0.000 A 
ATOM     16  C   UNL     1      47.179   8.548  12.169  0.00  0.00    +0.000 A 
ATOM     17  C   UNL     1      48.402   9.042  11.689  0.00  0.00    +0.000 A 
ATOM     18  C   UNL     1      49.546   8.268  11.888  0.00  0.00    +0.000 A 
ATOM     19  F   UNL     1      50.718   8.703  11.404  0.00  0.00    +0.000 F 
ATOM     20  C   UNL     1      49.507   7.058  12.574  0.00  0.00    +0.000 A 
ATOM     21  C   UNL     1      48.292   6.537  13.028  0.00  0.00    +0.000 A 
ATOM     22  C   UNL     1      47.138   7.293  12.772  0.00  0.00    +0.000 A 
ENDBRANCH  12  13
ENDBRANCH   4  12
TORSDOF 5
ENDMDL
MODEL 5
REMARK VINA RESULT:    -5.994      1.880      2.693
REMARK INTER + INTRA:          -7.980
REMARK INTER:                  -7.972
REMARK INTRA:                  -0.009
REMARK UNBOUND:                -0.409
REMARK  Name = 
REMARK  5 active torsions:
REMARK  status: ('A' for Active; 'I' for Inactive)
REMARK    1  A    between atoms: N_1  and  C_2
REMARK    2  A    between atoms: C_2  and  C_3
REMARK    3  A    between atoms: C_3  and  C_4
REMARK    4  A    between atoms: C_7  and  C_8
REMARK    5  A    between atoms: C_8  and  N_9
REMARK                            x       y       z     vdW  Elec       q    Type
REMARK                         _______ _______ _______ _____ _____    ______ ____
ROOT
ATOM      1  C   UNL     1      45.841   3.223   7.736  0.00  0.00    +0.000 A 
ATOM      2  C   UNL     1      45.420   2.273   8.679  0.00  0.00    +0.000 A 
ATOM      3  C   UNL     1      45.043   2.664   9.967  0.00  0.00    +0.000 A 
ATOM      4  C   UNL     1      45.092   4.013  10.356  0.00  0.00    +0.000 A 
ATOM      5  C   UNL     1      45.524   4.956   9.416  0.00  0.00    +0.000 A 
ATOM      6  C   UNL     1      45.892   4.564   8.125  0.00  0.00    +0.000 A 
ENDROOT
BRANCH   1   7
ATOM      7  C   UNL     1      46.336   2.844   6.354  0.00  0.00    +0.000 C 
BRANCH   7   8
ATOM      8  C   UNL     1      47.127   1.534   6.247  0.00  0.00    +0.000 C 
BRANCH   8   9
ATOM      9  N   UNL     1      48.482   1.693   6.782  0.00  0.00    +0.000 NA
ATOM     10  H   UNL     1      48.940   0.783   6.812  0.00  0.00    +0.000 HD
ATOM     11  H   UNL     1      48.434   2.018   7.746  0.00  0.00    +0.000 HD
ENDBRANCH   8   9
ENDBRANCH   7   8
ENDBRANCH   1   7
BRANCH   4  12
ATOM     12  C   UNL     1      44.802   4.429  11.783  0.00  0.00    +0.000 C 
BRANCH  12  13
ATOM     13  N   UNL     1      45.708   5.500  12.184  0.00  0.00    +0.000 N 
ATOM     14  N   UNL     1      46.717   5.231  13.047  0.00  0.00    +0.000 NA
ATOM     15  C   UNL     1      46.993   6.425  13.575  0.00  0.00    +0.000 A 
ATOM     16  C   UNL     1      46.235   7.467  12.996  0.00  0.00    +0.000 A 
ATOM     17  C   UNL     1      46.079   8.845  13.215  0.00  0.00    +0.000 A 
ATOM     18  C   UNL     1      45.236   9.554  12.358  0.00  0.00    +0.000 A 
ATOM     19  F   UNL     1      45.044  10.863  12.572  0.00  0.00    +0.000 F 
ATOM     20  C   UNL     1      44.589   8.943  11.289  0.00  0.00    +0.000 A 
ATOM     21  C   UNL     1      44.707   7.566  11.079  0.00  0.00    +0.000 A 
ATOM     22  C   UNL     1      45.509   6.850  11.980  0.00  0.00    +0.000 A 
ENDBRANCH  12  13
ENDBRANCH   4  12
TORSDOF 5
ENDMDL
MODEL 6
REMARK VINA RESULT:    -5.915      3.051      6.941
REMARK INTER + INTRA:          -7.881
REMARK INTER:                  -7.583
REMARK INTRA:                  -0.298
REMARK UNBOUND:                -0.409
REMARK  Name = 
REMARK  5 active torsions:
REMARK  status: ('A' for Active; 'I' for Inactive)
REMARK    1  A    between atoms: N_1  and  C_2
REMARK    2  A    between atoms: C_2  and  C_3
REMARK    3  A    between atoms: C_3  and  C_4
REMARK    4  A    between atoms: C_7  and  C_8
REMARK    5  A    between atoms: C_8  and  N_9
REMARK                            x       y       z     vdW  Elec       q    Type
REMARK                         _______ _______ _______ _____ _____    ______ ____
ROOT
ATOM      1  C   UNL     1      48.279   5.620  15.827  0.00  0.00    +0.000 A 
ATOM      2  C   UNL     1      47.525   4.804  14.970  0.00  0.00    +0.000 A 
ATOM      3  C   UNL     1      47.131   5.262  13.710  0.00  0.00    +0.000 A 
ATOM      4  C   UNL     1      47.462   6.556  13.276  0.00  0.00    +0.000 A 
ATOM      5  C   UNL     1      48.204   7.372  14.138  0.00  0.00    +0.000 A 
ATOM      6  C   UNL     1      48.605   6.909  15.395  0.00  0.00    +0.000 A 
ENDROOT
BRANCH   1   7
ATOM      7  C   UNL     1      48.664   5.202  17.233  0.00  0.00    +0.000 C 
BRANCH   7   8
ATOM      8  C   UNL     1      47.621   4.392  18.014  0.00  0.00    +0.000 C 
BRANCH   8   9
ATOM      9  N   UNL     1      46.564   5.261  18.539  0.00  0.00    +0.000 NA
ATOM     10  H   UNL     1      46.511   5.151  19.551  0.00  0.00    +0.000 HD
ATOM     11  H   UNL     1      45.661   4.962  18.173  0.00  0.00    +0.000 HD
ENDBRANCH   8   9
ENDBRANCH   7   8
ENDBRANCH   1   7
BRANCH   4  12
ATOM     12  C   UNL     1      46.937   7.102  11.965  0.00  0.00    +0.000 C 
BRANCH  12  13
ATOM     13  N   UNL     1      45.625   6.532  11.676  0.00  0.00    +0.000 N 
ATOM     14  N   UNL     1      44.636   6.637  12.595  0.00  0.00    +0.000 NA
ATOM     15  C   UNL     1      43.814   5.635  12.275  0.00  0.00    +0.000 A 
ATOM     16  C   UNL     1      44.221   4.948  11.109  0.00  0.00    +0.000 A 
ATOM     17  C   UNL     1      43.783   3.819  10.398  0.00  0.00    +0.000 A 
ATOM     18  C   UNL     1      44.453   3.486   9.220  0.00  0.00    +0.000 A 
ATOM     19  F   UNL     1      44.077   2.390   8.546  0.00  0.00    +0.000 F 
ATOM     20  C   UNL     1      45.501   4.256   8.725  0.00  0.00    +0.000 A 
ATOM     21  C   UNL     1      45.969   5.362   9.439  0.00  0.00    +0.000 A 
ATOM     22  C   UNL     1      45.329   5.656  10.653  0.00  0.00    +0.000 A 
ENDBRANCH  12  13
ENDBRANCH   4  12
TORSDOF 5
ENDMDL
MODEL 7
REMARK VINA RESULT:    -5.486      2.787      4.176
REMARK INTER + INTRA:          -7.338
REMARK INTER:                  -6.774
REMARK INTRA:                  -0.564
REMARK UNBOUND:                -0.409
REMARK  Name = 
REMARK  5 active torsions:
REMARK  status: ('A' for Active; 'I' for Inactive)
REMARK    1  A    between atoms: N_1  and  C_2
REMARK    2  A    between atoms: C_2  and  C_3
REMARK    3  A    between atoms: C_3  and  C_4
REMARK    4  A    between atoms: C_7  and  C_8
REMARK    5  A    between atoms: C_8  and  N_9
REMARK                            x       y       z     vdW  Elec       q    Type
REMARK                         _______ _______ _______ _____ _____    ______ ____
ROOT
ATOM      1  C   UNL     1      45.045   3.582  10.342  0.00  0.00    +0.000 A 
ATOM      2  C   UNL     1      45.302   4.898   9.928  0.00  0.00    +0.000 A 
ATOM      3  C   UNL     1      45.706   5.870  10.847  0.00  0.00    +0.000 A 
ATOM      4  C   UNL     1      45.849   5.561  12.209  0.00  0.00    +0.000 A 
ATOM      5  C   UNL     1      45.582   4.250  12.621  0.00  0.00    +0.000 A 
ATOM      6  C   UNL     1      45.186   3.277  11.698  0.00  0.00    +0.000 A 
ENDROOT
BRANCH   1   7
ATOM      7  C   UNL     1      44.528   2.511   9.402  0.00  0.00    +0.000 C 
BRANCH   7   8
ATOM      8  C   UNL     1      45.379   2.229   8.156  0.00  0.00    +0.000 C 
BRANCH   8   9
ATOM      9  N   UNL     1      46.146   0.991   8.311  0.00  0.00    +0.000 NA
ATOM     10  H   UNL     1      46.262   0.551   7.399  0.00  0.00    +0.000 HD
ATOM     11  H   UNL     1      45.618   0.330   8.880  0.00  0.00    +0.000 HD
ENDBRANCH   8   9
ENDBRANCH   7   8
ENDBRANCH   1   7
BRANCH   4  12
ATOM     12  C   UNL     1      46.169   6.635  13.228  0.00  0.00    +0.000 C 
BRANCH  12  13
ATOM     13  N   UNL     1      47.583   6.580  13.584  0.00  0.00    +0.000 N 
ATOM     14  N   UNL     1      47.955   6.006  14.754  0.00  0.00    +0.000 NA
ATOM     15  C   UNL     1      49.146   6.557  14.999  0.00  0.00    +0.000 A 
ATOM     16  C   UNL     1      49.580   7.405  13.956  0.00  0.00    +0.000 A 
ATOM     17  C   UNL     1      50.674   8.256  13.735  0.00  0.00    +0.000 A 
ATOM     18  C   UNL     1      50.763   8.905  12.503  0.00  0.00    +0.000 A 
ATOM     19  F   UNL     1      51.780   9.751  12.286  0.00  0.00    +0.000 F 
ATOM     20  C   UNL     1      49.828   8.700  11.494  0.00  0.00    +0.000 A 
ATOM     21  C   UNL     1      48.715   7.883  11.710  0.00  0.00    +0.000 A 
ATOM     22  C   UNL     1      48.602   7.281  12.972  0.00  0.00    +0.000 A 
ENDBRANCH  12  13
ENDBRANCH   4  12
TORSDOF 5
ENDMDL
MODEL 8
REMARK VINA RESULT:    -5.454      4.321      6.770
REMARK INTER + INTRA:          -7.298
REMARK INTER:                  -6.557
REMARK INTRA:                  -0.741
REMARK UNBOUND:                -0.409
REMARK  Name = 
REMARK  5 active torsions:
REMARK  status: ('A' for Active; 'I' for Inactive)
REMARK    1  A    between atoms: N_1  and  C_2
REMARK    2  A    between atoms: C_2  and  C_3
REMARK    3  A    between atoms: C_3  and  C_4
REMARK    4  A    between atoms: C_7  and  C_8
REMARK    5  A    between atoms: C_8  and  N_9
REMARK                            x       y       z     vdW  Elec       q    Type
REMARK                         _______ _______ _______ _____ _____    ______ ____
ROOT
ATOM      1  C   UNL     1      45.455   6.583  12.459  0.00  0.00    +0.000 A 
ATOM      2  C   UNL     1      46.301   5.496  12.727  0.00  0.00    +0.000 A 
ATOM      3  C   UNL     1      47.523   5.685  13.377  0.00  0.00    +0.000 A 
ATOM      4  C   UNL     1      47.945   6.968  13.764  0.00  0.00    +0.000 A 
ATOM      5  C   UNL     1      47.103   8.051  13.485  0.00  0.00    +0.000 A 
ATOM      6  C   UNL     1      45.877   7.859  12.842  0.00  0.00    +0.000 A 
ENDROOT
BRANCH   1   7
ATOM      7  C   UNL     1      44.157   6.444  11.687  0.00  0.00    +0.000 C 
BRANCH   7   8
ATOM      8  C   UNL     1      43.281   5.234  12.038  0.00  0.00    +0.000 C 
BRANCH   8   9
ATOM      9  N   UNL     1      42.676   5.389  13.364  0.00  0.00    +0.000 NA
ATOM     10  H   UNL     1      42.868   6.326  13.713  0.00  0.00    +0.000 HD
ATOM     11  H   UNL     1      43.119   4.746  14.019  0.00  0.00    +0.000 HD
ENDBRANCH   8   9
ENDBRANCH   7   8
ENDBRANCH   1   7
BRANCH   4  12
ATOM     12  C   UNL     1      49.318   7.196  14.359  0.00  0.00    +0.000 C 
BRANCH  12  13
ATOM     13  N   UNL     1      49.294   6.919  15.792  0.00  0.00    +0.000 N 
ATOM     14  N   UNL     1      49.525   5.658  16.230  0.00  0.00    +0.000 NA
ATOM     15  C   UNL     1      48.947   5.643  17.433  0.00  0.00    +0.000 A 
ATOM     16  C   UNL     1      48.429   6.903  17.806  0.00  0.00    +0.000 A 
ATOM     17  C   UNL     1      47.690   7.413  18.885  0.00  0.00    +0.000 A 
ATOM     18  C   UNL     1      47.411   8.780  18.903  0.00  0.00    +0.000 A 
ATOM     19  F   UNL     1      46.675   9.281  19.904  0.00  0.00    +0.000 F 
ATOM     20  C   UNL     1      47.874   9.639  17.911  0.00  0.00    +0.000 A 
ATOM     21  C   UNL     1      48.581   9.142  16.813  0.00  0.00    +0.000 A 
ATOM     22  C   UNL     1      48.806   7.757  16.773  0.00  0.00    +0.000 A 
ENDBRANCH  12  13
ENDBRANCH   4  12
TORSDOF 5
ENDMDL
MODEL 9
REMARK VINA RESULT:    -5.286      3.538      5.460
REMARK INTER + INTRA:          -7.087
REMARK INTER:                  -6.566
REMARK INTRA:                  -0.520
REMARK UNBOUND:                -0.409
REMARK  Name = 
REMARK  5 active torsions:
REMARK  status: ('A' for Active; 'I' for Inactive)
REMARK    1  A    between atoms: N_1  and  C_2
REMARK    2  A    between atoms: C_2  and  C_3
REMARK    3  A    between atoms: C_3  and  C_4
REMARK    4  A    between atoms: C_7  and  C_8
REMARK    5  A    between atoms: C_8  and  N_9
REMARK                            x       y       z     vdW  Elec       q    Type
REMARK                         _______ _______ _______ _____ _____    ______ ____
ROOT
ATOM      1  C   UNL     1      44.962   5.029  11.739  0.00  0.00    +0.000 A 
ATOM      2  C   UNL     1      45.480   4.521  12.940  0.00  0.00    +0.000 A 
ATOM      3  C   UNL     1      46.625   5.077  13.516  0.00  0.00    +0.000 A 
ATOM      4  C   UNL     1      47.298   6.144  12.900  0.00  0.00    +0.000 A 
ATOM      5  C   UNL     1      46.786   6.642  11.696  0.00  0.00    +0.000 A 
ATOM      6  C   UNL     1      45.634   6.091  11.126  0.00  0.00    +0.000 A 
ENDROOT
BRANCH   1   7
ATOM      7  C   UNL     1      43.770   4.414  11.032  0.00  0.00    +0.000 C 
BRANCH   7   8
ATOM      8  C   UNL     1      43.863   2.915  10.717  0.00  0.00    +0.000 C 
BRANCH   8   9
ATOM      9  N   UNL     1      43.071   2.128  11.666  0.00  0.00    +0.000 NA
ATOM     10  H   UNL     1      42.836   2.708  12.470  0.00  0.00    +0.000 HD
ATOM     11  H   UNL     1      43.634   1.359  12.027  0.00  0.00    +0.000 HD
ENDBRANCH   8   9
ENDBRANCH   7   8
ENDBRANCH   1   7
BRANCH   4  12
ATOM     12  C   UNL     1      48.606   6.672  13.452  0.00  0.00    +0.000 C 
BRANCH  12  13
ATOM     13  N   UNL     1      48.369   7.380  14.706  0.00  0.00    +0.000 N 
ATOM     14  N   UNL     1      48.137   8.714  14.685  0.00  0.00    +0.000 NA
ATOM     15  C   UNL     1      48.470   9.101  15.918  0.00  0.00    +0.000 A 
ATOM     16  C   UNL     1      48.826   8.019  16.753  0.00  0.00    +0.000 A 
ATOM     17  C   UNL     1      49.308   7.869  18.063  0.00  0.00    +0.000 A 
ATOM     18  C   UNL     1      49.492   6.575  18.551  0.00  0.00    +0.000 A 
ATOM     19  F   UNL     1      49.986   6.409  19.785  0.00  0.00    +0.000 F 
ATOM     20  C   UNL     1      49.177   5.451  17.793  0.00  0.00    +0.000 A 
ATOM     21  C   UNL     1      48.729   5.583  16.477  0.00  0.00    +0.000 A 
ATOM     22  C   UNL     1      48.603   6.886  15.973  0.00  0.00    +0.000 A 
ENDBRANCH  12  13
ENDBRANCH   4  12
TORSDOF 5
ENDMDL
