MODEL 1
REMARK VINA RESULT:    -8.743      0.000      0.000
REMARK INTER + INTRA:         -12.205
REMARK INTER:                 -11.299
REMARK INTRA:                  -0.906
REMARK UNBOUND:                -0.906
REMARK  Name = 
REMARK  5 active torsions:
REMARK  status: ('A' for Active; 'I' for Inactive)
REMARK    1  A    between atoms: C_2  and  C_4
REMARK    2  A    between atoms: C_7  and  O_8
REMARK    3  A    between atoms: O_8  and  C_9
REMARK    4  A    between atoms: C_9  and  C_10
REMARK    5  A    between atoms: C_14  and  C_15
REMARK                            x       y       z     vdW  Elec       q    Type
REMARK                         _______ _______ _______ _____ _____    ______ ____
ROOT
ATOM      1  C   UNL     1      43.584   4.250  11.519  0.00  0.00    +0.000 C 
ENDROOT
BRANCH   1   2
ATOM      2  C   UNL     1      44.859   4.677  12.209  0.00  0.00    +0.000 A 
ATOM      3  C   UNL     1      45.583   3.764  12.968  0.00  0.00    +0.000 A 
ATOM      4  C   UNL     1      46.780   4.173  13.541  0.00  0.00    +0.000 A 
ATOM      5  C   UNL     1      47.221   5.477  13.338  0.00  0.00    +0.000 A 
ATOM      6  C   UNL     1      46.458   6.346  12.560  0.00  0.00    +0.000 A 
ATOM      7  N   UNL     1      45.285   5.952  12.001  0.00  0.00    +0.000 NA
BRANCH   6   8
ATOM      8  C   UNL     1      46.872   7.738  12.280  0.00  0.00    +0.000 A 
ATOM      9  C   UNL     1      48.213   8.050  11.977  0.00  0.00    +0.000 A 
ATOM     10  C   UNL     1      48.616   9.362  11.701  0.00  0.00    +0.000 A 
ATOM     11  C   UNL     1      47.683  10.393  11.727  0.00  0.00    +0.000 A 
ATOM     12  C   UNL     1      46.361  10.104  12.035  0.00  0.00    +0.000 A 
ATOM     13  F   UNL     1      45.458  11.093  12.068  0.00  0.00    +0.000 F 
ATOM     14  C   UNL     1      45.954   8.801  12.310  0.00  0.00    +0.000 A 
ENDBRANCH   6   8
ENDBRANCH   1   2
BRANCH   1  15
ATOM     15  O   UNL     1      43.654   4.539  10.120  0.00  0.00    +0.000 OA
BRANCH  15  19
ATOM     16  C   UNL     1      46.366   2.436   7.742  0.00  0.00    +0.000 A 
ATOM     17  C   UNL     1      45.560   1.716   8.632  0.00  0.00    +0.000 A 
ATOM     18  C   UNL     1      44.640   2.385   9.447  0.00  0.00    +0.000 A 
ATOM     19  C   UNL     1      44.516   3.774   9.380  0.00  0.00    +0.000 A 
ATOM     20  C   UNL     1      45.328   4.489   8.496  0.00  0.00    +0.000 A 
ATOM     21  C   UNL     1      46.254   3.828   7.683  0.00  0.00    +0.000 A 
BRANCH  16  23
ATOM     22  N   UNL     1      48.450   2.501   6.482  0.00  0.00    +0.000 N 
ATOM     23  C   UNL     1      47.370   1.761   6.880  0.00  0.00    +0.000 C 
ATOM     24  O   UNL     1      47.258   0.586   6.559  0.00  0.00    +0.000 OA
ATOM     25  H   UNL     1      49.171   2.003   5.975  0.00  0.00    +0.000 HD
ATOM     26  H   UNL     1      48.706   3.370   6.929  0.00  0.00    +0.000 HD
ENDBRANCH  16  23
ENDBRANCH  15  19
ENDBRANCH   1  15
TORSDOF 5
ENDMDL
MODEL 2
REMARK VINA RESULT:    -8.687      1.014      1.409
REMARK INTER + INTRA:         -12.133
REMARK INTER:                 -11.257
REMARK INTRA:                  -0.875
REMARK UNBOUND:                -0.906
REMARK  Name = 
REMARK  5 active torsions:
REMARK  status: ('A' for Active; 'I' for Inactive)
REMARK    1  A    between atoms: C_2  and  C_4
REMARK    2  A    between atoms: C_7  and  O_8
REMARK    3  A    between atoms: O_8  and  C_9
REMARK    4  A    between atoms: C_9  and  C_10
REMARK    5  A    between atoms: C_14  and  C_15
REMARK                            x       y       z     vdW  Elec       q    Type
REMARK                         _______ _______ _______ _____ _____    ______ ____
ROOT
ATOM      1  C   UNL     1      43.547   4.272  11.415  0.00  0.00    +0.000 C 
ENDROOT
BRANCH   1   2
ATOM      2  C   UNL     1      44.826   4.640  12.132  0.00  0.00    +0.000 A 
ATOM      3  C   UNL     1      45.494   3.692  12.900  0.00  0.00    +0.000 A 
ATOM      4  C   UNL     1      46.696   4.046  13.499  0.00  0.00    +0.000 A 
ATOM      5  C   UNL     1      47.196   5.331  13.312  0.00  0.00    +0.000 A 
ATOM      6  C   UNL     1      46.487   6.236  12.524  0.00  0.00    +0.000 A 
ATOM      7  N   UNL     1      45.310   5.896  11.940  0.00  0.00    +0.000 NA
BRANCH   6   8
ATOM      8  C   UNL     1      46.967   7.611  12.260  0.00  0.00    +0.000 A 
ATOM      9  C   UNL     1      46.099   8.716  12.364  0.00  0.00    +0.000 A 
ATOM     10  C   UNL     1      46.543  10.022  12.126  0.00  0.00    +0.000 A 
ATOM     11  C   UNL     1      47.869  10.248  11.772  0.00  0.00    +0.000 A 
ATOM     12  C   UNL     1      48.733   9.169  11.655  0.00  0.00    +0.000 A 
ATOM     13  F   UNL     1      50.010   9.379  11.308  0.00  0.00    +0.000 F 
ATOM     14  C   UNL     1      48.298   7.869  11.890  0.00  0.00    +0.000 A 
ENDBRANCH   6   8
ENDBRANCH   1   2
BRANCH   1  15
ATOM     15  O   UNL     1      43.658   4.564  10.019  0.00  0.00    +0.000 OA
BRANCH  15  19
ATOM     16  C   UNL     1      46.409   2.436   7.710  0.00  0.00    +0.000 A 
ATOM     17  C   UNL     1      45.564   1.722   8.567  0.00  0.00    +0.000 A 
ATOM     18  C   UNL     1      44.630   2.399   9.359  0.00  0.00    +0.000 A 
ATOM     19  C   UNL     1      44.530   3.791   9.300  0.00  0.00    +0.000 A 
ATOM     20  C   UNL     1      45.381   4.500   8.449  0.00  0.00    +0.000 A 
ATOM     21  C   UNL     1      46.322   3.830   7.660  0.00  0.00    +0.000 A 
BRANCH  16  23
ATOM     22  N   UNL     1      48.487   2.503   6.440  0.00  0.00    +0.000 N 
ATOM     23  C   UNL     1      47.429   1.752   6.874  0.00  0.00    +0.000 C 
ATOM     24  O   UNL     1      47.349   0.561   6.605  0.00  0.00    +0.000 OA
ATOM     25  H   UNL     1      49.219   2.002   5.952  0.00  0.00    +0.000 HD
ATOM     26  H   UNL     1      48.720   3.397   6.847  0.00  0.00    +0.000 HD
ENDBRANCH  16  23
ENDBRANCH  15  19
ENDBRANCH   1  15
TORSDOF 5
ENDMDL
MODEL 3
REMARK VINA RESULT:    -7.806      3.614      6.947
REMARK INTER + INTRA:         -10.994
REMARK INTER:                 -10.213
REMARK INTRA:                  -0.781
REMARK UNBOUND:                -0.906
REMARK  Name = 
REMARK  5 active torsions:
REMARK  status: ('A' for Active; 'I' for Inactive)
REMARK    1  A    between atoms: C_2  and  C_4
REMARK    2  A    between atoms: C_7  and  O_8
REMARK    3  A    between atoms: O_8  and  C_9
REMARK    4  A    between atoms: C_9  and  C_10
REMARK    5  A    between atoms: C_14  and  C_15
REMARK                            x       y       z     vdW  Elec       q    Type
REMARK                         _______ _______ _______ _____ _____    ______ ____
ROOT
ATOM      1  C   UNL     1      43.974   6.542  11.443  0.00  0.00    +0.000 C 
ENDROOT
BRANCH   1   2
ATOM      2  C   UNL     1      44.012   5.051  11.191  0.00  0.00    +0.000 A 
ATOM      3  C   UNL     1      43.266   4.189  11.987  0.00  0.00    +0.000 A 
ATOM      4  C   UNL     1      43.278   2.832  11.692  0.00  0.00    +0.000 A 
ATOM      5  C   UNL     1      44.029   2.376  10.613  0.00  0.00    +0.000 A 
ATOM      6  C   UNL     1      44.750   3.289   9.845  0.00  0.00    +0.000 A 
ATOM      7  N   UNL     1      44.745   4.616  10.131  0.00  0.00    +0.000 NA
BRANCH   6   8
ATOM      8  C   UNL     1      45.552   2.884   8.669  0.00  0.00    +0.000 A 
ATOM      9  C   UNL     1      45.954   3.829   7.704  0.00  0.00    +0.000 A 
ATOM     10  C   UNL     1      46.721   3.461   6.592  0.00  0.00    +0.000 A 
ATOM     11  C   UNL     1      47.096   2.133   6.420  0.00  0.00    +0.000 A 
ATOM     12  C   UNL     1      46.698   1.189   7.355  0.00  0.00    +0.000 A 
ATOM     13  F   UNL     1      47.051  -0.094   7.192  0.00  0.00    +0.000 F 
ATOM     14  C   UNL     1      45.936   1.549   8.463  0.00  0.00    +0.000 A 
ENDBRANCH   6   8
ENDBRANCH   1   2
BRANCH   1  15
ATOM     15  O   UNL     1      44.637   6.855  12.672  0.00  0.00    +0.000 OA
BRANCH  15  19
ATOM     16  C   UNL     1      48.745   7.584  12.517  0.00  0.00    +0.000 A 
ATOM     17  C   UNL     1      47.873   8.580  12.061  0.00  0.00    +0.000 A 
ATOM     18  C   UNL     1      46.490   8.373  12.095  0.00  0.00    +0.000 A 
ATOM     19  C   UNL     1      45.966   7.174  12.585  0.00  0.00    +0.000 A 
ATOM     20  C   UNL     1      46.841   6.180  13.031  0.00  0.00    +0.000 A 
ATOM     21  C   UNL     1      48.225   6.378  12.994  0.00  0.00    +0.000 A 
BRANCH  16  23
ATOM     22  N   UNL     1      50.851   7.454  11.299  0.00  0.00    +0.000 N 
ATOM     23  C   UNL     1      50.220   7.760  12.474  0.00  0.00    +0.000 C 
ATOM     24  O   UNL     1      50.846   8.188  13.433  0.00  0.00    +0.000 OA
ATOM     25  H   UNL     1      51.839   7.668  11.254  0.00  0.00    +0.000 HD
ATOM     26  H   UNL     1      50.353   7.353  10.427  0.00  0.00    +0.000 HD
ENDBRANCH  16  23
ENDBRANCH  15  19
ENDBRANCH   1  15
TORSDOF 5
ENDMDL
MODEL 4
REMARK VINA RESULT:    -7.669      3.847      7.541
REMARK INTER + INTRA:         -10.817
REMARK INTER:                 -10.239
REMARK INTRA:                  -0.578
REMARK UNBOUND:                -0.906
REMARK  Name = 
REMARK  5 active torsions:
REMARK  status: ('A' for Active; 'I' for Inactive)
REMARK    1  A    between atoms: C_2  and  C_4
REMARK    2  A    between atoms: C_7  and  O_8
REMARK    3  A    between atoms: O_8  and  C_9
REMARK    4  A    between atoms: C_9  and  C_10
REMARK    5  A    between atoms: C_14  and  C_15
REMARK                            x       y       z     vdW  Elec       q    Type
REMARK                         _______ _______ _______ _____ _____    ______ ____
ROOT
ATOM      1  C   UNL     1      46.103   7.129  11.787  0.00  0.00    +0.000 C 
ENDROOT
BRANCH   1   2
ATOM      2  C   UNL     1      45.233   6.027  11.224  0.00  0.00    +0.000 A 
ATOM      3  C   UNL     1      43.904   5.916  11.619  0.00  0.00    +0.000 A 
ATOM      4  C   UNL     1      43.117   4.929  11.040  0.00  0.00    +0.000 A 
ATOM      5  C   UNL     1      43.676   4.086  10.085  0.00  0.00    +0.000 A 
ATOM      6  C   UNL     1      45.012   4.251   9.722  0.00  0.00    +0.000 A 
ATOM      7  N   UNL     1      45.786   5.212  10.287  0.00  0.00    +0.000 NA
BRANCH   6   8
ATOM      8  C   UNL     1      45.670   3.410   8.698  0.00  0.00    +0.000 A 
ATOM      9  C   UNL     1      46.282   3.987   7.567  0.00  0.00    +0.000 A 
ATOM     10  C   UNL     1      46.915   3.203   6.596  0.00  0.00    +0.000 A 
ATOM     11  C   UNL     1      46.944   1.820   6.734  0.00  0.00    +0.000 A 
ATOM     12  C   UNL     1      46.336   1.235   7.836  0.00  0.00    +0.000 A 
ATOM     13  F   UNL     1      46.355  -0.097   7.972  0.00  0.00    +0.000 F 
ATOM     14  C   UNL     1      45.705   2.009   8.805  0.00  0.00    +0.000 A 
ENDBRANCH   6   8
ENDBRANCH   1   2
BRANCH   1  15
ATOM     15  O   UNL     1      47.392   6.616  12.135  0.00  0.00    +0.000 OA
BRANCH  15  19
ATOM     16  C   UNL     1      47.917   5.097  15.988  0.00  0.00    +0.000 A 
ATOM     17  C   UNL     1      47.108   4.385  15.095  0.00  0.00    +0.000 A 
ATOM     18  C   UNL     1      46.906   4.862  13.795  0.00  0.00    +0.000 A 
ATOM     19  C   UNL     1      47.510   6.050  13.376  0.00  0.00    +0.000 A 
ATOM     20  C   UNL     1      48.310   6.762  14.274  0.00  0.00    +0.000 A 
ATOM     21  C   UNL     1      48.510   6.294  15.577  0.00  0.00    +0.000 A 
BRANCH  16  23
ATOM     22  N   UNL     1      47.107   4.816  18.269  0.00  0.00    +0.000 N 
ATOM     23  C   UNL     1      48.134   4.632  17.383  0.00  0.00    +0.000 C 
ATOM     24  O   UNL     1      49.170   4.081  17.724  0.00  0.00    +0.000 OA
ATOM     25  H   UNL     1      47.233   4.411  19.188  0.00  0.00    +0.000 HD
ATOM     26  H   UNL     1      46.165   5.021  17.972  0.00  0.00    +0.000 HD
ENDBRANCH  16  23
ENDBRANCH  15  19
ENDBRANCH   1  15
TORSDOF 5
ENDMDL
MODEL 5
REMARK VINA RESULT:    -7.568      2.291      2.762
REMARK INTER + INTRA:         -10.686
REMARK INTER:                  -9.924
REMARK INTRA:                  -0.762
REMARK UNBOUND:                -0.906
REMARK  Name = 
REMARK  5 active torsions:
REMARK  status: ('A' for Active; 'I' for Inactive)
REMARK    1  A    between atoms: C_2  and  C_4
REMARK    2  A    between atoms: C_7  and  O_8
REMARK    3  A    between atoms: O_8  and  C_9
REMARK    4  A    between atoms: C_9  and  C_10
REMARK    5  A    between atoms: C_14  and  C_15
REMARK                            x       y       z     vdW  Elec       q    Type
REMARK                         _______ _______ _______ _____ _____    ______ ____
ROOT
ATOM      1  C   UNL     1      44.798   6.133  10.557  0.00  0.00    +0.000 C 
ENDROOT
BRANCH   1   2
ATOM      2  C   UNL     1      45.677   5.921  11.769  0.00  0.00    +0.000 A 
ATOM      3  C   UNL     1      45.299   5.018  12.757  0.00  0.00    +0.000 A 
ATOM      4  C   UNL     1      46.155   4.804  13.829  0.00  0.00    +0.000 A 
ATOM      5  C   UNL     1      47.362   5.494  13.883  0.00  0.00    +0.000 A 
ATOM      6  C   UNL     1      47.693   6.381  12.859  0.00  0.00    +0.000 A 
ATOM      7  N   UNL     1      46.857   6.596  11.811  0.00  0.00    +0.000 NA
BRANCH   6   8
ATOM      8  C   UNL     1      48.967   7.132  12.834  0.00  0.00    +0.000 A 
ATOM      9  C   UNL     1      49.537   7.555  11.617  0.00  0.00    +0.000 A 
ATOM     10  C   UNL     1      50.738   8.274  11.581  0.00  0.00    +0.000 A 
ATOM     11  C   UNL     1      51.397   8.580  12.766  0.00  0.00    +0.000 A 
ATOM     12  C   UNL     1      50.855   8.160  13.972  0.00  0.00    +0.000 A 
ATOM     13  F   UNL     1      51.488   8.446  15.118  0.00  0.00    +0.000 F 
ATOM     14  C   UNL     1      49.661   7.445  14.015  0.00  0.00    +0.000 A 
ENDBRANCH   6   8
ENDBRANCH   1   2
BRANCH   1  15
ATOM     15  O   UNL     1      44.168   4.905  10.179  0.00  0.00    +0.000 OA
BRANCH  15  19
ATOM     16  C   UNL     1      46.322   2.087   7.978  0.00  0.00    +0.000 A 
ATOM     17  C   UNL     1      46.496   3.443   7.677  0.00  0.00    +0.000 A 
ATOM     18  C   UNL     1      45.791   4.418   8.391  0.00  0.00    +0.000 A 
ATOM     19  C   UNL     1      44.910   4.049   9.410  0.00  0.00    +0.000 A 
ATOM     20  C   UNL     1      44.734   2.694   9.701  0.00  0.00    +0.000 A 
ATOM     21  C   UNL     1      45.430   1.713   8.987  0.00  0.00    +0.000 A 
BRANCH  16  23
ATOM     22  N   UNL     1      46.778  -0.273   7.577  0.00  0.00    +0.000 N 
ATOM     23  C   UNL     1      47.036   1.024   7.224  0.00  0.00    +0.000 C 
ATOM     24  O   UNL     1      47.800   1.287   6.306  0.00  0.00    +0.000 OA
ATOM     25  H   UNL     1      47.198  -0.986   6.994  0.00  0.00    +0.000 HD
ATOM     26  H   UNL     1      45.979  -0.534   8.135  0.00  0.00    +0.000 HD
ENDBRANCH  16  23
ENDBRANCH  15  19
ENDBRANCH   1  15
TORSDOF 5
ENDMDL
MODEL 6
REMARK VINA RESULT:    -7.084      1.798      1.965
REMARK INTER + INTRA:         -10.061
REMARK INTER:                  -9.454
REMARK INTRA:                  -0.607
REMARK UNBOUND:                -0.906
REMARK  Name = 
REMARK  5 active torsions:
REMARK  status: ('A' for Active; 'I' for Inactive)
REMARK    1  A    between atoms: C_2  and  C_4
REMARK    2  A    between atoms: C_7  and  O_8
REMARK    3  A    between atoms: O_8  and  C_9
REMARK    4  A    between atoms: C_9  and  C_10
REMARK    5  A    between atoms: C_14  and  C_15
REMARK                            x       y       z     vdW  Elec       q    Type
REMARK                         _______ _______ _______ _____ _____    ______ ____
ROOT
ATOM      1  C   UNL     1      45.069   6.015  10.716  0.00  0.00    +0.000 C 
ENDROOT
BRANCH   1   2
ATOM      2  C   UNL     1      45.780   5.756  12.025  0.00  0.00    +0.000 A 
ATOM      3  C   UNL     1      45.632   4.534  12.671  0.00  0.00    +0.000 A 
ATOM      4  C   UNL     1      46.344   4.308  13.842  0.00  0.00    +0.000 A 
ATOM      5  C   UNL     1      47.184   5.304  14.330  0.00  0.00    +0.000 A 
ATOM      6  C   UNL     1      47.299   6.506  13.635  0.00  0.00    +0.000 A 
ATOM      7  N   UNL     1      46.603   6.734  12.492  0.00  0.00    +0.000 NA
BRANCH   6   8
ATOM      8  C   UNL     1      48.189   7.602  14.078  0.00  0.00    +0.000 A 
ATOM      9  C   UNL     1      49.307   7.344  14.897  0.00  0.00    +0.000 A 
ATOM     10  C   UNL     1      50.162   8.370  15.315  0.00  0.00    +0.000 A 
ATOM     11  C   UNL     1      49.911   9.682  14.927  0.00  0.00    +0.000 A 
ATOM     12  C   UNL     1      48.808   9.953  14.131  0.00  0.00    +0.000 A 
ATOM     13  F   UNL     1      48.556  11.215  13.758  0.00  0.00    +0.000 F 
ATOM     14  C   UNL     1      47.954   8.937  13.711  0.00  0.00    +0.000 A 
ENDBRANCH   6   8
ENDBRANCH   1   2
BRANCH   1  15
ATOM     15  O   UNL     1      44.370   4.842  10.290  0.00  0.00    +0.000 OA
BRANCH  15  19
ATOM     16  C   UNL     1      46.533   2.485   7.607  0.00  0.00    +0.000 A 
ATOM     17  C   UNL     1      45.752   1.846   8.577  0.00  0.00    +0.000 A 
ATOM     18  C   UNL     1      45.013   2.601   9.495  0.00  0.00    +0.000 A 
ATOM     19  C   UNL     1      45.047   3.997   9.452  0.00  0.00    +0.000 A 
ATOM     20  C   UNL     1      45.835   4.630   8.487  0.00  0.00    +0.000 A 
ATOM     21  C   UNL     1      46.580   3.882   7.571  0.00  0.00    +0.000 A 
BRANCH  16  23
ATOM     22  N   UNL     1      48.516   2.288   6.205  0.00  0.00    +0.000 N 
ATOM     23  C   UNL     1      47.348   1.716   6.632  0.00  0.00    +0.000 C 
ATOM     24  O   UNL     1      47.012   0.605   6.245  0.00  0.00    +0.000 OA
ATOM     25  H   UNL     1      49.105   1.713   5.616  0.00  0.00    +0.000 HD
ATOM     26  H   UNL     1      48.947   3.063   6.686  0.00  0.00    +0.000 HD
ENDBRANCH  16  23
ENDBRANCH  15  19
ENDBRANCH   1  15
TORSDOF 5
ENDMDL
MODEL 7
REMARK VINA RESULT:    -6.791      4.573      8.261
REMARK INTER + INTRA:          -9.683
REMARK INTER:                  -9.036
REMARK INTRA:                  -0.647
REMARK UNBOUND:                -0.906
REMARK  Name = 
REMARK  5 active torsions:
REMARK  status: ('A' for Active; 'I' for Inactive)
REMARK    1  A    between atoms: C_2  and  C_4
REMARK    2  A    between atoms: C_7  and  O_8
REMARK    3  A    between atoms: O_8  and  C_9
REMARK    4  A    between atoms: C_9  and  C_10
REMARK    5  A    between atoms: C_14  and  C_15
REMARK                            x       y       z     vdW  Elec       q    Type
REMARK                         _______ _______ _______ _____ _____    ______ ____
ROOT
ATOM      1  C   UNL     1      48.177   6.963  13.970  0.00  0.00    +0.000 C 
ENDROOT
BRANCH   1   2
ATOM      2  C   UNL     1      46.960   7.148  13.092  0.00  0.00    +0.000 A 
ATOM      3  C   UNL     1      46.298   8.371  13.063  0.00  0.00    +0.000 A 
ATOM      4  C   UNL     1      45.219   8.524  12.203  0.00  0.00    +0.000 A 
ATOM      5  C   UNL     1      44.834   7.458  11.396  0.00  0.00    +0.000 A 
ATOM      6  C   UNL     1      45.541   6.258  11.461  0.00  0.00    +0.000 A 
ATOM      7  N   UNL     1      46.595   6.102  12.303  0.00  0.00    +0.000 NA
BRANCH   6   8
ATOM      8  C   UNL     1      45.207   5.089  10.618  0.00  0.00    +0.000 A 
ATOM      9  C   UNL     1      44.470   4.006  11.138  0.00  0.00    +0.000 A 
ATOM     10  C   UNL     1      44.140   2.898  10.348  0.00  0.00    +0.000 A 
ATOM     11  C   UNL     1      44.548   2.850   9.019  0.00  0.00    +0.000 A 
ATOM     12  C   UNL     1      45.284   3.903   8.496  0.00  0.00    +0.000 A 
ATOM     13  F   UNL     1      45.686   3.860   7.219  0.00  0.00    +0.000 F 
ATOM     14  C   UNL     1      45.615   5.007   9.277  0.00  0.00    +0.000 A 
ENDBRANCH   6   8
ENDBRANCH   1   2
BRANCH   1  15
ATOM     15  O   UNL     1      48.264   5.609  14.422  0.00  0.00    +0.000 OA
BRANCH  15  19
ATOM     16  C   UNL     1      48.080   5.204  18.573  0.00  0.00    +0.000 A 
ATOM     17  C   UNL     1      47.384   4.284  17.781  0.00  0.00    +0.000 A 
ATOM     18  C   UNL     1      47.419   4.387  16.387  0.00  0.00    +0.000 A 
ATOM     19  C   UNL     1      48.149   5.405  15.771  0.00  0.00    +0.000 A 
ATOM     20  C   UNL     1      48.837   6.327  16.565  0.00  0.00    +0.000 A 
ATOM     21  C   UNL     1      48.800   6.234  17.960  0.00  0.00    +0.000 A 
BRANCH  16  23
ATOM     22  N   UNL     1      48.604   4.040  20.648  0.00  0.00    +0.000 N 
ATOM     23  C   UNL     1      48.045   5.140  20.057  0.00  0.00    +0.000 C 
ATOM     24  O   UNL     1      47.567   6.042  20.730  0.00  0.00    +0.000 OA
ATOM     25  H   UNL     1      48.657   4.054  21.658  0.00  0.00    +0.000 HD
ATOM     26  H   UNL     1      49.226   3.416  20.154  0.00  0.00    +0.000 HD
ENDBRANCH  16  23
ENDBRANCH  15  19
ENDBRANCH   1  15
TORSDOF 5
ENDMDL
MODEL 8
REMARK VINA RESULT:    -6.502      5.324      7.705
REMARK INTER + INTRA:          -9.309
REMARK INTER:                  -8.725
REMARK INTRA:                  -0.584
REMARK UNBOUND:                -0.906
REMARK  Name = 
REMARK  5 active torsions:
REMARK  status: ('A' for Active; 'I' for Inactive)
REMARK    1  A    between atoms: C_2  and  C_4
REMARK    2  A    between atoms: C_7  and  O_8
REMARK    3  A    between atoms: O_8  and  C_9
REMARK    4  A    between atoms: C_9  and  C_10
REMARK    5  A    between atoms: C_14  and  C_15
REMARK                            x       y       z     vdW  Elec       q    Type
REMARK                         _______ _______ _______ _____ _____    ______ ____
ROOT
ATOM      1  C   UNL     1      48.472   6.990  14.766  0.00  0.00    +0.000 C 
ENDROOT
BRANCH   1   2
ATOM      2  C   UNL     1      49.025   6.659  16.134  0.00  0.00    +0.000 A 
ATOM      3  C   UNL     1      48.784   7.507  17.209  0.00  0.00    +0.000 A 
ATOM      4  C   UNL     1      49.257   7.145  18.464  0.00  0.00    +0.000 A 
ATOM      5  C   UNL     1      49.952   5.948  18.609  0.00  0.00    +0.000 A 
ATOM      6  C   UNL     1      50.155   5.133  17.497  0.00  0.00    +0.000 A 
ATOM      7  N   UNL     1      49.698   5.485  16.268  0.00  0.00    +0.000 NA
BRANCH   6   8
ATOM      8  C   UNL     1      50.863   3.836  17.577  0.00  0.00    +0.000 A 
ATOM      9  C   UNL     1      50.210   2.631  17.248  0.00  0.00    +0.000 A 
ATOM     10  C   UNL     1      50.871   1.399  17.311  0.00  0.00    +0.000 A 
ATOM     11  C   UNL     1      52.202   1.347  17.711  0.00  0.00    +0.000 A 
ATOM     12  C   UNL     1      52.855   2.524  18.050  0.00  0.00    +0.000 A 
ATOM     13  F   UNL     1      54.135   2.481  18.443  0.00  0.00    +0.000 F 
ATOM     14  C   UNL     1      52.203   3.752  17.989  0.00  0.00    +0.000 A 
ENDBRANCH   6   8
ENDBRANCH   1   2
BRANCH   1  15
ATOM     15  O   UNL     1      48.264   5.793  14.011  0.00  0.00    +0.000 OA
BRANCH  15  19
ATOM     16  C   UNL     1      44.610   5.555  12.005  0.00  0.00    +0.000 A 
ATOM     17  C   UNL     1      44.806   4.750  13.133  0.00  0.00    +0.000 A 
ATOM     18  C   UNL     1      46.017   4.800  13.832  0.00  0.00    +0.000 A 
ATOM     19  C   UNL     1      47.040   5.652  13.412  0.00  0.00    +0.000 A 
ATOM     20  C   UNL     1      46.844   6.448  12.281  0.00  0.00    +0.000 A 
ATOM     21  C   UNL     1      45.637   6.398  11.574  0.00  0.00    +0.000 A 
BRANCH  16  23
ATOM     22  N   UNL     1      42.262   6.155  11.755  0.00  0.00    +0.000 N 
ATOM     23  C   UNL     1      43.346   5.510  11.225  0.00  0.00    +0.000 C 
ATOM     24  O   UNL     1      43.278   4.948  10.141  0.00  0.00    +0.000 OA
ATOM     25  H   UNL     1      41.437   6.196  11.170  0.00  0.00    +0.000 HD
ATOM     26  H   UNL     1      42.345   6.833  12.498  0.00  0.00    +0.000 HD
ENDBRANCH  16  23
ENDBRANCH  15  19
ENDBRANCH   1  15
TORSDOF 5
ENDMDL
MODEL 9
REMARK VINA RESULT:    -6.344      3.962      6.050
REMARK INTER + INTRA:          -9.105
REMARK INTER:                  -8.313
REMARK INTRA:                  -0.791
REMARK UNBOUND:                -0.906
REMARK  Name = 
REMARK  5 active torsions:
REMARK  status: ('A' for Active; 'I' for Inactive)
REMARK    1  A    between atoms: C_2  and  C_4
REMARK    2  A    between atoms: C_7  and  O_8
REMARK    3  A    between atoms: O_8  and  C_9
REMARK    4  A    between atoms: C_9  and  C_10
REMARK    5  A    between atoms: C_14  and  C_15
REMARK                            x       y       z     vdW  Elec       q    Type
REMARK                         _______ _______ _______ _____ _____    ______ ____
ROOT
ATOM      1  C   UNL     1      48.118   7.630  12.408  0.00  0.00    +0.000 C 
ENDROOT
BRANCH   1   2
ATOM      2  C   UNL     1      49.131   7.509  13.525  0.00  0.00    +0.000 A 
ATOM      3  C   UNL     1      50.285   8.286  13.508  0.00  0.00    +0.000 A 
ATOM      4  C   UNL     1      51.166   8.194  14.578  0.00  0.00    +0.000 A 
ATOM      5  C   UNL     1      50.870   7.334  15.631  0.00  0.00    +0.000 A 
ATOM      6  C   UNL     1      49.693   6.587  15.597  0.00  0.00    +0.000 A 
ATOM      7  N   UNL     1      48.830   6.671  14.553  0.00  0.00    +0.000 NA
BRANCH   6   8
ATOM      8  C   UNL     1      49.299   5.671  16.690  0.00  0.00    +0.000 A 
ATOM      9  C   UNL     1      50.018   5.633  17.901  0.00  0.00    +0.000 A 
ATOM     10  C   UNL     1      49.649   4.778  18.946  0.00  0.00    +0.000 A 
ATOM     11  C   UNL     1      48.552   3.936  18.797  0.00  0.00    +0.000 A 
ATOM     12  C   UNL     1      47.841   3.954  17.606  0.00  0.00    +0.000 A 
ATOM     13  F   UNL     1      46.787   3.141  17.453  0.00  0.00    +0.000 F 
ATOM     14  C   UNL     1      48.202   4.802  16.564  0.00  0.00    +0.000 A 
ENDBRANCH   6   8
ENDBRANCH   1   2
BRANCH   1  15
ATOM     15  O   UNL     1      46.794   7.442  12.916  0.00  0.00    +0.000 OA
BRANCH  15  19
ATOM     16  C   UNL     1      44.793   4.074  11.471  0.00  0.00    +0.000 A 
ATOM     17  C   UNL     1      45.180   4.095  12.816  0.00  0.00    +0.000 A 
ATOM     18  C   UNL     1      45.854   5.204  13.337  0.00  0.00    +0.000 A 
ATOM     19  C   UNL     1      46.145   6.301  12.524  0.00  0.00    +0.000 A 
ATOM     20  C   UNL     1      45.765   6.273  11.179  0.00  0.00    +0.000 A 
ATOM     21  C   UNL     1      45.097   5.164  10.650  0.00  0.00    +0.000 A 
BRANCH  16  23
ATOM     22  N   UNL     1      44.729   2.256   9.850  0.00  0.00    +0.000 N 
ATOM     23  C   UNL     1      44.098   2.903  10.877  0.00  0.00    +0.000 C 
ATOM     24  O   UNL     1      43.021   2.509  11.303  0.00  0.00    +0.000 OA
ATOM     25  H   UNL     1      44.289   1.406   9.520  0.00  0.00    +0.000 HD
ATOM     26  H   UNL     1      45.711   2.384   9.651  0.00  0.00    +0.000 HD
ENDBRANCH  16  23
ENDBRANCH  15  19
ENDBRANCH   1  15
TORSDOF 5
ENDMDL
