MODEL 1
REMARK VINA RESULT:    -7.395      0.000      0.000
REMARK INTER + INTRA:         -11.714
REMARK INTER:                 -10.421
REMARK INTRA:                  -1.293
REMARK UNBOUND:                -1.293
REMARK  Name = 
REMARK  8 active torsions:
REMARK  status: ('A' for Active; 'I' for Inactive)
REMARK    1  A    between atoms: C_1  and  O_2
REMARK    2  A    between atoms: O_2  and  C_3
REMARK    3  A    between atoms: C_10  and  C_11
REMARK    4  A    between atoms: N_13  and  C_14
REMARK    5  A    between atoms: C_14  and  C_15
REMARK    6  A    between atoms: C_18  and  N_19
REMARK    7  A    between atoms: N_19  and  C_20
REMARK    8  A    between atoms: C_20  and  C_21
REMARK                            x       y       z     vdW  Elec       q    Type
REMARK                         _______ _______ _______ _____ _____    ______ ____
ROOT
ATOM      1  C   UNL     1      48.769   7.022  15.362  0.00  0.00    +0.000 C 
ENDROOT
BRANCH   1   2
ATOM      2  C   UNL     1      47.900   6.313  14.354  0.00  0.00    +0.000 A 
ATOM      3  C   UNL     1      47.688   6.880  13.095  0.00  0.00    +0.000 A 
ATOM      4  C   UNL     1      46.775   6.311  12.199  0.00  0.00    +0.000 A 
ATOM      5  C   UNL     1      46.057   5.152  12.522  0.00  0.00    +0.000 A 
ATOM      6  C   UNL     1      46.305   4.571  13.773  0.00  0.00    +0.000 A 
ATOM      7  C   UNL     1      47.218   5.135  14.677  0.00  0.00    +0.000 A 
BRANCH   5   8
ATOM      8  N   UNL     1      44.998   4.656  11.736  0.00  0.00    +0.000 N 
ATOM      9  H   UNL     1      44.112   4.754  12.225  0.00  0.00    +0.000 HD
BRANCH   8  10
ATOM     10  C   UNL     1      45.177   3.324  11.151  0.00  0.00    +0.000 C 
BRANCH  10  11
ATOM     11  C   UNL     1      44.242   3.062   9.950  0.00  0.00    +0.000 C 
ATOM     12  C   UNL     1      44.684   1.918   9.024  0.00  0.00    +0.000 C 
ATOM     13  C   UNL     1      46.016   2.245   8.353  0.00  0.00    +0.000 C 
ATOM     14  C   UNL     1      45.990   3.619   7.674  0.00  0.00    +0.000 C 
ATOM     15  N   UNL     1      45.470   4.683   8.535  0.00  0.00    +0.000 NA
ATOM     16  C   UNL     1      44.161   4.346   9.102  0.00  0.00    +0.000 C 
ATOM     17  H   UNL     1      45.402   5.550   8.000  0.00  0.00    +0.000 HD
ENDBRANCH  10  11
ENDBRANCH   8  10
ENDBRANCH   5   8
ENDBRANCH   1   2
BRANCH   1  20
ATOM     18  C   UNL     1      49.917   5.949  17.263  0.00  0.00    +0.000 C 
ATOM     19  O   UNL     1      49.210   6.553  18.064  0.00  0.00    +0.000 OA
ATOM     20  N   UNL     1      49.753   6.115  15.912  0.00  0.00    +0.000 N 
ATOM     21  H   UNL     1      50.413   5.694  15.269  0.00  0.00    +0.000 HD
BRANCH  18  29
ATOM     22  C   UNL     1      50.354   2.523  17.077  0.00  0.00    +0.000 A 
ATOM     23  N   UNL     1      50.787   1.247  17.136  0.00  0.00    +0.000 NA
ATOM     24  C   UNL     1      51.948   1.000  17.743  0.00  0.00    +0.000 A 
ATOM     25  N   UNL     1      52.754   1.889  18.314  0.00  0.00    +0.000 NA
ATOM     26  C   UNL     1      52.295   3.148  18.226  0.00  0.00    +0.000 A 
ATOM     27  S   UNL     1      53.200   4.412  18.905  0.00  0.00    +0.000 S 
ATOM     28  C   UNL     1      52.049   5.564  18.416  0.00  0.00    +0.000 A 
ATOM     29  C   UNL     1      50.967   5.024  17.727  0.00  0.00    +0.000 A 
ATOM     30  C   UNL     1      51.113   3.573  17.622  0.00  0.00    +0.000 A 
BRANCH  22  32
ATOM     31  C   UNL     1      48.053   2.807  17.303  0.00  0.00    +0.000 C 
ATOM     32  O   UNL     1      49.168   2.770  16.413  0.00  0.00    +0.000 OA
ENDBRANCH  22  32
ENDBRANCH  18  29
ENDBRANCH   1  20
TORSDOF 7
ENDMDL
MODEL 2
REMARK VINA RESULT:    -7.372      2.438      3.418
REMARK INTER + INTRA:         -11.681
REMARK INTER:                  -9.790
REMARK INTRA:                  -1.892
REMARK UNBOUND:                -1.293
REMARK  Name = 
REMARK  8 active torsions:
REMARK  status: ('A' for Active; 'I' for Inactive)
REMARK    1  A    between atoms: C_1  and  O_2
REMARK    2  A    between atoms: O_2  and  C_3
REMARK    3  A    between atoms: C_10  and  C_11
REMARK    4  A    between atoms: N_13  and  C_14
REMARK    5  A    between atoms: C_14  and  C_15
REMARK    6  A    between atoms: C_18  and  N_19
REMARK    7  A    between atoms: N_19  and  C_20
REMARK    8  A    between atoms: C_20  and  C_21
REMARK                            x       y       z     vdW  Elec       q    Type
REMARK                         _______ _______ _______ _____ _____    ______ ____
ROOT
ATOM      1  C   UNL     1      48.131   8.767  14.485  0.00  0.00    +0.000 C 
ENDROOT
BRANCH   1   2
ATOM      2  C   UNL     1      47.361   8.249  13.297  0.00  0.00    +0.000 A 
ATOM      3  C   UNL     1      46.020   8.604  13.126  0.00  0.00    +0.000 A 
ATOM      4  C   UNL     1      45.250   8.023  12.110  0.00  0.00    +0.000 A 
ATOM      5  C   UNL     1      45.795   7.084  11.226  0.00  0.00    +0.000 A 
ATOM      6  C   UNL     1      47.150   6.762  11.383  0.00  0.00    +0.000 A 
ATOM      7  C   UNL     1      47.928   7.340  12.398  0.00  0.00    +0.000 A 
BRANCH   5   8
ATOM      8  N   UNL     1      45.017   6.337  10.318  0.00  0.00    +0.000 N 
ATOM      9  H   UNL     1      44.086   6.737  10.230  0.00  0.00    +0.000 HD
BRANCH   8  10
ATOM     10  C   UNL     1      44.992   4.884  10.507  0.00  0.00    +0.000 C 
BRANCH  10  11
ATOM     11  C   UNL     1      43.562   4.314  10.617  0.00  0.00    +0.000 C 
ATOM     12  C   UNL     1      42.620   5.103  11.541  0.00  0.00    +0.000 C 
ATOM     13  C   UNL     1      43.116   5.061  12.986  0.00  0.00    +0.000 C 
ATOM     14  C   UNL     1      43.387   3.628  13.453  0.00  0.00    +0.000 C 
ATOM     15  N   UNL     1      44.201   2.853  12.514  0.00  0.00    +0.000 NA
ATOM     16  C   UNL     1      43.648   2.873  11.156  0.00  0.00    +0.000 C 
ATOM     17  H   UNL     1      44.275   1.890  12.842  0.00  0.00    +0.000 HD
ENDBRANCH  10  11
ENDBRANCH   8  10
ENDBRANCH   5   8
ENDBRANCH   1   2
BRANCH   1  20
ATOM     18  C   UNL     1      49.449   7.057  15.676  0.00  0.00    +0.000 C 
ATOM     19  O   UNL     1      50.443   7.321  15.008  0.00  0.00    +0.000 OA
ATOM     20  N   UNL     1      48.272   7.734  15.488  0.00  0.00    +0.000 N 
ATOM     21  H   UNL     1      47.435   7.432  15.971  0.00  0.00    +0.000 HD
BRANCH  18  29
ATOM     22  C   UNL     1      47.414   4.363  16.427  0.00  0.00    +0.000 A 
ATOM     23  N   UNL     1      46.829   3.256  16.928  0.00  0.00    +0.000 NA
ATOM     24  C   UNL     1      47.394   2.662  17.980  0.00  0.00    +0.000 A 
ATOM     25  N   UNL     1      48.498   3.043  18.613  0.00  0.00    +0.000 NA
ATOM     26  C   UNL     1      49.057   4.142  18.079  0.00  0.00    +0.000 A 
ATOM     27  S   UNL     1      50.475   4.769  18.766  0.00  0.00    +0.000 S 
ATOM     28  C   UNL     1      50.528   6.030  17.626  0.00  0.00    +0.000 A 
ATOM     29  C   UNL     1      49.486   6.000  16.704  0.00  0.00    +0.000 A 
ATOM     30  C   UNL     1      48.601   4.872  16.983  0.00  0.00    +0.000 A 
BRANCH  22  32
ATOM     31  C   UNL     1      47.064   4.178  14.132  0.00  0.00    +0.000 C 
ATOM     32  O   UNL     1      46.840   4.946  15.314  0.00  0.00    +0.000 OA
ENDBRANCH  22  32
ENDBRANCH  18  29
ENDBRANCH   1  20
TORSDOF 7
ENDMDL
MODEL 3
REMARK VINA RESULT:    -6.956      3.172      9.463
REMARK INTER + INTRA:         -11.095
REMARK INTER:                 -10.019
REMARK INTRA:                  -1.076
REMARK UNBOUND:                -1.293
REMARK  Name = 
REMARK  8 active torsions:
REMARK  status: ('A' for Active; 'I' for Inactive)
REMARK    1  A    between atoms: C_1  and  O_2
REMARK    2  A    between atoms: O_2  and  C_3
REMARK    3  A    between atoms: C_10  and  C_11
REMARK    4  A    between atoms: N_13  and  C_14
REMARK    5  A    between atoms: C_14  and  C_15
REMARK    6  A    between atoms: C_18  and  N_19
REMARK    7  A    between atoms: N_19  and  C_20
REMARK    8  A    between atoms: C_20  and  C_21
REMARK                            x       y       z     vdW  Elec       q    Type
REMARK                         _______ _______ _______ _____ _____    ______ ____
ROOT
ATOM      1  C   UNL     1      47.279   3.427  16.780  0.00  0.00    +0.000 C 
ENDROOT
BRANCH   1   2
ATOM      2  C   UNL     1      48.760   3.559  17.025  0.00  0.00    +0.000 A 
ATOM      3  C   UNL     1      49.565   2.417  17.063  0.00  0.00    +0.000 A 
ATOM      4  C   UNL     1      50.914   2.506  17.429  0.00  0.00    +0.000 A 
ATOM      5  C   UNL     1      51.507   3.734  17.751  0.00  0.00    +0.000 A 
ATOM      6  C   UNL     1      50.699   4.877  17.674  0.00  0.00    +0.000 A 
ATOM      7  C   UNL     1      49.347   4.797  17.309  0.00  0.00    +0.000 A 
BRANCH   5   8
ATOM      8  N   UNL     1      52.798   3.846  18.304  0.00  0.00    +0.000 N 
ATOM      9  H   UNL     1      53.443   4.250  17.629  0.00  0.00    +0.000 HD
BRANCH   8  10
ATOM     10  C   UNL     1      53.342   2.654  18.961  0.00  0.00    +0.000 C 
BRANCH  10  11
ATOM     11  C   UNL     1      54.747   2.270  18.448  0.00  0.00    +0.000 C 
ATOM     12  C   UNL     1      54.769   1.590  17.070  0.00  0.00    +0.000 C 
ATOM     13  C   UNL     1      54.044   0.246  17.116  0.00  0.00    +0.000 C 
ATOM     14  C   UNL     1      54.560  -0.640  18.254  0.00  0.00    +0.000 C 
ATOM     15  N   UNL     1      54.631   0.050  19.543  0.00  0.00    +0.000 NA
ATOM     16  C   UNL     1      55.391   1.301  19.459  0.00  0.00    +0.000 C 
ATOM     17  H   UNL     1      55.056  -0.566  20.236  0.00  0.00    +0.000 HD
ENDBRANCH  10  11
ENDBRANCH   8  10
ENDBRANCH   5   8
ENDBRANCH   1   2
BRANCH   1  20
ATOM     18  C   UNL     1      46.843   4.248  14.496  0.00  0.00    +0.000 C 
ATOM     19  O   UNL     1      47.229   3.188  14.013  0.00  0.00    +0.000 OA
ATOM     20  N   UNL     1      46.824   4.440  15.853  0.00  0.00    +0.000 N 
ATOM     21  H   UNL     1      46.606   5.355  16.229  0.00  0.00    +0.000 HD
BRANCH  18  29
ATOM     22  C   UNL     1      43.981   4.820  12.639  0.00  0.00    +0.000 A 
ATOM     23  N   UNL     1      42.995   5.308  11.860  0.00  0.00    +0.000 NA
ATOM     24  C   UNL     1      43.170   6.500  11.288  0.00  0.00    +0.000 A 
ATOM     25  N   UNL     1      44.234   7.288  11.399  0.00  0.00    +0.000 NA
ATOM     26  C   UNL     1      45.190   6.774  12.191  0.00  0.00    +0.000 A 
ATOM     27  S   UNL     1      46.621   7.649  12.442  0.00  0.00    +0.000 S 
ATOM     28  C   UNL     1      47.244   6.435  13.456  0.00  0.00    +0.000 A 
ATOM     29  C   UNL     1      46.387   5.352  13.631  0.00  0.00    +0.000 A 
ATOM     30  C   UNL     1      45.159   5.554  12.865  0.00  0.00    +0.000 A 
BRANCH  22  32
ATOM     31  C   UNL     1      43.626   2.542  12.311  0.00  0.00    +0.000 C 
ATOM     32  O   UNL     1      43.771   3.603  13.256  0.00  0.00    +0.000 OA
ENDBRANCH  22  32
ENDBRANCH  18  29
ENDBRANCH   1  20
TORSDOF 7
ENDMDL
MODEL 4
REMARK VINA RESULT:    -6.748      2.483      3.003
REMARK INTER + INTRA:         -10.802
REMARK INTER:                  -9.445
REMARK INTRA:                  -1.357
REMARK UNBOUND:                -1.293
REMARK  Name = 
REMARK  8 active torsions:
REMARK  status: ('A' for Active; 'I' for Inactive)
REMARK    1  A    between atoms: C_1  and  O_2
REMARK    2  A    between atoms: O_2  and  C_3
REMARK    3  A    between atoms: C_10  and  C_11
REMARK    4  A    between atoms: N_13  and  C_14
REMARK    5  A    between atoms: C_14  and  C_15
REMARK    6  A    between atoms: C_18  and  N_19
REMARK    7  A    between atoms: N_19  and  C_20
REMARK    8  A    between atoms: C_20  and  C_21
REMARK                            x       y       z     vdW  Elec       q    Type
REMARK                         _______ _______ _______ _____ _____    ______ ____
ROOT
ATOM      1  C   UNL     1      48.074   7.549  13.551  0.00  0.00    +0.000 C 
ENDROOT
BRANCH   1   2
ATOM      2  C   UNL     1      47.000   6.692  12.930  0.00  0.00    +0.000 A 
ATOM      3  C   UNL     1      46.496   5.591  13.628  0.00  0.00    +0.000 A 
ATOM      4  C   UNL     1      45.603   4.704  13.014  0.00  0.00    +0.000 A 
ATOM      5  C   UNL     1      45.174   4.893  11.694  0.00  0.00    +0.000 A 
ATOM      6  C   UNL     1      45.658   6.020  11.016  0.00  0.00    +0.000 A 
ATOM      7  C   UNL     1      46.552   6.914  11.624  0.00  0.00    +0.000 A 
BRANCH   5   8
ATOM      8  N   UNL     1      44.433   3.931  10.979  0.00  0.00    +0.000 N 
ATOM      9  H   UNL     1      43.644   3.603  11.530  0.00  0.00    +0.000 HD
BRANCH   8  10
ATOM     10  C   UNL     1      45.189   2.834  10.367  0.00  0.00    +0.000 C 
BRANCH  10  11
ATOM     11  C   UNL     1      44.615   2.392   9.004  0.00  0.00    +0.000 C 
ATOM     12  C   UNL     1      45.463   1.356   8.250  0.00  0.00    +0.000 C 
ATOM     13  C   UNL     1      46.824   1.939   7.873  0.00  0.00    +0.000 C 
ATOM     14  C   UNL     1      46.686   3.280   7.143  0.00  0.00    +0.000 C 
ATOM     15  N   UNL     1      45.793   4.222   7.820  0.00  0.00    +0.000 NA
ATOM     16  C   UNL     1      44.480   3.634   8.102  0.00  0.00    +0.000 C 
ATOM     17  H   UNL     1      45.681   5.057   7.245  0.00  0.00    +0.000 HD
ENDBRANCH  10  11
ENDBRANCH   8  10
ENDBRANCH   5   8
ENDBRANCH   1   2
BRANCH   1  20
ATOM     18  C   UNL     1      49.137   7.832  15.758  0.00  0.00    +0.000 C 
ATOM     19  O   UNL     1      50.070   8.450  15.258  0.00  0.00    +0.000 OA
ATOM     20  N   UNL     1      48.105   7.365  14.986  0.00  0.00    +0.000 N 
ATOM     21  H   UNL     1      47.399   6.766  15.396  0.00  0.00    +0.000 HD
BRANCH  18  29
ATOM     22  C   UNL     1      48.672   4.988  17.672  0.00  0.00    +0.000 A 
ATOM     23  N   UNL     1      48.540   4.066  18.647  0.00  0.00    +0.000 NA
ATOM     24  C   UNL     1      48.606   4.473  19.916  0.00  0.00    +0.000 A 
ATOM     25  N   UNL     1      48.794   5.716  20.346  0.00  0.00    +0.000 NA
ATOM     26  C   UNL     1      48.932   6.603  19.347  0.00  0.00    +0.000 A 
ATOM     27  S   UNL     1      49.178   8.240  19.717  0.00  0.00    +0.000 S 
ATOM     28  C   UNL     1      49.246   8.653  18.069  0.00  0.00    +0.000 A 
ATOM     29  C   UNL     1      49.092   7.569  17.209  0.00  0.00    +0.000 A 
ATOM     30  C   UNL     1      48.896   6.342  17.978  0.00  0.00    +0.000 A 
BRANCH  22  32
ATOM     31  C   UNL     1      47.797   3.407  16.202  0.00  0.00    +0.000 C 
ATOM     32  O   UNL     1      48.639   4.549  16.363  0.00  0.00    +0.000 OA
ENDBRANCH  22  32
ENDBRANCH  18  29
ENDBRANCH   1  20
TORSDOF 7
ENDMDL
MODEL 5
REMARK VINA RESULT:    -6.670      2.777      3.960
REMARK INTER + INTRA:         -10.693
REMARK INTER:                  -9.364
REMARK INTRA:                  -1.329
REMARK UNBOUND:                -1.293
REMARK  Name = 
REMARK  8 active torsions:
REMARK  status: ('A' for Active; 'I' for Inactive)
REMARK    1  A    between atoms: C_1  and  O_2
REMARK    2  A    between atoms: O_2  and  C_3
REMARK    3  A    between atoms: C_10  and  C_11
REMARK    4  A    between atoms: N_13  and  C_14
REMARK    5  A    between atoms: C_14  and  C_15
REMARK    6  A    between atoms: C_18  and  N_19
REMARK    7  A    between atoms: N_19  and  C_20
REMARK    8  A    between atoms: C_20  and  C_21
REMARK                            x       y       z     vdW  Elec       q    Type
REMARK                         _______ _______ _______ _____ _____    ______ ____
ROOT
ATOM      1  C   UNL     1      48.005   7.877  13.994  0.00  0.00    +0.000 C 
ENDROOT
BRANCH   1   2
ATOM      2  C   UNL     1      47.250   6.903  13.126  0.00  0.00    +0.000 A 
ATOM      3  C   UNL     1      46.759   7.313  11.883  0.00  0.00    +0.000 A 
ATOM      4  C   UNL     1      45.936   6.469  11.126  0.00  0.00    +0.000 A 
ATOM      5  C   UNL     1      45.590   5.188  11.575  0.00  0.00    +0.000 A 
ATOM      6  C   UNL     1      46.117   4.774  12.806  0.00  0.00    +0.000 A 
ATOM      7  C   UNL     1      46.942   5.613  13.570  0.00  0.00    +0.000 A 
BRANCH   5   8
ATOM      8  N   UNL     1      44.620   4.385  10.943  0.00  0.00    +0.000 N 
ATOM      9  H   UNL     1      43.756   4.377  11.479  0.00  0.00    +0.000 HD
BRANCH   8  10
ATOM     10  C   UNL     1      45.040   3.043  10.529  0.00  0.00    +0.000 C 
BRANCH  10  11
ATOM     11  C   UNL     1      44.406   2.596   9.195  0.00  0.00    +0.000 C 
ATOM     12  C   UNL     1      45.125   1.433   8.493  0.00  0.00    +0.000 C 
ATOM     13  C   UNL     1      46.538   1.838   8.079  0.00  0.00    +0.000 C 
ATOM     14  C   UNL     1      46.544   3.145   7.279  0.00  0.00    +0.000 C 
ATOM     15  N   UNL     1      45.769   4.216   7.908  0.00  0.00    +0.000 NA
ATOM     16  C   UNL     1      44.401   3.795   8.227  0.00  0.00    +0.000 C 
ATOM     17  H   UNL     1      45.745   5.027   7.289  0.00  0.00    +0.000 HD
ENDBRANCH  10  11
ENDBRANCH   8  10
ENDBRANCH   5   8
ENDBRANCH   1   2
BRANCH   1  20
ATOM     18  C   UNL     1      49.076   6.822  15.949  0.00  0.00    +0.000 C 
ATOM     19  O   UNL     1      50.109   6.636  15.315  0.00  0.00    +0.000 OA
ATOM     20  N   UNL     1      47.996   7.440  15.374  0.00  0.00    +0.000 N 
ATOM     21  H   UNL     1      47.118   7.490  15.875  0.00  0.00    +0.000 HD
BRANCH  18  29
ATOM     22  C   UNL     1      47.822   8.285  18.822  0.00  0.00    +0.000 A 
ATOM     23  N   UNL     1      47.400   8.591  20.066  0.00  0.00    +0.000 NA
ATOM     24  C   UNL     1      47.578   7.691  21.034  0.00  0.00    +0.000 A 
ATOM     25  N   UNL     1      48.137   6.492  20.914  0.00  0.00    +0.000 NA
ATOM     26  C   UNL     1      48.534   6.219  19.660  0.00  0.00    +0.000 A 
ATOM     27  S   UNL     1      49.273   4.729  19.328  0.00  0.00    +0.000 S 
ATOM     28  C   UNL     1      49.456   5.130  17.686  0.00  0.00    +0.000 A 
ATOM     29  C   UNL     1      48.960   6.387  17.354  0.00  0.00    +0.000 A 
ATOM     30  C   UNL     1      48.416   7.042  18.541  0.00  0.00    +0.000 A 
BRANCH  22  32
ATOM     31  C   UNL     1      48.476  10.332  17.923  0.00  0.00    +0.000 C 
ATOM     32  O   UNL     1      47.598   9.210  17.821  0.00  0.00    +0.000 OA
ENDBRANCH  22  32
ENDBRANCH  18  29
ENDBRANCH   1  20
TORSDOF 7
ENDMDL
MODEL 6
REMARK VINA RESULT:    -6.545      2.179      2.908
REMARK INTER + INTRA:         -10.517
REMARK INTER:                  -8.986
REMARK INTRA:                  -1.531
REMARK UNBOUND:                -1.293
REMARK  Name = 
REMARK  8 active torsions:
REMARK  status: ('A' for Active; 'I' for Inactive)
REMARK    1  A    between atoms: C_1  and  O_2
REMARK    2  A    between atoms: O_2  and  C_3
REMARK    3  A    between atoms: C_10  and  C_11
REMARK    4  A    between atoms: N_13  and  C_14
REMARK    5  A    between atoms: C_14  and  C_15
REMARK    6  A    between atoms: C_18  and  N_19
REMARK    7  A    between atoms: N_19  and  C_20
REMARK    8  A    between atoms: C_20  and  C_21
REMARK                            x       y       z     vdW  Elec       q    Type
REMARK                         _______ _______ _______ _____ _____    ______ ____
ROOT
ATOM      1  C   UNL     1      49.938   8.552  12.831  0.00  0.00    +0.000 C 
ENDROOT
BRANCH   1   2
ATOM      2  C   UNL     1      48.489   8.163  12.676  0.00  0.00    +0.000 A 
ATOM      3  C   UNL     1      47.490   8.949  13.258  0.00  0.00    +0.000 A 
ATOM      4  C   UNL     1      46.154   8.530  13.246  0.00  0.00    +0.000 A 
ATOM      5  C   UNL     1      45.769   7.327  12.641  0.00  0.00    +0.000 A 
ATOM      6  C   UNL     1      46.773   6.566  12.028  0.00  0.00    +0.000 A 
ATOM      7  C   UNL     1      48.114   6.978  12.036  0.00  0.00    +0.000 A 
BRANCH   5   8
ATOM      8  N   UNL     1      44.477   6.778  12.769  0.00  0.00    +0.000 N 
ATOM      9  H   UNL     1      43.887   7.379  13.338  0.00  0.00    +0.000 HD
BRANCH   8  10
ATOM     10  C   UNL     1      44.394   5.368  13.164  0.00  0.00    +0.000 C 
BRANCH  10  11
ATOM     11  C   UNL     1      43.172   4.644  12.561  0.00  0.00    +0.000 C 
ATOM     12  C   UNL     1      43.442   3.209  12.081  0.00  0.00    +0.000 C 
ATOM     13  C   UNL     1      44.445   3.201  10.929  0.00  0.00    +0.000 C 
ATOM     14  C   UNL     1      44.034   4.163   9.810  0.00  0.00    +0.000 C 
ATOM     15  N   UNL     1      43.680   5.499  10.292  0.00  0.00    +0.000 NA
ATOM     16  C   UNL     1      42.668   5.455  11.352  0.00  0.00    +0.000 C 
ATOM     17  H   UNL     1      43.339   6.063   9.512  0.00  0.00    +0.000 HD
ENDBRANCH  10  11
ENDBRANCH   8  10
ENDBRANCH   5   8
ENDBRANCH   1   2
BRANCH   1  20
ATOM     18  C   UNL     1      50.980   8.215  15.040  0.00  0.00    +0.000 C 
ATOM     19  O   UNL     1      50.779   9.387  15.342  0.00  0.00    +0.000 OA
ATOM     20  N   UNL     1      50.583   7.721  13.825  0.00  0.00    +0.000 N 
ATOM     21  H   UNL     1      50.851   6.784  13.549  0.00  0.00    +0.000 HD
BRANCH  18  29
ATOM     22  C   UNL     1      50.027   5.322  16.678  0.00  0.00    +0.000 A 
ATOM     23  N   UNL     1      49.939   4.194  17.413  0.00  0.00    +0.000 NA
ATOM     24  C   UNL     1      51.002   3.819  18.126  0.00  0.00    +0.000 A 
ATOM     25  N   UNL     1      52.173   4.442  18.200  0.00  0.00    +0.000 NA
ATOM     26  C   UNL     1      52.226   5.553  17.447  0.00  0.00    +0.000 A 
ATOM     27  S   UNL     1      53.649   6.476  17.425  0.00  0.00    +0.000 S 
ATOM     28  C   UNL     1      52.965   7.597  16.346  0.00  0.00    +0.000 A 
ATOM     29  C   UNL     1      51.657   7.297  15.975  0.00  0.00    +0.000 A 
ATOM     30  C   UNL     1      51.213   6.076  16.644  0.00  0.00    +0.000 A 
BRANCH  22  32
ATOM     31  C   UNL     1      47.823   4.806  16.128  0.00  0.00    +0.000 C 
ATOM     32  O   UNL     1      48.933   5.679  15.915  0.00  0.00    +0.000 OA
ENDBRANCH  22  32
ENDBRANCH  18  29
ENDBRANCH   1  20
TORSDOF 7
ENDMDL
MODEL 7
REMARK VINA RESULT:    -6.387      3.400      9.064
REMARK INTER + INTRA:         -10.293
REMARK INTER:                  -8.823
REMARK INTRA:                  -1.471
REMARK UNBOUND:                -1.293
REMARK  Name = 
REMARK  8 active torsions:
REMARK  status: ('A' for Active; 'I' for Inactive)
REMARK    1  A    between atoms: C_1  and  O_2
REMARK    2  A    between atoms: O_2  and  C_3
REMARK    3  A    between atoms: C_10  and  C_11
REMARK    4  A    between atoms: N_13  and  C_14
REMARK    5  A    between atoms: C_14  and  C_15
REMARK    6  A    between atoms: C_18  and  N_19
REMARK    7  A    between atoms: N_19  and  C_20
REMARK    8  A    between atoms: C_20  and  C_21
REMARK                            x       y       z     vdW  Elec       q    Type
REMARK                         _______ _______ _______ _____ _____    ______ ____
ROOT
ATOM      1  C   UNL     1      47.247   3.624  17.079  0.00  0.00    +0.000 C 
ENDROOT
BRANCH   1   2
ATOM      2  C   UNL     1      48.688   3.554  17.517  0.00  0.00    +0.000 A 
ATOM      3  C   UNL     1      49.234   4.587  18.285  0.00  0.00    +0.000 A 
ATOM      4  C   UNL     1      50.602   4.610  18.581  0.00  0.00    +0.000 A 
ATOM      5  C   UNL     1      51.465   3.601  18.136  0.00  0.00    +0.000 A 
ATOM      6  C   UNL     1      50.900   2.551  17.399  0.00  0.00    +0.000 A 
ATOM      7  C   UNL     1      49.530   2.520  17.098  0.00  0.00    +0.000 A 
BRANCH   5   8
ATOM      8  N   UNL     1      52.868   3.680  18.247  0.00  0.00    +0.000 N 
ATOM      9  H   UNL     1      53.295   3.776  17.329  0.00  0.00    +0.000 HD
BRANCH   8  10
ATOM     10  C   UNL     1      53.525   2.663  19.073  0.00  0.00    +0.000 C 
BRANCH  10  11
ATOM     11  C   UNL     1      54.842   2.143  18.456  0.00  0.00    +0.000 C 
ATOM     12  C   UNL     1      54.696   1.495  17.071  0.00  0.00    +0.000 C 
ATOM     13  C   UNL     1      53.836   0.235  17.148  0.00  0.00    +0.000 C 
ATOM     14  C   UNL     1      54.330  -0.726  18.235  0.00  0.00    +0.000 C 
ATOM     15  N   UNL     1      54.563  -0.075  19.525  0.00  0.00    +0.000 NA
ATOM     16  C   UNL     1      55.446   1.090  19.405  0.00  0.00    +0.000 C 
ATOM     17  H   UNL     1      54.967  -0.748  20.177  0.00  0.00    +0.000 HD
ENDBRANCH  10  11
ENDBRANCH   8  10
ENDBRANCH   5   8
ENDBRANCH   1   2
BRANCH   1  20
ATOM     18  C   UNL     1      47.151   4.182  14.679  0.00  0.00    +0.000 C 
ATOM     19  O   UNL     1      47.320   3.006  14.373  0.00  0.00    +0.000 OA
ATOM     20  N   UNL     1      47.090   4.567  15.993  0.00  0.00    +0.000 N 
ATOM     21  H   UNL     1      47.058   5.551  16.230  0.00  0.00    +0.000 HD
BRANCH  18  29
ATOM     22  C   UNL     1      48.793   7.153  14.017  0.00  0.00    +0.000 A 
ATOM     23  N   UNL     1      49.253   8.319  13.520  0.00  0.00    +0.000 NA
ATOM     24  C   UNL     1      48.664   8.821  12.433  0.00  0.00    +0.000 A 
ATOM     25  N   UNL     1      47.647   8.291  11.762  0.00  0.00    +0.000 NA
ATOM     26  C   UNL     1      47.224   7.127  12.281  0.00  0.00    +0.000 A 
ATOM     27  S   UNL     1      45.928   6.313  11.548  0.00  0.00    +0.000 S 
ATOM     28  C   UNL     1      46.005   5.058  12.693  0.00  0.00    +0.000 A 
ATOM     29  C   UNL     1      47.009   5.222  13.644  0.00  0.00    +0.000 A 
ATOM     30  C   UNL     1      47.733   6.468  13.399  0.00  0.00    +0.000 A 
BRANCH  22  32
ATOM     31  C   UNL     1      49.327   7.477  16.261  0.00  0.00    +0.000 C 
ATOM     32  O   UNL     1      49.436   6.626  15.120  0.00  0.00    +0.000 OA
ENDBRANCH  22  32
ENDBRANCH  18  29
ENDBRANCH   1  20
TORSDOF 7
ENDMDL
MODEL 8
REMARK VINA RESULT:    -6.228      5.826      7.322
REMARK INTER + INTRA:         -10.070
REMARK INTER:                  -9.114
REMARK INTRA:                  -0.957
REMARK UNBOUND:                -1.293
REMARK  Name = 
REMARK  8 active torsions:
REMARK  status: ('A' for Active; 'I' for Inactive)
REMARK    1  A    between atoms: C_1  and  O_2
REMARK    2  A    between atoms: O_2  and  C_3
REMARK    3  A    between atoms: C_10  and  C_11
REMARK    4  A    between atoms: N_13  and  C_14
REMARK    5  A    between atoms: C_14  and  C_15
REMARK    6  A    between atoms: C_18  and  N_19
REMARK    7  A    between atoms: N_19  and  C_20
REMARK    8  A    between atoms: C_20  and  C_21
REMARK                            x       y       z     vdW  Elec       q    Type
REMARK                         _______ _______ _______ _____ _____    ______ ____
ROOT
ATOM      1  C   UNL     1      50.698   8.688  11.548  0.00  0.00    +0.000 C 
ENDROOT
BRANCH   1   2
ATOM      2  C   UNL     1      49.464   8.093  12.175  0.00  0.00    +0.000 A 
ATOM      3  C   UNL     1      49.575   7.317  13.333  0.00  0.00    +0.000 A 
ATOM      4  C   UNL     1      48.462   6.641  13.849  0.00  0.00    +0.000 A 
ATOM      5  C   UNL     1      47.204   6.729  13.240  0.00  0.00    +0.000 A 
ATOM      6  C   UNL     1      47.097   7.540  12.101  0.00  0.00    +0.000 A 
ATOM      7  C   UNL     1      48.206   8.220  11.578  0.00  0.00    +0.000 A 
BRANCH   5   8
ATOM      8  N   UNL     1      46.109   5.923  13.610  0.00  0.00    +0.000 N 
ATOM      9  H   UNL     1      46.375   4.941  13.622  0.00  0.00    +0.000 HD
BRANCH   8  10
ATOM     10  C   UNL     1      44.846   6.157  12.904  0.00  0.00    +0.000 C 
BRANCH  10  11
ATOM     11  C   UNL     1      43.938   4.910  12.860  0.00  0.00    +0.000 C 
ATOM     12  C   UNL     1      44.615   3.636  12.326  0.00  0.00    +0.000 C 
ATOM     13  C   UNL     1      45.026   3.811  10.866  0.00  0.00    +0.000 C 
ATOM     14  C   UNL     1      43.861   4.304  10.001  0.00  0.00    +0.000 C 
ATOM     15  N   UNL     1      43.160   5.456  10.571  0.00  0.00    +0.000 NA
ATOM     16  C   UNL     1      42.730   5.214  11.953  0.00  0.00    +0.000 C 
ATOM     17  H   UNL     1      42.350   5.682   9.993  0.00  0.00    +0.000 HD
ENDBRANCH  10  11
ENDBRANCH   8  10
ENDBRANCH   5   8
ENDBRANCH   1   2
BRANCH   1  20
ATOM     18  C   UNL     1      52.573   7.853  10.180  0.00  0.00    +0.000 C 
ATOM     19  O   UNL     1      52.708   8.950   9.649  0.00  0.00    +0.000 OA
ATOM     20  N   UNL     1      51.613   7.645  11.137  0.00  0.00    +0.000 N 
ATOM     21  H   UNL     1      51.444   6.710  11.487  0.00  0.00    +0.000 HD
BRANCH  18  29
ATOM     22  C   UNL     1      53.049   6.048   7.268  0.00  0.00    +0.000 A 
ATOM     23  N   UNL     1      53.447   5.205   6.293  0.00  0.00    +0.000 NA
ATOM     24  C   UNL     1      54.375   4.293   6.584  0.00  0.00    +0.000 A 
ATOM     25  N   UNL     1      54.974   4.111   7.756  0.00  0.00    +0.000 NA
ATOM     26  C   UNL     1      54.561   4.975   8.698  0.00  0.00    +0.000 A 
ATOM     27  S   UNL     1      55.222   4.883  10.257  0.00  0.00    +0.000 S 
ATOM     28  C   UNL     1      54.267   6.185  10.792  0.00  0.00    +0.000 A 
ATOM     29  C   UNL     1      53.439   6.719   9.808  0.00  0.00    +0.000 A 
ATOM     30  C   UNL     1      53.611   5.986   8.555  0.00  0.00    +0.000 A 
BRANCH  22  32
ATOM     31  C   UNL     1      52.707   8.132   6.286  0.00  0.00    +0.000 C 
ATOM     32  O   UNL     1      52.115   7.012   6.944  0.00  0.00    +0.000 OA
ENDBRANCH  22  32
ENDBRANCH  18  29
ENDBRANCH   1  20
TORSDOF 7
ENDMDL
MODEL 9
REMARK VINA RESULT:    -6.064      3.986      8.931
REMARK INTER + INTRA:          -9.838
REMARK INTER:                  -8.058
REMARK INTRA:                  -1.780
REMARK UNBOUND:                -1.293
REMARK  Name = 
REMARK  8 active torsions:
REMARK  status: ('A' for Active; 'I' for Inactive)
REMARK    1  A    between atoms: C_1  and  O_2
REMARK    2  A    between atoms: O_2  and  C_3
REMARK    3  A    between atoms: C_10  and  C_11
REMARK    4  A    between atoms: N_13  and  C_14
REMARK    5  A    between atoms: C_14  and  C_15
REMARK    6  A    between atoms: C_18  and  N_19
REMARK    7  A    between atoms: N_19  and  C_20
REMARK    8  A    between atoms: C_20  and  C_21
REMARK                            x       y       z     vdW  Elec       q    Type
REMARK                         _______ _______ _______ _____ _____    ______ ____
ROOT
ATOM      1  C   UNL     1      47.611   3.800  16.308  0.00  0.00    +0.000 C 
ENDROOT
BRANCH   1   2
ATOM      2  C   UNL     1      48.126   4.744  17.364  0.00  0.00    +0.000 A 
ATOM      3  C   UNL     1      47.262   5.222  18.354  0.00  0.00    +0.000 A 
ATOM      4  C   UNL     1      47.685   6.206  19.256  0.00  0.00    +0.000 A 
ATOM      5  C   UNL     1      48.982   6.733  19.212  0.00  0.00    +0.000 A 
ATOM      6  C   UNL     1      49.851   6.219  18.239  0.00  0.00    +0.000 A 
ATOM      7  C   UNL     1      49.436   5.234  17.331  0.00  0.00    +0.000 A 
BRANCH   5   8
ATOM      8  N   UNL     1      49.388   7.849  19.970  0.00  0.00    +0.000 N 
ATOM      9  H   UNL     1      48.642   8.150  20.592  0.00  0.00    +0.000 HD
BRANCH   8  10
ATOM     10  C   UNL     1      49.994   8.963  19.234  0.00  0.00    +0.000 C 
BRANCH  10  11
ATOM     11  C   UNL     1      49.022  10.143  19.017  0.00  0.00    +0.000 C 
ATOM     12  C   UNL     1      47.765   9.804  18.201  0.00  0.00    +0.000 C 
ATOM     13  C   UNL     1      48.135   9.401  16.775  0.00  0.00    +0.000 C 
ATOM     14  C   UNL     1      49.047  10.437  16.109  0.00  0.00    +0.000 C 
ATOM     15  N   UNL     1      50.187  10.828  16.940  0.00  0.00    +0.000 NA
ATOM     16  C   UNL     1      49.773  11.267  18.277  0.00  0.00    +0.000 C 
ATOM     17  H   UNL     1      50.705  11.575  16.478  0.00  0.00    +0.000 HD
ENDBRANCH  10  11
ENDBRANCH   8  10
ENDBRANCH   5   8
ENDBRANCH   1   2
BRANCH   1  20
ATOM     18  C   UNL     1      46.620   4.094  14.069  0.00  0.00    +0.000 C 
ATOM     19  O   UNL     1      47.199   3.096  13.653  0.00  0.00    +0.000 OA
ATOM     20  N   UNL     1      46.760   4.501  15.371  0.00  0.00    +0.000 N 
ATOM     21  H   UNL     1      46.363   5.383  15.669  0.00  0.00    +0.000 HD
BRANCH  18  29
ATOM     22  C   UNL     1      46.529   7.431  13.164  0.00  0.00    +0.000 A 
ATOM     23  N   UNL     1      46.270   8.643  12.632  0.00  0.00    +0.000 NA
ATOM     24  C   UNL     1      45.244   8.758  11.787  0.00  0.00    +0.000 A 
ATOM     25  N   UNL     1      44.422   7.790  11.395  0.00  0.00    +0.000 NA
ATOM     26  C   UNL     1      44.718   6.597  11.937  0.00  0.00    +0.000 A 
ATOM     27  S   UNL     1      43.767   5.248  11.545  0.00  0.00    +0.000 S 
ATOM     28  C   UNL     1      44.704   4.237  12.542  0.00  0.00    +0.000 A 
ATOM     29  C   UNL     1      45.752   4.891  13.182  0.00  0.00    +0.000 A 
ATOM     30  C   UNL     1      45.754   6.308  12.824  0.00  0.00    +0.000 A 
BRANCH  22  32
ATOM     31  C   UNL     1      48.830   7.094  13.289  0.00  0.00    +0.000 C 
ATOM     32  O   UNL     1      47.616   7.318  14.007  0.00  0.00    +0.000 OA
ENDBRANCH  22  32
ENDBRANCH  18  29
ENDBRANCH   1  20
TORSDOF 7
ENDMDL
