MODEL 1
REMARK VINA RESULT:    -7.959      0.000      0.000
REMARK INTER + INTRA:         -10.998
REMARK INTER:                 -10.286
REMARK INTRA:                  -0.712
REMARK UNBOUND:                -0.712
REMARK  Name = 
REMARK  5 active torsions:
REMARK  status: ('A' for Active; 'I' for Inactive)
REMARK    1  A    between atoms: C_2  and  C_5
REMARK    2  A    between atoms: C_7  and  C_8
REMARK    3  A    between atoms: C_8  and  N_9
REMARK    4  A    between atoms: N_9  and  C_10
REMARK    5  A    between atoms: C_14  and  C_15
REMARK                            x       y       z     vdW  Elec       q    Type
REMARK                         _______ _______ _______ _____ _____    ______ ____
ROOT
ATOM      1  N   UNL     1      43.854   5.256  12.122  0.00  0.00    +0.000 N 
ATOM      2  H   UNL     1      43.213   5.853  12.639  0.00  0.00    +0.000 HD
ENDROOT
BRANCH   1   3
ATOM      3  C   UNL     1      45.194   5.534  12.467  0.00  0.00    +0.000 A 
ATOM      4  C   UNL     1      45.903   6.540  11.799  0.00  0.00    +0.000 A 
ATOM      5  C   UNL     1      47.217   6.862  12.159  0.00  0.00    +0.000 A 
ATOM      6  C   UNL     1      47.816   6.223  13.240  0.00  0.00    +0.000 A 
ATOM      7  C   UNL     1      47.105   5.285  14.000  0.00  0.00    +0.000 A 
ATOM      8  C   UNL     1      45.809   4.945  13.577  0.00  0.00    +0.000 A 
BRANCH   7   9
ATOM      9  C   UNL     1      47.652   4.715  15.240  0.00  0.00    +0.000 A 
ATOM     10  C   UNL     1      48.209   5.514  16.236  0.00  0.00    +0.000 A 
ATOM     11  N   UNL     1      48.702   5.025  17.401  0.00  0.00    +0.000 NA
ATOM     12  C   UNL     1      48.599   3.687  17.540  0.00  0.00    +0.000 A 
ATOM     13  C   UNL     1      48.034   2.880  16.574  0.00  0.00    +0.000 A 
ATOM     14  N   UNL     1      47.548   3.369  15.408  0.00  0.00    +0.000 NA
ENDBRANCH   7   9
ENDBRANCH   1   3
BRANCH   1  15
ATOM     15  C   UNL     1      43.550   5.292  10.678  0.00  0.00    +0.000 C 
BRANCH  15  18
ATOM     16  C   UNL     1      45.604   3.167   8.333  0.00  0.00    +0.000 A 
ATOM     17  C   UNL     1      45.070   4.302   8.924  0.00  0.00    +0.000 A 
ATOM     18  C   UNL     1      44.159   4.112   9.950  0.00  0.00    +0.000 A 
ATOM     19  N   UNL     1      43.768   2.879  10.342  0.00  0.00    +0.000 NA
ATOM     20  C   UNL     1      44.317   1.842   9.699  0.00  0.00    +0.000 A 
ATOM     21  N   UNL     1      45.222   1.918   8.716  0.00  0.00    +0.000 NA
BRANCH  16  23
ATOM     22  F   UNL     1      46.167   3.168   5.988  0.00  0.00    +0.000 F 
ATOM     23  C   UNL     1      46.665   3.308   7.252  0.00  0.00    +0.000 C 
ATOM     24  F   UNL     1      47.661   2.381   7.352  0.00  0.00    +0.000 F 
ATOM     25  F   UNL     1      47.279   4.526   7.265  0.00  0.00    +0.000 F 
ENDBRANCH  16  23
ENDBRANCH  15  18
ENDBRANCH   1  15
TORSDOF 5
ENDMDL
MODEL 2
REMARK VINA RESULT:    -7.583      3.092      6.772
REMARK INTER + INTRA:         -10.512
REMARK INTER:                  -9.761
REMARK INTRA:                  -0.751
REMARK UNBOUND:                -0.712
REMARK  Name = 
REMARK  5 active torsions:
REMARK  status: ('A' for Active; 'I' for Inactive)
REMARK    1  A    between atoms: C_2  and  C_5
REMARK    2  A    between atoms: C_7  and  C_8
REMARK    3  A    between atoms: C_8  and  N_9
REMARK    4  A    between atoms: N_9  and  C_10
REMARK    5  A    between atoms: C_14  and  C_15
REMARK                            x       y       z     vdW  Elec       q    Type
REMARK                         _______ _______ _______ _____ _____    ______ ____
ROOT
ATOM      1  N   UNL     1      44.085   6.537  11.008  0.00  0.00    +0.000 N 
ATOM      2  H   UNL     1      43.162   6.881  10.755  0.00  0.00    +0.000 HD
ENDROOT
BRANCH   1   3
ATOM      3  C   UNL     1      44.175   5.142  10.819  0.00  0.00    +0.000 A 
ATOM      4  C   UNL     1      43.339   4.275  11.535  0.00  0.00    +0.000 A 
ATOM      5  C   UNL     1      43.381   2.892  11.326  0.00  0.00    +0.000 A 
ATOM      6  C   UNL     1      44.216   2.363  10.347  0.00  0.00    +0.000 A 
ATOM      7  C   UNL     1      44.991   3.204   9.537  0.00  0.00    +0.000 A 
ATOM      8  C   UNL     1      44.968   4.582   9.811  0.00  0.00    +0.000 A 
BRANCH   7   9
ATOM      9  C   UNL     1      45.756   2.689   8.393  0.00  0.00    +0.000 A 
ATOM     10  C   UNL     1      46.109   3.501   7.316  0.00  0.00    +0.000 A 
ATOM     11  N   UNL     1      46.834   3.065   6.256  0.00  0.00    +0.000 NA
ATOM     12  C   UNL     1      47.212   1.773   6.323  0.00  0.00    +0.000 A 
ATOM     13  C   UNL     1      46.891   0.957   7.389  0.00  0.00    +0.000 A 
ATOM     14  N   UNL     1      46.161   1.391   8.445  0.00  0.00    +0.000 NA
ENDBRANCH   7   9
ENDBRANCH   1   3
BRANCH   1  15
ATOM     15  C   UNL     1      44.474   7.023  12.347  0.00  0.00    +0.000 C 
BRANCH  15  18
ATOM     16  C   UNL     1      48.243   7.139  12.449  0.00  0.00    +0.000 A 
ATOM     17  C   UNL     1      46.944   7.467  12.091  0.00  0.00    +0.000 A 
ATOM     18  C   UNL     1      45.925   6.715  12.652  0.00  0.00    +0.000 A 
ATOM     19  N   UNL     1      46.173   5.679  13.484  0.00  0.00    +0.000 NA
ATOM     20  C   UNL     1      47.458   5.419  13.754  0.00  0.00    +0.000 A 
ATOM     21  N   UNL     1      48.511   6.099  13.284  0.00  0.00    +0.000 NA
BRANCH  16  23
ATOM     22  F   UNL     1      50.122   7.344  10.950  0.00  0.00    +0.000 F 
ATOM     23  C   UNL     1      49.403   7.974  11.925  0.00  0.00    +0.000 C 
ATOM     24  F   UNL     1      50.311   8.299  12.890  0.00  0.00    +0.000 F 
ATOM     25  F   UNL     1      49.001   9.155  11.372  0.00  0.00    +0.000 F 
ENDBRANCH  16  23
ENDBRANCH  15  18
ENDBRANCH   1  15
TORSDOF 5
ENDMDL
MODEL 3
REMARK VINA RESULT:    -7.298      1.015      1.651
REMARK INTER + INTRA:         -10.144
REMARK INTER:                  -9.430
REMARK INTRA:                  -0.714
REMARK UNBOUND:                -0.712
REMARK  Name = 
REMARK  5 active torsions:
REMARK  status: ('A' for Active; 'I' for Inactive)
REMARK    1  A    between atoms: C_2  and  C_5
REMARK    2  A    between atoms: C_7  and  C_8
REMARK    3  A    between atoms: C_8  and  N_9
REMARK    4  A    between atoms: N_9  and  C_10
REMARK    5  A    between atoms: C_14  and  C_15
REMARK                            x       y       z     vdW  Elec       q    Type
REMARK                         _______ _______ _______ _____ _____    ______ ____
ROOT
ATOM      1  N   UNL     1      44.944   6.637  10.655  0.00  0.00    +0.000 N 
ATOM      2  H   UNL     1      45.434   6.497   9.775  0.00  0.00    +0.000 HD
ENDROOT
BRANCH   1   3
ATOM      3  C   UNL     1      45.846   6.974  11.687  0.00  0.00    +0.000 A 
ATOM      4  C   UNL     1      46.153   8.315  11.948  0.00  0.00    +0.000 A 
ATOM      5  C   UNL     1      47.008   8.672  12.998  0.00  0.00    +0.000 A 
ATOM      6  C   UNL     1      47.515   7.690  13.843  0.00  0.00    +0.000 A 
ATOM      7  C   UNL     1      47.149   6.347  13.680  0.00  0.00    +0.000 A 
ATOM      8  C   UNL     1      46.335   6.018  12.584  0.00  0.00    +0.000 A 
BRANCH   7   9
ATOM      9  C   UNL     1      47.537   5.314  14.651  0.00  0.00    +0.000 A 
ATOM     10  C   UNL     1      47.224   3.969  14.463  0.00  0.00    +0.000 A 
ATOM     11  N   UNL     1      47.586   2.988  15.325  0.00  0.00    +0.000 NA
ATOM     12  C   UNL     1      48.299   3.407  16.390  0.00  0.00    +0.000 A 
ATOM     13  C   UNL     1      48.638   4.730  16.586  0.00  0.00    +0.000 A 
ATOM     14  N   UNL     1      48.269   5.711  15.727  0.00  0.00    +0.000 NA
ENDBRANCH   7   9
ENDBRANCH   1   3
BRANCH   1  15
ATOM     15  C   UNL     1      44.049   5.499  10.942  0.00  0.00    +0.000 C 
BRANCH  15  18
ATOM     16  C   UNL     1      45.610   3.207   8.384  0.00  0.00    +0.000 A 
ATOM     17  C   UNL     1      45.300   4.378   9.059  0.00  0.00    +0.000 A 
ATOM     18  C   UNL     1      44.418   4.279  10.124  0.00  0.00    +0.000 A 
ATOM     19  N   UNL     1      43.847   3.106  10.474  0.00  0.00    +0.000 NA
ATOM     20  C   UNL     1      44.184   2.032   9.751  0.00  0.00    +0.000 A 
ATOM     21  N   UNL     1      45.044   2.017   8.724  0.00  0.00    +0.000 NA
BRANCH  16  23
ATOM     22  F   UNL     1      47.609   2.293   7.390  0.00  0.00    +0.000 F 
ATOM     23  C   UNL     1      46.630   3.235   7.254  0.00  0.00    +0.000 C 
ATOM     24  F   UNL     1      47.285   4.426   7.151  0.00  0.00    +0.000 F 
ATOM     25  F   UNL     1      46.073   3.002   6.030  0.00  0.00    +0.000 F 
ENDBRANCH  16  23
ENDBRANCH  15  18
ENDBRANCH   1  15
TORSDOF 5
ENDMDL
MODEL 4
REMARK VINA RESULT:    -7.289      4.646      8.227
REMARK INTER + INTRA:         -10.132
REMARK INTER:                  -9.645
REMARK INTRA:                  -0.486
REMARK UNBOUND:                -0.712
REMARK  Name = 
REMARK  5 active torsions:
REMARK  status: ('A' for Active; 'I' for Inactive)
REMARK    1  A    between atoms: C_2  and  C_5
REMARK    2  A    between atoms: C_7  and  C_8
REMARK    3  A    between atoms: C_8  and  N_9
REMARK    4  A    between atoms: N_9  and  C_10
REMARK    5  A    between atoms: C_14  and  C_15
REMARK                            x       y       z     vdW  Elec       q    Type
REMARK                         _______ _______ _______ _____ _____    ______ ____
ROOT
ATOM      1  N   UNL     1      45.681   4.633  14.177  0.00  0.00    +0.000 N 
ATOM      2  H   UNL     1      45.130   4.404  15.000  0.00  0.00    +0.000 HD
ENDROOT
BRANCH   1   3
ATOM      3  C   UNL     1      44.888   4.595  13.011  0.00  0.00    +0.000 A 
ATOM      4  C   UNL     1      43.655   5.259  12.972  0.00  0.00    +0.000 A 
ATOM      5  C   UNL     1      42.876   5.273  11.809  0.00  0.00    +0.000 A 
ATOM      6  C   UNL     1      43.354   4.676  10.647  0.00  0.00    +0.000 A 
ATOM      7  C   UNL     1      44.627   4.093  10.614  0.00  0.00    +0.000 A 
ATOM      8  C   UNL     1      45.359   4.047  11.813  0.00  0.00    +0.000 A 
BRANCH   7   9
ATOM      9  C   UNL     1      45.223   3.600   9.364  0.00  0.00    +0.000 A 
ATOM     10  C   UNL     1      45.630   4.465   8.350  0.00  0.00    +0.000 A 
ATOM     11  N   UNL     1      46.204   4.047   7.194  0.00  0.00    +0.000 NA
ATOM     12  C   UNL     1      46.374   2.713   7.098  0.00  0.00    +0.000 A 
ATOM     13  C   UNL     1      45.996   1.840   8.099  0.00  0.00    +0.000 A 
ATOM     14  N   UNL     1      45.416   2.258   9.250  0.00  0.00    +0.000 NA
ENDBRANCH   7   9
ENDBRANCH   1   3
BRANCH   1  15
ATOM     15  C   UNL     1      46.914   3.822  14.131  0.00  0.00    +0.000 C 
BRANCH  15  18
ATOM     16  C   UNL     1      47.920   4.453  17.712  0.00  0.00    +0.000 A 
ATOM     17  C   UNL     1      47.323   4.656  16.477  0.00  0.00    +0.000 A 
ATOM     18  C   UNL     1      47.554   3.703  15.499  0.00  0.00    +0.000 A 
ATOM     19  N   UNL     1      48.356   2.637  15.712  0.00  0.00    +0.000 NA
ATOM     20  C   UNL     1      48.911   2.535  16.926  0.00  0.00    +0.000 A 
ATOM     21  N   UNL     1      48.731   3.386  17.944  0.00  0.00    +0.000 NA
BRANCH  16  23
ATOM     22  F   UNL     1      48.298   6.616  18.711  0.00  0.00    +0.000 F 
ATOM     23  C   UNL     1      47.646   5.424  18.851  0.00  0.00    +0.000 C 
ATOM     24  F   UNL     1      48.026   4.945  20.070  0.00  0.00    +0.000 F 
ATOM     25  F   UNL     1      46.325   5.748  18.968  0.00  0.00    +0.000 F 
ENDBRANCH  16  23
ENDBRANCH  15  18
ENDBRANCH   1  15
TORSDOF 5
ENDMDL
MODEL 5
REMARK VINA RESULT:    -7.159      4.235      8.065
REMARK INTER + INTRA:          -9.964
REMARK INTER:                  -9.486
REMARK INTRA:                  -0.478
REMARK UNBOUND:                -0.712
REMARK  Name = 
REMARK  5 active torsions:
REMARK  status: ('A' for Active; 'I' for Inactive)
REMARK    1  A    between atoms: C_2  and  C_5
REMARK    2  A    between atoms: C_7  and  C_8
REMARK    3  A    between atoms: C_8  and  N_9
REMARK    4  A    between atoms: N_9  and  C_10
REMARK    5  A    between atoms: C_14  and  C_15
REMARK                            x       y       z     vdW  Elec       q    Type
REMARK                         _______ _______ _______ _____ _____    ______ ____
ROOT
ATOM      1  N   UNL     1      45.615   4.831  14.140  0.00  0.00    +0.000 N 
ATOM      2  H   UNL     1      45.700   3.962  14.661  0.00  0.00    +0.000 HD
ENDROOT
BRANCH   1   3
ATOM      3  C   UNL     1      44.817   4.654  12.990  0.00  0.00    +0.000 A 
ATOM      4  C   UNL     1      43.518   5.175  12.943  0.00  0.00    +0.000 A 
ATOM      5  C   UNL     1      42.728   5.052  11.794  0.00  0.00    +0.000 A 
ATOM      6  C   UNL     1      43.256   4.461  10.650  0.00  0.00    +0.000 A 
ATOM      7  C   UNL     1      44.586   4.021  10.621  0.00  0.00    +0.000 A 
ATOM      8  C   UNL     1      45.332   4.109  11.808  0.00  0.00    +0.000 A 
BRANCH   7   9
ATOM      9  C   UNL     1      45.218   3.543   9.383  0.00  0.00    +0.000 A 
ATOM     10  C   UNL     1      45.659   4.419   8.394  0.00  0.00    +0.000 A 
ATOM     11  N   UNL     1      46.267   4.015   7.251  0.00  0.00    +0.000 NA
ATOM     12  C   UNL     1      46.434   2.681   7.142  0.00  0.00    +0.000 A 
ATOM     13  C   UNL     1      46.023   1.797   8.119  0.00  0.00    +0.000 A 
ATOM     14  N   UNL     1      45.410   2.202   9.257  0.00  0.00    +0.000 NA
ENDBRANCH   7   9
ENDBRANCH   1   3
BRANCH   1  15
ATOM     15  C   UNL     1      46.943   5.430  13.904  0.00  0.00    +0.000 C 
BRANCH  15  18
ATOM     16  C   UNL     1      48.526   4.315  17.142  0.00  0.00    +0.000 A 
ATOM     17  C   UNL     1      47.664   4.327  16.056  0.00  0.00    +0.000 A 
ATOM     18  C   UNL     1      47.816   5.355  15.139  0.00  0.00    +0.000 A 
ATOM     19  N   UNL     1      48.734   6.333  15.305  0.00  0.00    +0.000 NA
ATOM     20  C   UNL     1      49.506   6.255  16.395  0.00  0.00    +0.000 A 
ATOM     21  N   UNL     1      49.456   5.291  17.324  0.00  0.00    +0.000 NA
BRANCH  16  23
ATOM     22  F   UNL     1      48.497   3.592  19.443  0.00  0.00    +0.000 F 
ATOM     23  C   UNL     1      48.460   3.172  18.144  0.00  0.00    +0.000 C 
ATOM     24  F   UNL     1      49.492   2.288  18.021  0.00  0.00    +0.000 F 
ATOM     25  F   UNL     1      47.317   2.435  18.037  0.00  0.00    +0.000 F 
ENDBRANCH  16  23
ENDBRANCH  15  18
ENDBRANCH   1  15
TORSDOF 5
ENDMDL
MODEL 6
REMARK VINA RESULT:    -7.132      1.698      2.565
REMARK INTER + INTRA:          -9.929
REMARK INTER:                  -9.257
REMARK INTRA:                  -0.672
REMARK UNBOUND:                -0.712
REMARK  Name = 
REMARK  5 active torsions:
REMARK  status: ('A' for Active; 'I' for Inactive)
REMARK    1  A    between atoms: C_2  and  C_5
REMARK    2  A    between atoms: C_7  and  C_8
REMARK    3  A    between atoms: C_8  and  N_9
REMARK    4  A    between atoms: N_9  and  C_10
REMARK    5  A    between atoms: C_14  and  C_15
REMARK                            x       y       z     vdW  Elec       q    Type
REMARK                         _______ _______ _______ _____ _____    ______ ____
ROOT
ATOM      1  N   UNL     1      46.508   6.767  11.444  0.00  0.00    +0.000 N 
ATOM      2  H   UNL     1      46.763   6.033  10.787  0.00  0.00    +0.000 HD
ENDROOT
BRANCH   1   3
ATOM      3  C   UNL     1      47.439   6.843  12.502  0.00  0.00    +0.000 A 
ATOM      4  C   UNL     1      48.311   7.935  12.600  0.00  0.00    +0.000 A 
ATOM      5  C   UNL     1      49.208   8.052  13.668  0.00  0.00    +0.000 A 
ATOM      6  C   UNL     1      49.197   7.108  14.690  0.00  0.00    +0.000 A 
ATOM      7  C   UNL     1      48.270   6.058  14.683  0.00  0.00    +0.000 A 
ATOM      8  C   UNL     1      47.422   5.938  13.569  0.00  0.00    +0.000 A 
BRANCH   7   9
ATOM      9  C   UNL     1      48.127   5.142  15.824  0.00  0.00    +0.000 A 
ATOM     10  C   UNL     1      47.016   4.314  15.970  0.00  0.00    +0.000 A 
ATOM     11  N   UNL     1      46.862   3.441  16.997  0.00  0.00    +0.000 NA
ATOM     12  C   UNL     1      47.886   3.415  17.874  0.00  0.00    +0.000 A 
ATOM     13  C   UNL     1      49.004   4.212  17.738  0.00  0.00    +0.000 A 
ATOM     14  N   UNL     1      49.153   5.089  16.716  0.00  0.00    +0.000 NA
ENDBRANCH   7   9
ENDBRANCH   1   3
BRANCH   1  15
ATOM     15  C   UNL     1      45.095   6.637  11.851  0.00  0.00    +0.000 C 
BRANCH  15  18
ATOM     16  C   UNL     1      44.393   3.331  10.174  0.00  0.00    +0.000 A 
ATOM     17  C   UNL     1      44.913   4.601  10.371  0.00  0.00    +0.000 A 
ATOM     18  C   UNL     1      44.549   5.261  11.534  0.00  0.00    +0.000 A 
ATOM     19  N   UNL     1      43.692   4.717  12.427  0.00  0.00    +0.000 NA
ATOM     20  C   UNL     1      43.220   3.498  12.142  0.00  0.00    +0.000 A 
ATOM     21  N   UNL     1      43.530   2.770  11.062  0.00  0.00    +0.000 NA
BRANCH  16  23
ATOM     22  F   UNL     1      46.156   2.276   8.910  0.00  0.00    +0.000 F 
ATOM     23  C   UNL     1      44.814   2.525   8.953  0.00  0.00    +0.000 C 
ATOM     24  F   UNL     1      44.523   3.144   7.774  0.00  0.00    +0.000 F 
ATOM     25  F   UNL     1      44.218   1.299   8.895  0.00  0.00    +0.000 F 
ENDBRANCH  16  23
ENDBRANCH  15  18
ENDBRANCH   1  15
TORSDOF 5
ENDMDL
MODEL 7
REMARK VINA RESULT:    -6.876      3.023      6.958
REMARK INTER + INTRA:          -9.598
REMARK INTER:                  -8.828
REMARK INTRA:                  -0.770
REMARK UNBOUND:                -0.712
REMARK  Name = 
REMARK  5 active torsions:
REMARK  status: ('A' for Active; 'I' for Inactive)
REMARK    1  A    between atoms: C_2  and  C_5
REMARK    2  A    between atoms: C_7  and  C_8
REMARK    3  A    between atoms: C_8  and  N_9
REMARK    4  A    between atoms: N_9  and  C_10
REMARK    5  A    between atoms: C_14  and  C_15
REMARK                            x       y       z     vdW  Elec       q    Type
REMARK                         _______ _______ _______ _____ _____    ______ ____
ROOT
ATOM      1  N   UNL     1      45.620   5.461  13.873  0.00  0.00    +0.000 N 
ATOM      2  H   UNL     1      45.086   5.250  14.713  0.00  0.00    +0.000 HD
ENDROOT
BRANCH   1   3
ATOM      3  C   UNL     1      44.869   5.176  12.713  0.00  0.00    +0.000 A 
ATOM      4  C   UNL     1      43.598   5.738  12.536  0.00  0.00    +0.000 A 
ATOM      5  C   UNL     1      42.859   5.505  11.371  0.00  0.00    +0.000 A 
ATOM      6  C   UNL     1      43.412   4.758  10.336  0.00  0.00    +0.000 A 
ATOM      7  C   UNL     1      44.721   4.266  10.429  0.00  0.00    +0.000 A 
ATOM      8  C   UNL     1      45.414   4.470  11.634  0.00  0.00    +0.000 A 
BRANCH   7   9
ATOM      9  C   UNL     1      45.388   3.616   9.292  0.00  0.00    +0.000 A 
ATOM     10  C   UNL     1      45.484   2.229   9.188  0.00  0.00    +0.000 A 
ATOM     11  N   UNL     1      46.072   1.596   8.143  0.00  0.00    +0.000 NA
ATOM     12  C   UNL     1      46.551   2.413   7.184  0.00  0.00    +0.000 A 
ATOM     13  C   UNL     1      46.449   3.788   7.258  0.00  0.00    +0.000 A 
ATOM     14  N   UNL     1      45.868   4.420   8.305  0.00  0.00    +0.000 NA
ENDBRANCH   7   9
ENDBRANCH   1   3
BRANCH   1  15
ATOM     15  C   UNL     1      46.956   4.838  13.933  0.00  0.00    +0.000 C 
BRANCH  15  18
ATOM     16  C   UNL     1      49.471   7.484  12.981  0.00  0.00    +0.000 A 
ATOM     17  C   UNL     1      48.484   6.521  12.837  0.00  0.00    +0.000 A 
ATOM     18  C   UNL     1      48.055   5.878  13.988  0.00  0.00    +0.000 A 
ATOM     19  N   UNL     1      48.594   6.141  15.199  0.00  0.00    +0.000 NA
ATOM     20  C   UNL     1      49.559   7.067  15.239  0.00  0.00    +0.000 A 
ATOM     21  N   UNL     1      50.025   7.761  14.193  0.00  0.00    +0.000 NA
BRANCH  16  23
ATOM     22  F   UNL     1      48.933   9.012  11.193  0.00  0.00    +0.000 F 
ATOM     23  C   UNL     1      49.932   8.278  11.768  0.00  0.00    +0.000 C 
ATOM     24  F   UNL     1      50.425   7.493  10.767  0.00  0.00    +0.000 F 
ATOM     25  F   UNL     1      50.915   9.177  12.063  0.00  0.00    +0.000 F 
ENDBRANCH  16  23
ENDBRANCH  15  18
ENDBRANCH   1  15
TORSDOF 5
ENDMDL
MODEL 8
REMARK VINA RESULT:    -6.639      2.312      3.043
REMARK INTER + INTRA:          -9.292
REMARK INTER:                  -8.683
REMARK INTRA:                  -0.610
REMARK UNBOUND:                -0.712
REMARK  Name = 
REMARK  5 active torsions:
REMARK  status: ('A' for Active; 'I' for Inactive)
REMARK    1  A    between atoms: C_2  and  C_5
REMARK    2  A    between atoms: C_7  and  C_8
REMARK    3  A    between atoms: C_8  and  N_9
REMARK    4  A    between atoms: N_9  and  C_10
REMARK    5  A    between atoms: C_14  and  C_15
REMARK                            x       y       z     vdW  Elec       q    Type
REMARK                         _______ _______ _______ _____ _____    ______ ____
ROOT
ATOM      1  N   UNL     1      45.824   6.232  13.386  0.00  0.00    +0.000 N 
ATOM      2  H   UNL     1      45.468   6.608  14.262  0.00  0.00    +0.000 HD
ENDROOT
BRANCH   1   3
ATOM      3  C   UNL     1      47.147   6.665  13.152  0.00  0.00    +0.000 A 
ATOM      4  C   UNL     1      47.497   7.237  11.922  0.00  0.00    +0.000 A 
ATOM      5  C   UNL     1      48.791   7.716  11.688  0.00  0.00    +0.000 A 
ATOM      6  C   UNL     1      49.736   7.688  12.708  0.00  0.00    +0.000 A 
ATOM      7  C   UNL     1      49.397   7.220  13.985  0.00  0.00    +0.000 A 
ATOM      8  C   UNL     1      48.107   6.696  14.170  0.00  0.00    +0.000 A 
BRANCH   7   9
ATOM      9  C   UNL     1      50.322   7.329  15.122  0.00  0.00    +0.000 A 
ATOM     10  C   UNL     1      51.090   8.470  15.342  0.00  0.00    +0.000 A 
ATOM     11  N   UNL     1      51.936   8.613  16.393  0.00  0.00    +0.000 NA
ATOM     12  C   UNL     1      51.970   7.562  17.237  0.00  0.00    +0.000 A 
ATOM     13  C   UNL     1      51.202   6.430  17.049  0.00  0.00    +0.000 A 
ATOM     14  N   UNL     1      50.363   6.286  15.995  0.00  0.00    +0.000 NA
ENDBRANCH   7   9
ENDBRANCH   1   3
BRANCH   1  15
ATOM     15  C   UNL     1      44.872   6.478  12.286  0.00  0.00    +0.000 C 
BRANCH  15  18
ATOM     16  C   UNL     1      44.790   3.739   9.693  0.00  0.00    +0.000 A 
ATOM     17  C   UNL     1      45.115   4.944  10.297  0.00  0.00    +0.000 A 
ATOM     18  C   UNL     1      44.547   5.204  11.535  0.00  0.00    +0.000 A 
ATOM     19  N   UNL     1      43.682   4.347  12.120  0.00  0.00    +0.000 NA
ATOM     20  C   UNL     1      43.407   3.220  11.453  0.00  0.00    +0.000 A 
ATOM     21  N   UNL     1      43.920   2.865  10.269  0.00  0.00    +0.000 NA
BRANCH  16  23
ATOM     22  F   UNL     1      46.384   4.256   7.958  0.00  0.00    +0.000 F 
ATOM     23  C   UNL     1      45.438   3.361   8.369  0.00  0.00    +0.000 C 
ATOM     24  F   UNL     1      44.548   3.278   7.339  0.00  0.00    +0.000 F 
ATOM     25  F   UNL     1      46.078   2.157   8.415  0.00  0.00    +0.000 F 
ENDBRANCH  16  23
ENDBRANCH  15  18
ENDBRANCH   1  15
TORSDOF 5
ENDMDL
MODEL 9
REMARK VINA RESULT:    -6.498      3.013      4.138
REMARK INTER + INTRA:          -9.110
REMARK INTER:                  -8.404
REMARK INTRA:                  -0.706
REMARK UNBOUND:                -0.712
REMARK  Name = 
REMARK  5 active torsions:
REMARK  status: ('A' for Active; 'I' for Inactive)
REMARK    1  A    between atoms: C_2  and  C_5
REMARK    2  A    between atoms: C_7  and  C_8
REMARK    3  A    between atoms: C_8  and  N_9
REMARK    4  A    between atoms: N_9  and  C_10
REMARK    5  A    between atoms: C_14  and  C_15
REMARK                            x       y       z     vdW  Elec       q    Type
REMARK                         _______ _______ _______ _____ _____    ______ ____
ROOT
ATOM      1  N   UNL     1      44.827   6.885  13.161  0.00  0.00    +0.000 N 
ATOM      2  H   UNL     1      43.959   6.825  12.632  0.00  0.00    +0.000 HD
ENDROOT
BRANCH   1   3
ATOM      3  C   UNL     1      45.647   7.922  12.669  0.00  0.00    +0.000 A 
ATOM      4  C   UNL     1      45.084   9.137  12.258  0.00  0.00    +0.000 A 
ATOM      5  C   UNL     1      45.886  10.193  11.812  0.00  0.00    +0.000 A 
ATOM      6  C   UNL     1      47.272  10.070  11.836  0.00  0.00    +0.000 A 
ATOM      7  C   UNL     1      47.878   8.912  12.338  0.00  0.00    +0.000 A 
ATOM      8  C   UNL     1      47.044   7.849  12.724  0.00  0.00    +0.000 A 
BRANCH   7   9
ATOM      9  C   UNL     1      49.333   8.816  12.526  0.00  0.00    +0.000 A 
ATOM     10  C   UNL     1      49.895   8.343  13.710  0.00  0.00    +0.000 A 
ATOM     11  N   UNL     1      51.231   8.220  13.909  0.00  0.00    +0.000 NA
ATOM     12  C   UNL     1      51.993   8.578  12.856  0.00  0.00    +0.000 A 
ATOM     13  C   UNL     1      51.457   9.030  11.667  0.00  0.00    +0.000 A 
ATOM     14  N   UNL     1      50.123   9.159  11.472  0.00  0.00    +0.000 NA
ENDBRANCH   7   9
ENDBRANCH   1   3
BRANCH   1  15
ATOM     15  C   UNL     1      45.469   5.560  13.261  0.00  0.00    +0.000 C 
BRANCH  15  18
ATOM     16  C   UNL     1      44.768   3.624  10.099  0.00  0.00    +0.000 A 
ATOM     17  C   UNL     1      45.325   4.573  10.943  0.00  0.00    +0.000 A 
ATOM     18  C   UNL     1      44.891   4.583  12.259  0.00  0.00    +0.000 A 
ATOM     19  N   UNL     1      43.937   3.736  12.704  0.00  0.00    +0.000 NA
ATOM     20  C   UNL     1      43.437   2.871  11.815  0.00  0.00    +0.000 A 
ATOM     21  N   UNL     1      43.806   2.764  10.532  0.00  0.00    +0.000 NA
BRANCH  16  23
ATOM     22  F   UNL     1      46.119   4.510   8.309  0.00  0.00    +0.000 F 
ATOM     23  C   UNL     1      45.256   3.513   8.662  0.00  0.00    +0.000 C 
ATOM     24  F   UNL     1      44.248   3.565   7.746  0.00  0.00    +0.000 F 
ATOM     25  F   UNL     1      45.929   2.351   8.418  0.00  0.00    +0.000 F 
ENDBRANCH  16  23
ENDBRANCH  15  18
ENDBRANCH   1  15
TORSDOF 5
ENDMDL
