MODEL 1
REMARK VINA RESULT:    -7.819      0.000      0.000
REMARK INTER + INTRA:         -12.716
REMARK INTER:                 -11.476
REMARK INTRA:                  -1.240
REMARK UNBOUND:                -1.240
REMARK  Name = 
REMARK  10 active torsions:
REMARK  status: ('A' for Active; 'I' for Inactive)
REMARK    1  A    between atoms: C_1  and  O_2
REMARK    2  A    between atoms: O_2  and  C_3
REMARK    3  A    between atoms: C_5  and  C_6
REMARK    4  A    between atoms: C_6  and  N_7
REMARK    5  A    between atoms: N_7  and  C_8
REMARK    6  A    between atoms: C_9  and  C_11
REMARK    7  A    between atoms: C_23  and  C_24
REMARK    8  A    between atoms: C_24  and  N_25
REMARK    9  A    between atoms: N_25  and  C_26
REMARK   10  A    between atoms: C_26  and  C_27
REMARK                            x       y       z     vdW  Elec       q    Type
REMARK                         _______ _______ _______ _____ _____    ______ ____
ROOT
ATOM      1  C   UNL     1      45.513   4.700  12.755  0.00  0.00    +0.000 A 
ATOM      2  C   UNL     1      46.029   5.910  13.243  0.00  0.00    +0.000 A 
ATOM      3  C   UNL     1      45.745   7.128  12.615  0.00  0.00    +0.000 A 
ATOM      4  C   UNL     1      44.869   7.118  11.520  0.00  0.00    +0.000 A 
ATOM      5  C   UNL     1      44.266   5.925  11.096  0.00  0.00    +0.000 A 
ATOM      6  C   UNL     1      44.566   4.699  11.718  0.00  0.00    +0.000 A 
ENDROOT
BRANCH   1   8
ATOM      7  C   UNL     1      47.120   3.572  14.033  0.00  0.00    +0.000 C 
ATOM      8  O   UNL     1      45.924   3.486  13.254  0.00  0.00    +0.000 OA
ENDBRANCH   1   8
BRANCH   3   9
ATOM      9  C   UNL     1      46.497   8.377  13.036  0.00  0.00    +0.000 C 
BRANCH   9  10
ATOM     10  N   UNL     1      47.960   8.255  13.108  0.00  0.00    +0.000 N 
ATOM     11  C   UNL     1      48.589   7.641  11.946  0.00  0.00    +0.000 C 
ATOM     12  C   UNL     1      48.570   8.469  14.363  0.00  0.00    +0.000 C 
ATOM     13  O   UNL     1      47.896   8.821  15.330  0.00  0.00    +0.000 OA
BRANCH  12  14
ATOM     14  C   UNL     1      50.033   8.336  14.532  0.00  0.00    +0.000 A 
ATOM     15  C   UNL     1      50.965   9.247  14.058  0.00  0.00    +0.000 A 
ATOM     16  S   UNL     1      52.578   8.854  14.450  0.00  0.00    +0.000 S 
ATOM     17  C   UNL     1      52.080   7.570  15.445  0.00  0.00    +0.000 A 
ATOM     18  N   UNL     1      52.978   6.900  16.217  0.00  0.00    +0.000 NA
ATOM     19  C   UNL     1      52.451   6.011  16.991  0.00  0.00    +0.000 A 
ATOM     20  N   UNL     1      51.116   5.698  17.021  0.00  0.00    +0.000 N 
ATOM     21  C   UNL     1      50.197   6.242  16.147  0.00  0.00    +0.000 A 
ATOM     22  O   UNL     1      49.077   5.753  16.035  0.00  0.00    +0.000 OA
ATOM     23  C   UNL     1      50.715   7.356  15.365  0.00  0.00    +0.000 A 
ATOM     24  H   UNL     1      50.780   4.945  17.604  0.00  0.00    +0.000 HD
ENDBRANCH  12  14
ENDBRANCH   9  10
ENDBRANCH   3   9
BRANCH   6  25
ATOM     25  C   UNL     1      43.813   3.443  11.317  0.00  0.00    +0.000 C 
BRANCH  25  26
ATOM     26  N   UNL     1      44.640   2.656  10.403  0.00  0.00    +0.000 NA
ATOM     27  H   UNL     1      44.369   1.677  10.460  0.00  0.00    +0.000 HD
BRANCH  26  28
ATOM     28  C   UNL     1      44.575   3.105   9.018  0.00  0.00    +0.000 C 
BRANCH  28  29
ATOM     29  C   UNL     1      45.726   2.516   8.227  0.00  0.00    +0.000 A 
ATOM     30  C   UNL     1      45.982   1.143   8.229  0.00  0.00    +0.000 A 
ATOM     31  C   UNL     1      47.062   0.665   7.500  0.00  0.00    +0.000 A 
ATOM     32  N   UNL     1      47.894   1.453   6.778  0.00  0.00    +0.000 NA
ATOM     33  C   UNL     1      47.634   2.771   6.788  0.00  0.00    +0.000 A 
ATOM     34  C   UNL     1      46.582   3.338   7.479  0.00  0.00    +0.000 A 
ENDBRANCH  28  29
ENDBRANCH  26  28
ENDBRANCH  25  26
ENDBRANCH   6  25
TORSDOF 8
ENDMDL
MODEL 2
REMARK VINA RESULT:    -7.513      2.396      3.121
REMARK INTER + INTRA:         -12.266
REMARK INTER:                 -10.756
REMARK INTRA:                  -1.510
REMARK UNBOUND:                -1.240
REMARK  Name = 
REMARK  10 active torsions:
REMARK  status: ('A' for Active; 'I' for Inactive)
REMARK    1  A    between atoms: C_1  and  O_2
REMARK    2  A    between atoms: O_2  and  C_3
REMARK    3  A    between atoms: C_5  and  C_6
REMARK    4  A    between atoms: C_6  and  N_7
REMARK    5  A    between atoms: N_7  and  C_8
REMARK    6  A    between atoms: C_9  and  C_11
REMARK    7  A    between atoms: C_23  and  C_24
REMARK    8  A    between atoms: C_24  and  N_25
REMARK    9  A    between atoms: N_25  and  C_26
REMARK   10  A    between atoms: C_26  and  C_27
REMARK                            x       y       z     vdW  Elec       q    Type
REMARK                         _______ _______ _______ _____ _____    ______ ____
ROOT
ATOM      1  C   UNL     1      46.449   5.054  12.894  0.00  0.00    +0.000 A 
ATOM      2  C   UNL     1      47.377   5.854  13.580  0.00  0.00    +0.000 A 
ATOM      3  C   UNL     1      47.739   7.119  13.104  0.00  0.00    +0.000 A 
ATOM      4  C   UNL     1      47.097   7.601  11.955  0.00  0.00    +0.000 A 
ATOM      5  C   UNL     1      46.092   6.851  11.327  0.00  0.00    +0.000 A 
ATOM      6  C   UNL     1      45.740   5.572  11.798  0.00  0.00    +0.000 A 
ENDROOT
BRANCH   1   8
ATOM      7  C   UNL     1      47.093   3.282  14.283  0.00  0.00    +0.000 C 
ATOM      8  O   UNL     1      46.217   3.748  13.253  0.00  0.00    +0.000 OA
ENDBRANCH   1   8
BRANCH   3   9
ATOM      9  C   UNL     1      48.902   7.851  13.746  0.00  0.00    +0.000 C 
BRANCH   9  10
ATOM     10  N   UNL     1      48.814   8.053  15.200  0.00  0.00    +0.000 N 
ATOM     11  C   UNL     1      47.995   9.182  15.621  0.00  0.00    +0.000 C 
ATOM     12  C   UNL     1      49.723   7.341  16.012  0.00  0.00    +0.000 C 
ATOM     13  O   UNL     1      50.499   6.529  15.512  0.00  0.00    +0.000 OA
BRANCH  12  14
ATOM     14  C   UNL     1      49.725   7.508  17.481  0.00  0.00    +0.000 A 
ATOM     15  C   UNL     1      50.424   8.495  18.159  0.00  0.00    +0.000 A 
ATOM     16  S   UNL     1      50.192   8.471  19.849  0.00  0.00    +0.000 S 
ATOM     17  C   UNL     1      48.988   7.279  19.720  0.00  0.00    +0.000 A 
ATOM     18  N   UNL     1      48.257   6.909  20.807  0.00  0.00    +0.000 NA
ATOM     19  C   UNL     1      47.317   6.063  20.549  0.00  0.00    +0.000 A 
ATOM     20  N   UNL     1      47.079   5.516  19.315  0.00  0.00    +0.000 N 
ATOM     21  C   UNL     1      47.891   5.744  18.222  0.00  0.00    +0.000 A 
ATOM     22  O   UNL     1      47.799   5.045  17.218  0.00  0.00    +0.000 OA
ATOM     23  C   UNL     1      48.867   6.806  18.426  0.00  0.00    +0.000 A 
ATOM     24  H   UNL     1      46.368   4.809  19.196  0.00  0.00    +0.000 HD
ENDBRANCH  12  14
ENDBRANCH   9  10
ENDBRANCH   3   9
BRANCH   6  25
ATOM     25  C   UNL     1      44.570   4.832  11.174  0.00  0.00    +0.000 C 
BRANCH  25  26
ATOM     26  N   UNL     1      45.074   3.694  10.406  0.00  0.00    +0.000 NA
ATOM     27  H   UNL     1      44.635   2.840  10.741  0.00  0.00    +0.000 HD
BRANCH  26  28
ATOM     28  C   UNL     1      44.871   3.821   8.968  0.00  0.00    +0.000 C 
BRANCH  28  29
ATOM     29  C   UNL     1      45.863   2.949   8.226  0.00  0.00    +0.000 A 
ATOM     30  C   UNL     1      46.770   3.494   7.313  0.00  0.00    +0.000 A 
ATOM     31  C   UNL     1      47.642   2.642   6.650  0.00  0.00    +0.000 A 
ATOM     32  N   UNL     1      47.672   1.301   6.832  0.00  0.00    +0.000 NA
ATOM     33  C   UNL     1      46.793   0.793   7.712  0.00  0.00    +0.000 A 
ATOM     34  C   UNL     1      45.891   1.560   8.421  0.00  0.00    +0.000 A 
ENDBRANCH  28  29
ENDBRANCH  26  28
ENDBRANCH  25  26
ENDBRANCH   6  25
TORSDOF 8
ENDMDL
MODEL 3
REMARK VINA RESULT:    -6.839      2.380      3.586
REMARK INTER + INTRA:         -11.277
REMARK INTER:                 -10.100
REMARK INTRA:                  -1.177
REMARK UNBOUND:                -1.240
REMARK  Name = 
REMARK  10 active torsions:
REMARK  status: ('A' for Active; 'I' for Inactive)
REMARK    1  A    between atoms: C_1  and  O_2
REMARK    2  A    between atoms: O_2  and  C_3
REMARK    3  A    between atoms: C_5  and  C_6
REMARK    4  A    between atoms: C_6  and  N_7
REMARK    5  A    between atoms: N_7  and  C_8
REMARK    6  A    between atoms: C_9  and  C_11
REMARK    7  A    between atoms: C_23  and  C_24
REMARK    8  A    between atoms: C_24  and  N_25
REMARK    9  A    between atoms: N_25  and  C_26
REMARK   10  A    between atoms: C_26  and  C_27
REMARK                            x       y       z     vdW  Elec       q    Type
REMARK                         _______ _______ _______ _____ _____    ______ ____
ROOT
ATOM      1  C   UNL     1      45.468   8.227  12.092  0.00  0.00    +0.000 A 
ATOM      2  C   UNL     1      46.619   8.821  12.634  0.00  0.00    +0.000 A 
ATOM      3  C   UNL     1      47.517   8.087  13.415  0.00  0.00    +0.000 A 
ATOM      4  C   UNL     1      47.278   6.717  13.587  0.00  0.00    +0.000 A 
ATOM      5  C   UNL     1      46.189   6.096  12.957  0.00  0.00    +0.000 A 
ATOM      6  C   UNL     1      45.276   6.839  12.186  0.00  0.00    +0.000 A 
ENDROOT
BRANCH   1   8
ATOM      7  C   UNL     1      44.580  10.370  11.767  0.00  0.00    +0.000 C 
ATOM      8  O   UNL     1      44.493   8.972  11.474  0.00  0.00    +0.000 OA
ENDBRANCH   1   8
BRANCH   3   9
ATOM      9  C   UNL     1      48.620   8.814  14.163  0.00  0.00    +0.000 C 
BRANCH   9  10
ATOM     10  N   UNL     1      48.849   8.385  15.551  0.00  0.00    +0.000 N 
ATOM     11  C   UNL     1      48.125   9.143  16.562  0.00  0.00    +0.000 C 
ATOM     12  C   UNL     1      49.926   7.503  15.790  0.00  0.00    +0.000 C 
ATOM     13  O   UNL     1      50.586   7.060  14.852  0.00  0.00    +0.000 OA
BRANCH  12  14
ATOM     14  C   UNL     1      50.247   7.046  17.159  0.00  0.00    +0.000 A 
ATOM     15  C   UNL     1      51.074   7.726  18.040  0.00  0.00    +0.000 A 
ATOM     16  S   UNL     1      51.216   6.982  19.569  0.00  0.00    +0.000 S 
ATOM     17  C   UNL     1      50.016   5.841  19.185  0.00  0.00    +0.000 A 
ATOM     18  N   UNL     1      49.542   4.987  20.131  0.00  0.00    +0.000 NA
ATOM     19  C   UNL     1      48.571   4.237  19.728  0.00  0.00    +0.000 A 
ATOM     20  N   UNL     1      48.071   4.230  18.450  0.00  0.00    +0.000 N 
ATOM     21  C   UNL     1      48.625   4.967  17.423  0.00  0.00    +0.000 A 
ATOM     22  O   UNL     1      48.319   4.741  16.257  0.00  0.00    +0.000 OA
ATOM     23  C   UNL     1      49.618   5.937  17.863  0.00  0.00    +0.000 A 
ATOM     24  H   UNL     1      47.354   3.572  18.185  0.00  0.00    +0.000 HD
ENDBRANCH  12  14
ENDBRANCH   9  10
ENDBRANCH   3   9
BRANCH   6  25
ATOM     25  C   UNL     1      44.176   6.126  11.421  0.00  0.00    +0.000 C 
BRANCH  25  26
ATOM     26  N   UNL     1      44.730   5.566  10.188  0.00  0.00    +0.000 NA
ATOM     27  H   UNL     1      45.733   5.438  10.297  0.00  0.00    +0.000 HD
BRANCH  26  28
ATOM     28  C   UNL     1      44.113   4.307   9.787  0.00  0.00    +0.000 C 
BRANCH  28  29
ATOM     29  C   UNL     1      45.077   3.507   8.934  0.00  0.00    +0.000 A 
ATOM     30  C   UNL     1      45.876   4.122   7.967  0.00  0.00    +0.000 A 
ATOM     31  C   UNL     1      46.726   3.333   7.205  0.00  0.00    +0.000 A 
ATOM     32  N   UNL     1      46.833   1.990   7.339  0.00  0.00    +0.000 NA
ATOM     33  C   UNL     1      46.057   1.414   8.272  0.00  0.00    +0.000 A 
ATOM     34  C   UNL     1      45.185   2.115   9.080  0.00  0.00    +0.000 A 
ENDBRANCH  28  29
ENDBRANCH  26  28
ENDBRANCH  25  26
ENDBRANCH   6  25
TORSDOF 8
ENDMDL
MODEL 4
REMARK VINA RESULT:    -6.758      2.533      3.320
REMARK INTER + INTRA:         -11.159
REMARK INTER:                 -10.132
REMARK INTRA:                  -1.027
REMARK UNBOUND:                -1.240
REMARK  Name = 
REMARK  10 active torsions:
REMARK  status: ('A' for Active; 'I' for Inactive)
REMARK    1  A    between atoms: C_1  and  O_2
REMARK    2  A    between atoms: O_2  and  C_3
REMARK    3  A    between atoms: C_5  and  C_6
REMARK    4  A    between atoms: C_6  and  N_7
REMARK    5  A    between atoms: N_7  and  C_8
REMARK    6  A    between atoms: C_9  and  C_11
REMARK    7  A    between atoms: C_23  and  C_24
REMARK    8  A    between atoms: C_24  and  N_25
REMARK    9  A    between atoms: N_25  and  C_26
REMARK   10  A    between atoms: C_26  and  C_27
REMARK                            x       y       z     vdW  Elec       q    Type
REMARK                         _______ _______ _______ _____ _____    ______ ____
ROOT
ATOM      1  C   UNL     1      46.359   5.477  12.860  0.00  0.00    +0.000 A 
ATOM      2  C   UNL     1      47.180   6.251  13.695  0.00  0.00    +0.000 A 
ATOM      3  C   UNL     1      47.916   7.330  13.195  0.00  0.00    +0.000 A 
ATOM      4  C   UNL     1      47.760   7.667  11.843  0.00  0.00    +0.000 A 
ATOM      5  C   UNL     1      46.859   6.964  11.029  0.00  0.00    +0.000 A 
ATOM      6  C   UNL     1      46.131   5.869  11.530  0.00  0.00    +0.000 A 
ENDROOT
BRANCH   1   8
ATOM      7  C   UNL     1      46.715   3.343  13.755  0.00  0.00    +0.000 C 
ATOM      8  O   UNL     1      45.771   4.316  13.300  0.00  0.00    +0.000 OA
ENDBRANCH   1   8
BRANCH   3   9
ATOM      9  C   UNL     1      48.956   7.996  14.077  0.00  0.00    +0.000 C 
BRANCH   9  10
ATOM     10  N   UNL     1      48.713   7.925  15.526  0.00  0.00    +0.000 N 
ATOM     11  C   UNL     1      48.056   9.091  16.102  0.00  0.00    +0.000 C 
ATOM     12  C   UNL     1      49.369   6.903  16.246  0.00  0.00    +0.000 C 
ATOM     13  O   UNL     1      50.050   6.066  15.657  0.00  0.00    +0.000 OA
BRANCH  12  14
ATOM     14  C   UNL     1      49.206   6.778  17.711  0.00  0.00    +0.000 A 
ATOM     15  C   UNL     1      48.169   6.099  18.330  0.00  0.00    +0.000 A 
ATOM     16  S   UNL     1      48.273   6.080  20.033  0.00  0.00    +0.000 S 
ATOM     17  C   UNL     1      49.815   6.794  19.999  0.00  0.00    +0.000 A 
ATOM     18  N   UNL     1      50.548   6.920  21.139  0.00  0.00    +0.000 NA
ATOM     19  C   UNL     1      51.734   7.395  20.955  0.00  0.00    +0.000 A 
ATOM     20  N   UNL     1      52.230   7.804  19.744  0.00  0.00    +0.000 N 
ATOM     21  C   UNL     1      51.469   7.839  18.593  0.00  0.00    +0.000 A 
ATOM     22  O   UNL     1      51.863   8.444  17.601  0.00  0.00    +0.000 OA
ATOM     23  C   UNL     1      50.180   7.171  18.719  0.00  0.00    +0.000 A 
ATOM     24  H   UNL     1      53.145   8.228  19.681  0.00  0.00    +0.000 HD
ENDBRANCH  12  14
ENDBRANCH   9  10
ENDBRANCH   3   9
BRANCH   6  25
ATOM     25  C   UNL     1      45.078   5.200  10.664  0.00  0.00    +0.000 C 
BRANCH  25  26
ATOM     26  N   UNL     1      45.565   5.122   9.287  0.00  0.00    +0.000 NA
ATOM     27  H   UNL     1      46.567   4.950   9.293  0.00  0.00    +0.000 HD
BRANCH  26  28
ATOM     28  C   UNL     1      44.895   4.105   8.486  0.00  0.00    +0.000 C 
BRANCH  28  29
ATOM     29  C   UNL     1      45.915   3.145   7.909  0.00  0.00    +0.000 A 
ATOM     30  C   UNL     1      46.863   3.566   6.973  0.00  0.00    +0.000 A 
ATOM     31  C   UNL     1      47.760   2.634   6.467  0.00  0.00    +0.000 A 
ATOM     32  N   UNL     1      47.776   1.330   6.826  0.00  0.00    +0.000 NA
ATOM     33  C   UNL     1      46.857   0.941   7.726  0.00  0.00    +0.000 A 
ATOM     34  C   UNL     1      45.929   1.793   8.287  0.00  0.00    +0.000 A 
ENDBRANCH  28  29
ENDBRANCH  26  28
ENDBRANCH  25  26
ENDBRANCH   6  25
TORSDOF 8
ENDMDL
MODEL 5
REMARK VINA RESULT:    -6.677      2.792      4.463
REMARK INTER + INTRA:         -11.040
REMARK INTER:                  -9.944
REMARK INTRA:                  -1.096
REMARK UNBOUND:                -1.240
REMARK  Name = 
REMARK  10 active torsions:
REMARK  status: ('A' for Active; 'I' for Inactive)
REMARK    1  A    between atoms: C_1  and  O_2
REMARK    2  A    between atoms: O_2  and  C_3
REMARK    3  A    between atoms: C_5  and  C_6
REMARK    4  A    between atoms: C_6  and  N_7
REMARK    5  A    between atoms: N_7  and  C_8
REMARK    6  A    between atoms: C_9  and  C_11
REMARK    7  A    between atoms: C_23  and  C_24
REMARK    8  A    between atoms: C_24  and  N_25
REMARK    9  A    between atoms: N_25  and  C_26
REMARK   10  A    between atoms: C_26  and  C_27
REMARK                            x       y       z     vdW  Elec       q    Type
REMARK                         _______ _______ _______ _____ _____    ______ ____
ROOT
ATOM      1  C   UNL     1      47.527   7.885  13.302  0.00  0.00    +0.000 A 
ATOM      2  C   UNL     1      48.307   8.018  14.460  0.00  0.00    +0.000 A 
ATOM      3  C   UNL     1      48.470   6.954  15.354  0.00  0.00    +0.000 A 
ATOM      4  C   UNL     1      47.889   5.721  15.027  0.00  0.00    +0.000 A 
ATOM      5  C   UNL     1      47.199   5.553  13.817  0.00  0.00    +0.000 A 
ATOM      6  C   UNL     1      47.022   6.629  12.927  0.00  0.00    +0.000 A 
ENDROOT
BRANCH   1   8
ATOM      7  C   UNL     1      48.353   9.519  11.842  0.00  0.00    +0.000 C 
ATOM      8  O   UNL     1      47.217   8.965  12.511  0.00  0.00    +0.000 OA
ENDBRANCH   1   8
BRANCH   3   9
ATOM      9  C   UNL     1      49.130   7.204  16.697  0.00  0.00    +0.000 C 
BRANCH   9  10
ATOM     10  N   UNL     1      50.386   6.479  16.944  0.00  0.00    +0.000 N 
ATOM     11  C   UNL     1      51.444   6.724  15.973  0.00  0.00    +0.000 C 
ATOM     12  C   UNL     1      50.358   5.434  17.893  0.00  0.00    +0.000 C 
ATOM     13  O   UNL     1      49.336   5.206  18.536  0.00  0.00    +0.000 OA
BRANCH  12  14
ATOM     14  C   UNL     1      51.568   4.633  18.179  0.00  0.00    +0.000 A 
ATOM     15  C   UNL     1      52.656   5.087  18.909  0.00  0.00    +0.000 A 
ATOM     16  S   UNL     1      53.882   3.920  19.121  0.00  0.00    +0.000 S 
ATOM     17  C   UNL     1      52.917   2.703  18.430  0.00  0.00    +0.000 A 
ATOM     18  N   UNL     1      53.322   1.405  18.443  0.00  0.00    +0.000 NA
ATOM     19  C   UNL     1      52.454   0.575  17.967  0.00  0.00    +0.000 A 
ATOM     20  N   UNL     1      51.244   0.936  17.432  0.00  0.00    +0.000 N 
ATOM     21  C   UNL     1      50.862   2.251  17.258  0.00  0.00    +0.000 A 
ATOM     22  O   UNL     1      49.900   2.533  16.550  0.00  0.00    +0.000 OA
ATOM     23  C   UNL     1      51.737   3.211  17.916  0.00  0.00    +0.000 A 
ATOM     24  H   UNL     1      50.640   0.242  17.017  0.00  0.00    +0.000 HD
ENDBRANCH  12  14
ENDBRANCH   9  10
ENDBRANCH   3   9
BRANCH   6  25
ATOM     25  C   UNL     1      46.375   6.392  11.574  0.00  0.00    +0.000 C 
BRANCH  25  26
ATOM     26  N   UNL     1      45.599   5.153  11.620  0.00  0.00    +0.000 NA
ATOM     27  H   UNL     1      45.117   5.090  12.514  0.00  0.00    +0.000 HD
BRANCH  26  28
ATOM     28  C   UNL     1      44.638   5.022  10.532  0.00  0.00    +0.000 C 
BRANCH  28  29
ATOM     29  C   UNL     1      45.142   4.018   9.514  0.00  0.00    +0.000 A 
ATOM     30  C   UNL     1      44.955   2.645   9.694  0.00  0.00    +0.000 A 
ATOM     31  C   UNL     1      45.456   1.774   8.736  0.00  0.00    +0.000 A 
ATOM     32  N   UNL     1      46.121   2.173   7.626  0.00  0.00    +0.000 NA
ATOM     33  C   UNL     1      46.293   3.496   7.470  0.00  0.00    +0.000 A 
ATOM     34  C   UNL     1      45.828   4.438   8.365  0.00  0.00    +0.000 A 
ENDBRANCH  28  29
ENDBRANCH  26  28
ENDBRANCH  25  26
ENDBRANCH   6  25
TORSDOF 8
ENDMDL
MODEL 6
REMARK VINA RESULT:    -6.394      3.276      7.850
REMARK INTER + INTRA:         -10.624
REMARK INTER:                  -8.503
REMARK INTRA:                  -2.121
REMARK UNBOUND:                -1.240
REMARK  Name = 
REMARK  10 active torsions:
REMARK  status: ('A' for Active; 'I' for Inactive)
REMARK    1  A    between atoms: C_1  and  O_2
REMARK    2  A    between atoms: O_2  and  C_3
REMARK    3  A    between atoms: C_5  and  C_6
REMARK    4  A    between atoms: C_6  and  N_7
REMARK    5  A    between atoms: N_7  and  C_8
REMARK    6  A    between atoms: C_9  and  C_11
REMARK    7  A    between atoms: C_23  and  C_24
REMARK    8  A    between atoms: C_24  and  N_25
REMARK    9  A    between atoms: N_25  and  C_26
REMARK   10  A    between atoms: C_26  and  C_27
REMARK                            x       y       z     vdW  Elec       q    Type
REMARK                         _______ _______ _______ _____ _____    ______ ____
ROOT
ATOM      1  C   UNL     1      51.755   6.939  16.429  0.00  0.00    +0.000 A 
ATOM      2  C   UNL     1      51.330   7.562  15.245  0.00  0.00    +0.000 A 
ATOM      3  C   UNL     1      50.240   8.438  15.235  0.00  0.00    +0.000 A 
ATOM      4  C   UNL     1      49.621   8.737  16.456  0.00  0.00    +0.000 A 
ATOM      5  C   UNL     1      50.109   8.202  17.657  0.00  0.00    +0.000 A 
ATOM      6  C   UNL     1      51.196   7.307  17.664  0.00  0.00    +0.000 A 
ENDROOT
BRANCH   1   8
ATOM      7  C   UNL     1      53.993   6.402  15.993  0.00  0.00    +0.000 C 
ATOM      8  O   UNL     1      52.706   5.947  16.423  0.00  0.00    +0.000 OA
ENDBRANCH   1   8
BRANCH   3   9
ATOM      9  C   UNL     1      49.678   8.911  13.907  0.00  0.00    +0.000 C 
BRANCH   9  10
ATOM     10  N   UNL     1      48.765   7.982  13.225  0.00  0.00    +0.000 N 
ATOM     11  C   UNL     1      49.356   7.222  12.132  0.00  0.00    +0.000 C 
ATOM     12  C   UNL     1      47.384   8.114  13.490  0.00  0.00    +0.000 C 
ATOM     13  O   UNL     1      46.986   8.928  14.322  0.00  0.00    +0.000 OA
BRANCH  12  14
ATOM     14  C   UNL     1      46.394   7.242  12.824  0.00  0.00    +0.000 A 
ATOM     15  C   UNL     1      45.571   7.641  11.782  0.00  0.00    +0.000 A 
ATOM     16  S   UNL     1      44.566   6.400  11.179  0.00  0.00    +0.000 S 
ATOM     17  C   UNL     1      45.340   5.233  12.143  0.00  0.00    +0.000 A 
ATOM     18  N   UNL     1      45.056   3.911  11.994  0.00  0.00    +0.000 NA
ATOM     19  C   UNL     1      45.780   3.129  12.723  0.00  0.00    +0.000 A 
ATOM     20  N   UNL     1      46.722   3.556  13.624  0.00  0.00    +0.000 N 
ATOM     21  C   UNL     1      46.932   4.889  13.917  0.00  0.00    +0.000 A 
ATOM     22  O   UNL     1      47.590   5.215  14.899  0.00  0.00    +0.000 OA
ATOM     23  C   UNL     1      46.251   5.805  13.013  0.00  0.00    +0.000 A 
ATOM     24  H   UNL     1      47.208   2.893  14.210  0.00  0.00    +0.000 HD
ENDBRANCH  12  14
ENDBRANCH   9  10
ENDBRANCH   3   9
BRANCH   6  25
ATOM     25  C   UNL     1      51.778   6.835  18.984  0.00  0.00    +0.000 C 
BRANCH  25  26
ATOM     26  N   UNL     1      51.708   5.375  19.047  0.00  0.00    +0.000 NA
ATOM     27  H   UNL     1      52.316   5.040  19.790  0.00  0.00    +0.000 HD
BRANCH  26  28
ATOM     28  C   UNL     1      50.359   4.860  19.245  0.00  0.00    +0.000 C 
BRANCH  28  29
ATOM     29  C   UNL     1      50.063   3.776  18.229  0.00  0.00    +0.000 A 
ATOM     30  C   UNL     1      51.068   2.927  17.758  0.00  0.00    +0.000 A 
ATOM     31  C   UNL     1      50.739   1.965  16.813  0.00  0.00    +0.000 A 
ATOM     32  N   UNL     1      49.493   1.794  16.312  0.00  0.00    +0.000 NA
ATOM     33  C   UNL     1      48.539   2.619  16.774  0.00  0.00    +0.000 A 
ATOM     34  C   UNL     1      48.769   3.602  17.716  0.00  0.00    +0.000 A 
ENDBRANCH  28  29
ENDBRANCH  26  28
ENDBRANCH  25  26
ENDBRANCH   6  25
TORSDOF 8
ENDMDL
MODEL 7
REMARK VINA RESULT:    -6.219      3.368      8.045
REMARK INTER + INTRA:         -10.368
REMARK INTER:                  -9.863
REMARK INTRA:                  -0.504
REMARK UNBOUND:                -1.240
REMARK  Name = 
REMARK  10 active torsions:
REMARK  status: ('A' for Active; 'I' for Inactive)
REMARK    1  A    between atoms: C_1  and  O_2
REMARK    2  A    between atoms: O_2  and  C_3
REMARK    3  A    between atoms: C_5  and  C_6
REMARK    4  A    between atoms: C_6  and  N_7
REMARK    5  A    between atoms: N_7  and  C_8
REMARK    6  A    between atoms: C_9  and  C_11
REMARK    7  A    between atoms: C_23  and  C_24
REMARK    8  A    between atoms: C_24  and  N_25
REMARK    9  A    between atoms: N_25  and  C_26
REMARK   10  A    between atoms: C_26  and  C_27
REMARK                            x       y       z     vdW  Elec       q    Type
REMARK                         _______ _______ _______ _____ _____    ______ ____
ROOT
ATOM      1  C   UNL     1      49.058   7.840  17.722  0.00  0.00    +0.000 A 
ATOM      2  C   UNL     1      48.776   8.005  16.357  0.00  0.00    +0.000 A 
ATOM      3  C   UNL     1      49.637   7.510  15.371  0.00  0.00    +0.000 A 
ATOM      4  C   UNL     1      50.760   6.778  15.781  0.00  0.00    +0.000 A 
ATOM      5  C   UNL     1      50.988   6.518  17.141  0.00  0.00    +0.000 A 
ATOM      6  C   UNL     1      50.130   7.031  18.132  0.00  0.00    +0.000 A 
ENDROOT
BRANCH   1   8
ATOM      7  C   UNL     1      47.885   9.779  18.315  0.00  0.00    +0.000 C 
ATOM      8  O   UNL     1      48.317   8.469  18.693  0.00  0.00    +0.000 OA
ENDBRANCH   1   8
BRANCH   3   9
ATOM      9  C   UNL     1      49.414   7.902  13.922  0.00  0.00    +0.000 C 
BRANCH   9  10
ATOM     10  N   UNL     1      48.037   7.775  13.424  0.00  0.00    +0.000 N 
ATOM     11  C   UNL     1      47.145   8.872  13.776  0.00  0.00    +0.000 C 
ATOM     12  C   UNL     1      47.642   6.518  12.917  0.00  0.00    +0.000 C 
ATOM     13  O   UNL     1      48.455   5.599  12.830  0.00  0.00    +0.000 OA
BRANCH  12  14
ATOM     14  C   UNL     1      46.266   6.292  12.424  0.00  0.00    +0.000 A 
ATOM     15  C   UNL     1      45.527   7.220  11.707  0.00  0.00    +0.000 A 
ATOM     16  S   UNL     1      43.989   6.658  11.228  0.00  0.00    +0.000 S 
ATOM     17  C   UNL     1      44.334   5.087  11.775  0.00  0.00    +0.000 A 
ATOM     18  N   UNL     1      43.477   4.060  11.524  0.00  0.00    +0.000 NA
ATOM     19  C   UNL     1      43.905   2.907  11.915  0.00  0.00    +0.000 A 
ATOM     20  N   UNL     1      45.085   2.699  12.581  0.00  0.00    +0.000 N 
ATOM     21  C   UNL     1      45.908   3.729  12.992  0.00  0.00    +0.000 A 
ATOM     22  O   UNL     1      46.810   3.524  13.798  0.00  0.00    +0.000 OA
ATOM     23  C   UNL     1      45.545   5.027  12.441  0.00  0.00    +0.000 A 
ATOM     24  H   UNL     1      45.329   1.778  12.917  0.00  0.00    +0.000 HD
ENDBRANCH  12  14
ENDBRANCH   9  10
ENDBRANCH   3   9
BRANCH   6  25
ATOM     25  C   UNL     1      50.331   6.637  19.584  0.00  0.00    +0.000 C 
BRANCH  25  26
ATOM     26  N   UNL     1      50.288   5.180  19.700  0.00  0.00    +0.000 NA
ATOM     27  H   UNL     1      50.522   4.910  20.652  0.00  0.00    +0.000 HD
BRANCH  26  28
ATOM     28  C   UNL     1      49.005   4.599  19.323  0.00  0.00    +0.000 C 
BRANCH  28  29
ATOM     29  C   UNL     1      49.201   3.583  18.216  0.00  0.00    +0.000 A 
ATOM     30  C   UNL     1      48.141   3.185  17.399  0.00  0.00    +0.000 A 
ATOM     31  C   UNL     1      48.378   2.236  16.413  0.00  0.00    +0.000 A 
ATOM     32  N   UNL     1      49.585   1.665  16.191  0.00  0.00    +0.000 NA
ATOM     33  C   UNL     1      50.594   2.058  16.987  0.00  0.00    +0.000 A 
ATOM     34  C   UNL     1      50.455   2.996  17.989  0.00  0.00    +0.000 A 
ENDBRANCH  28  29
ENDBRANCH  26  28
ENDBRANCH  25  26
ENDBRANCH   6  25
TORSDOF 8
ENDMDL
MODEL 8
REMARK VINA RESULT:    -6.061      3.265      4.097
REMARK INTER + INTRA:         -10.135
REMARK INTER:                  -8.722
REMARK INTRA:                  -1.413
REMARK UNBOUND:                -1.240
REMARK  Name = 
REMARK  10 active torsions:
REMARK  status: ('A' for Active; 'I' for Inactive)
REMARK    1  A    between atoms: C_1  and  O_2
REMARK    2  A    between atoms: O_2  and  C_3
REMARK    3  A    between atoms: C_5  and  C_6
REMARK    4  A    between atoms: C_6  and  N_7
REMARK    5  A    between atoms: N_7  and  C_8
REMARK    6  A    between atoms: C_9  and  C_11
REMARK    7  A    between atoms: C_23  and  C_24
REMARK    8  A    between atoms: C_24  and  N_25
REMARK    9  A    between atoms: N_25  and  C_26
REMARK   10  A    between atoms: C_26  and  C_27
REMARK                            x       y       z     vdW  Elec       q    Type
REMARK                         _______ _______ _______ _____ _____    ______ ____
ROOT
ATOM      1  C   UNL     1      47.458   5.866  13.743  0.00  0.00    +0.000 A 
ATOM      2  C   UNL     1      48.220   6.958  14.186  0.00  0.00    +0.000 A 
ATOM      3  C   UNL     1      48.424   8.079  13.374  0.00  0.00    +0.000 A 
ATOM      4  C   UNL     1      47.787   8.117  12.127  0.00  0.00    +0.000 A 
ATOM      5  C   UNL     1      46.937   7.076  11.725  0.00  0.00    +0.000 A 
ATOM      6  C   UNL     1      46.746   5.941  12.535  0.00  0.00    +0.000 A 
ENDROOT
BRANCH   1   8
ATOM      7  C   UNL     1      47.723   4.854  15.839  0.00  0.00    +0.000 C 
ATOM      8  O   UNL     1      47.395   4.693  14.456  0.00  0.00    +0.000 OA
ENDBRANCH   1   8
BRANCH   3   9
ATOM      9  C   UNL     1      49.432   9.132  13.798  0.00  0.00    +0.000 C 
BRANCH   9  10
ATOM     10  N   UNL     1      50.783   8.996  13.234  0.00  0.00    +0.000 N 
ATOM     11  C   UNL     1      51.716   8.220  14.040  0.00  0.00    +0.000 C 
ATOM     12  C   UNL     1      51.123   9.836  12.151  0.00  0.00    +0.000 C 
ATOM     13  O   UNL     1      50.283  10.589  11.661  0.00  0.00    +0.000 OA
BRANCH  12  14
ATOM     14  C   UNL     1      52.470   9.788  11.543  0.00  0.00    +0.000 A 
ATOM     15  C   UNL     1      53.462  10.732  11.758  0.00  0.00    +0.000 A 
ATOM     16  S   UNL     1      54.932  10.384  10.964  0.00  0.00    +0.000 S 
ATOM     17  C   UNL     1      54.368   8.856  10.477  0.00  0.00    +0.000 A 
ATOM     18  N   UNL     1      55.204   7.967   9.876  0.00  0.00    +0.000 NA
ATOM     19  C   UNL     1      54.670   6.815   9.641  0.00  0.00    +0.000 A 
ATOM     20  N   UNL     1      53.363   6.494   9.905  0.00  0.00    +0.000 N 
ATOM     21  C   UNL     1      52.443   7.412  10.369  0.00  0.00    +0.000 A 
ATOM     22  O   UNL     1      51.243   7.159  10.348  0.00  0.00    +0.000 OA
ATOM     23  C   UNL     1      53.033   8.675  10.791  0.00  0.00    +0.000 A 
ATOM     24  H   UNL     1      52.992   5.594   9.637  0.00  0.00    +0.000 HD
ENDBRANCH  12  14
ENDBRANCH   9  10
ENDBRANCH   3   9
BRANCH   6  25
ATOM     25  C   UNL     1      45.732   4.885  12.132  0.00  0.00    +0.000 C 
BRANCH  25  26
ATOM     26  N   UNL     1      44.855   5.430  11.095  0.00  0.00    +0.000 NA
ATOM     27  H   UNL     1      45.412   5.951  10.422  0.00  0.00    +0.000 HD
BRANCH  26  28
ATOM     28  C   UNL     1      44.066   4.418  10.404  0.00  0.00    +0.000 C 
BRANCH  28  29
ATOM     29  C   UNL     1      44.928   3.691   9.391  0.00  0.00    +0.000 A 
ATOM     30  C   UNL     1      45.649   4.386   8.418  0.00  0.00    +0.000 A 
ATOM     31  C   UNL     1      46.406   3.663   7.506  0.00  0.00    +0.000 A 
ATOM     32  N   UNL     1      46.491   2.312   7.499  0.00  0.00    +0.000 NA
ATOM     33  C   UNL     1      45.791   1.659   8.440  0.00  0.00    +0.000 A 
ATOM     34  C   UNL     1      45.014   2.290   9.391  0.00  0.00    +0.000 A 
ENDBRANCH  28  29
ENDBRANCH  26  28
ENDBRANCH  25  26
ENDBRANCH   6  25
TORSDOF 8
ENDMDL
MODEL 9
REMARK VINA RESULT:    -5.918      2.937      8.747
REMARK INTER + INTRA:          -9.925
REMARK INTER:                  -8.547
REMARK INTRA:                  -1.378
REMARK UNBOUND:                -1.240
REMARK  Name = 
REMARK  10 active torsions:
REMARK  status: ('A' for Active; 'I' for Inactive)
REMARK    1  A    between atoms: C_1  and  O_2
REMARK    2  A    between atoms: O_2  and  C_3
REMARK    3  A    between atoms: C_5  and  C_6
REMARK    4  A    between atoms: C_6  and  N_7
REMARK    5  A    between atoms: N_7  and  C_8
REMARK    6  A    between atoms: C_9  and  C_11
REMARK    7  A    between atoms: C_23  and  C_24
REMARK    8  A    between atoms: C_24  and  N_25
REMARK    9  A    between atoms: N_25  and  C_26
REMARK   10  A    between atoms: C_26  and  C_27
REMARK                            x       y       z     vdW  Elec       q    Type
REMARK                         _______ _______ _______ _____ _____    ______ ____
ROOT
ATOM      1  C   UNL     1      50.388   8.597  14.297  0.00  0.00    +0.000 A 
ATOM      2  C   UNL     1      49.381   8.523  13.322  0.00  0.00    +0.000 A 
ATOM      3  C   UNL     1      48.028   8.626  13.663  0.00  0.00    +0.000 A 
ATOM      4  C   UNL     1      47.702   8.877  15.003  0.00  0.00    +0.000 A 
ATOM      5  C   UNL     1      48.708   9.059  15.963  0.00  0.00    +0.000 A 
ATOM      6  C   UNL     1      50.068   8.939  15.621  0.00  0.00    +0.000 A 
ENDROOT
BRANCH   1   8
ATOM      7  C   UNL     1      52.035   8.573  12.632  0.00  0.00    +0.000 C 
ATOM      8  O   UNL     1      51.702   8.325  14.001  0.00  0.00    +0.000 OA
ENDBRANCH   1   8
BRANCH   3   9
ATOM      9  C   UNL     1      46.971   8.317  12.619  0.00  0.00    +0.000 C 
BRANCH   9  10
ATOM     10  N   UNL     1      46.529   6.917  12.542  0.00  0.00    +0.000 N 
ATOM     11  C   UNL     1      47.504   5.933  12.994  0.00  0.00    +0.000 C 
ATOM     12  C   UNL     1      45.360   6.643  11.800  0.00  0.00    +0.000 C 
ATOM     13  O   UNL     1      44.706   7.562  11.309  0.00  0.00    +0.000 OA
BRANCH  12  14
ATOM     14  C   UNL     1      44.862   5.260  11.644  0.00  0.00    +0.000 A 
ATOM     15  C   UNL     1      44.103   4.588  12.589  0.00  0.00    +0.000 A 
ATOM     16  S   UNL     1      43.629   3.020  12.109  0.00  0.00    +0.000 S 
ATOM     17  C   UNL     1      44.240   3.259  10.541  0.00  0.00    +0.000 A 
ATOM     18  N   UNL     1      44.019   2.339   9.563  0.00  0.00    +0.000 NA
ATOM     19  C   UNL     1      44.459   2.688   8.400  0.00  0.00    +0.000 A 
ATOM     20  N   UNL     1      45.145   3.848   8.143  0.00  0.00    +0.000 N 
ATOM     21  C   UNL     1      45.524   4.732   9.133  0.00  0.00    +0.000 A 
ATOM     22  O   UNL     1      46.347   5.612   8.903  0.00  0.00    +0.000 OA
ATOM     23  C   UNL     1      44.920   4.458  10.430  0.00  0.00    +0.000 A 
ATOM     24  H   UNL     1      45.518   4.029   7.223  0.00  0.00    +0.000 HD
ENDBRANCH  12  14
ENDBRANCH   9  10
ENDBRANCH   3   9
BRANCH   6  25
ATOM     25  C   UNL     1      51.138   9.257  16.650  0.00  0.00    +0.000 C 
BRANCH  25  26
ATOM     26  N   UNL     1      51.851   8.029  16.999  0.00  0.00    +0.000 NA
ATOM     27  H   UNL     1      52.837   8.238  17.135  0.00  0.00    +0.000 HD
BRANCH  26  28
ATOM     28  C   UNL     1      51.323   7.359  18.182  0.00  0.00    +0.000 C 
BRANCH  28  29
ATOM     29  C   UNL     1      50.786   5.992  17.807  0.00  0.00    +0.000 A 
ATOM     30  C   UNL     1      49.447   5.809  17.456  0.00  0.00    +0.000 A 
ATOM     31  C   UNL     1      49.010   4.529  17.141  0.00  0.00    +0.000 A 
ATOM     32  N   UNL     1      49.807   3.435  17.151  0.00  0.00    +0.000 NA
ATOM     33  C   UNL     1      51.092   3.629  17.492  0.00  0.00    +0.000 A 
ATOM     34  C   UNL     1      51.619   4.863  17.817  0.00  0.00    +0.000 A 
ENDBRANCH  28  29
ENDBRANCH  26  28
ENDBRANCH  25  26
ENDBRANCH   6  25
TORSDOF 8
ENDMDL
