MODEL 1
REMARK VINA RESULT:    -8.389      0.000      0.000
REMARK INTER + INTRA:         -11.714
REMARK INTER:                 -11.086
REMARK INTRA:                  -0.628
REMARK UNBOUND:                -0.628
REMARK  Name = 
REMARK  6 active torsions:
REMARK  status: ('A' for Active; 'I' for Inactive)
REMARK    1  A    between atoms: C_2  and  C_4
REMARK    2  A    between atoms: C_7  and  N_8
REMARK    3  A    between atoms: N_8  and  C_9
REMARK    4  A    between atoms: C_9  and  C_10
REMARK    5  A    between atoms: C_14  and  N_15
REMARK    6  A    between atoms: C_18  and  O_19
REMARK                            x       y       z     vdW  Elec       q    Type
REMARK                         _______ _______ _______ _____ _____    ______ ____
ROOT
ATOM      1  C   UNL     1      43.564   4.450  11.217  0.00  0.00    +0.000 C 
ENDROOT
BRANCH   1   2
ATOM      2  C   UNL     1      44.818   4.566  12.053  0.00  0.00    +0.000 A 
ATOM      3  C   UNL     1      45.289   3.451  12.728  0.00  0.00    +0.000 A 
ATOM      4  N   UNL     1      46.402   3.468  13.479  0.00  0.00    +0.000 NA
ATOM      5  C   UNL     1      47.030   4.669  13.524  0.00  0.00    +0.000 A 
ATOM      6  C   UNL     1      46.597   5.832  12.873  0.00  0.00    +0.000 A 
ATOM      7  N   UNL     1      45.466   5.769  12.125  0.00  0.00    +0.000 NA
BRANCH   6   8
ATOM      8  N   UNL     1      47.304   7.016  12.949  0.00  0.00    +0.000 N 
ATOM      9  C   UNL     1      48.755   7.069  12.819  0.00  0.00    +0.000 C 
ATOM     10  C   UNL     1      49.119   8.029  11.692  0.00  0.00    +0.000 C 
ATOM     11  C   UNL     1      48.452   9.393  11.875  0.00  0.00    +0.000 C 
ATOM     12  C   UNL     1      46.950   9.279  12.143  0.00  0.00    +0.000 C 
ATOM     13  C   UNL     1      46.627   8.271  13.253  0.00  0.00    +0.000 C 
BRANCH  11  14
ATOM     14  O   UNL     1      49.095  10.120  12.922  0.00  0.00    +0.000 OA
ATOM     15  H   UNL     1      49.444   9.494  13.577  0.00  0.00    +0.000 HD
ENDBRANCH  11  14
ENDBRANCH   6   8
ENDBRANCH   1   2
BRANCH   1  16
ATOM     16  N   UNL     1      43.783   4.782   9.807  0.00  0.00    +0.000 N 
ATOM     17  H   UNL     1      42.907   4.829   9.293  0.00  0.00    +0.000 HD
BRANCH  16  21
ATOM     18  C   UNL     1      46.499   2.535   7.681  0.00  0.00    +0.000 A 
ATOM     19  C   UNL     1      46.495   3.919   7.588  0.00  0.00    +0.000 A 
ATOM     20  N   UNL     1      45.629   4.701   8.291  0.00  0.00    +0.000 NA
ATOM     21  C   UNL     1      44.766   4.069   9.115  0.00  0.00    +0.000 A 
ATOM     22  C   UNL     1      44.795   2.669   9.199  0.00  0.00    +0.000 A 
ATOM     23  N   UNL     1      45.645   1.866   8.500  0.00  0.00    +0.000 NA
BRANCH  18  25
ATOM     24  N   UNL     1      48.549   2.379   6.388  0.00  0.00    +0.000 N 
ATOM     25  C   UNL     1      47.430   1.730   6.841  0.00  0.00    +0.000 C 
ATOM     26  O   UNL     1      47.226   0.551   6.585  0.00  0.00    +0.000 OA
ATOM     27  H   UNL     1      49.248   1.850   5.884  0.00  0.00    +0.000 HD
ATOM     28  H   UNL     1      48.762   3.313   6.716  0.00  0.00    +0.000 HD
ENDBRANCH  18  25
ENDBRANCH  16  21
ENDBRANCH   1  16
TORSDOF 6
ENDMDL
MODEL 2
REMARK VINA RESULT:    -8.261      2.172      3.188
REMARK INTER + INTRA:         -11.545
REMARK INTER:                 -10.858
REMARK INTRA:                  -0.687
REMARK UNBOUND:                -0.628
REMARK  Name = 
REMARK  6 active torsions:
REMARK  status: ('A' for Active; 'I' for Inactive)
REMARK    1  A    between atoms: C_2  and  C_4
REMARK    2  A    between atoms: C_7  and  N_8
REMARK    3  A    between atoms: N_8  and  C_9
REMARK    4  A    between atoms: C_9  and  C_10
REMARK    5  A    between atoms: C_14  and  N_15
REMARK    6  A    between atoms: C_18  and  O_19
REMARK                            x       y       z     vdW  Elec       q    Type
REMARK                         _______ _______ _______ _____ _____    ______ ____
ROOT
ATOM      1  C   UNL     1      43.648   4.960  11.131  0.00  0.00    +0.000 C 
ENDROOT
BRANCH   1   2
ATOM      2  C   UNL     1      44.702   5.834  11.772  0.00  0.00    +0.000 A 
ATOM      3  C   UNL     1      44.754   7.181  11.450  0.00  0.00    +0.000 A 
ATOM      4  N   UNL     1      45.649   8.026  11.986  0.00  0.00    +0.000 NA
ATOM      5  C   UNL     1      46.502   7.452  12.870  0.00  0.00    +0.000 A 
ATOM      6  C   UNL     1      46.505   6.097  13.227  0.00  0.00    +0.000 A 
ATOM      7  N   UNL     1      45.582   5.279  12.661  0.00  0.00    +0.000 NA
BRANCH   6   8
ATOM      8  N   UNL     1      47.394   5.590  14.155  0.00  0.00    +0.000 N 
ATOM      9  C   UNL     1      48.595   6.309  14.560  0.00  0.00    +0.000 C 
ATOM     10  C   UNL     1      48.584   6.482  16.075  0.00  0.00    +0.000 C 
ATOM     11  C   UNL     1      48.376   5.148  16.793  0.00  0.00    +0.000 C 
ATOM     12  C   UNL     1      47.182   4.366  16.241  0.00  0.00    +0.000 C 
ATOM     13  C   UNL     1      47.209   4.255  14.712  0.00  0.00    +0.000 C 
BRANCH  11  14
ATOM     14  O   UNL     1      49.565   4.360  16.727  0.00  0.00    +0.000 OA
ATOM     15  H   UNL     1      49.711   3.931  17.586  0.00  0.00    +0.000 HD
ENDBRANCH  11  14
ENDBRANCH   6   8
ENDBRANCH   1   2
BRANCH   1  16
ATOM     16  N   UNL     1      43.762   4.903   9.671  0.00  0.00    +0.000 N 
ATOM     17  H   UNL     1      42.850   4.846   9.226  0.00  0.00    +0.000 HD
BRANCH  16  21
ATOM     18  C   UNL     1      46.264   2.088   8.011  0.00  0.00    +0.000 A 
ATOM     19  C   UNL     1      46.333   3.416   7.620  0.00  0.00    +0.000 A 
ATOM     20  N   UNL     1      45.540   4.384   8.161  0.00  0.00    +0.000 NA
ATOM     21  C   UNL     1      44.676   3.998   9.124  0.00  0.00    +0.000 A 
ATOM     22  C   UNL     1      44.631   2.650   9.507  0.00  0.00    +0.000 A 
ATOM     23  N   UNL     1      45.406   1.664   8.977  0.00  0.00    +0.000 NA
BRANCH  18  25
ATOM     24  N   UNL     1      46.844  -0.243   7.651  0.00  0.00    +0.000 N 
ATOM     25  C   UNL     1      47.115   1.064   7.340  0.00  0.00    +0.000 C 
ATOM     26  O   UNL     1      47.990   1.363   6.538  0.00  0.00    +0.000 OA
ATOM     27  H   UNL     1      47.340  -0.974   7.159  0.00  0.00    +0.000 HD
ATOM     28  H   UNL     1      46.036  -0.474   8.216  0.00  0.00    +0.000 HD
ENDBRANCH  18  25
ENDBRANCH  16  21
ENDBRANCH   1  16
TORSDOF 6
ENDMDL
MODEL 3
REMARK VINA RESULT:    -7.968      2.823      4.082
REMARK INTER + INTRA:         -11.158
REMARK INTER:                 -10.606
REMARK INTRA:                  -0.551
REMARK UNBOUND:                -0.628
REMARK  Name = 
REMARK  6 active torsions:
REMARK  status: ('A' for Active; 'I' for Inactive)
REMARK    1  A    between atoms: C_2  and  C_4
REMARK    2  A    between atoms: C_7  and  N_8
REMARK    3  A    between atoms: N_8  and  C_9
REMARK    4  A    between atoms: C_9  and  C_10
REMARK    5  A    between atoms: C_14  and  N_15
REMARK    6  A    between atoms: C_18  and  O_19
REMARK                            x       y       z     vdW  Elec       q    Type
REMARK                         _______ _______ _______ _____ _____    ______ ____
ROOT
ATOM      1  C   UNL     1      44.697   3.326  12.089  0.00  0.00    +0.000 C 
ENDROOT
BRANCH   1   2
ATOM      2  C   UNL     1      45.629   4.293  12.783  0.00  0.00    +0.000 A 
ATOM      3  C   UNL     1      45.795   5.566  12.261  0.00  0.00    +0.000 A 
ATOM      4  N   UNL     1      46.592   6.489  12.826  0.00  0.00    +0.000 NA
ATOM      5  C   UNL     1      47.223   6.071  13.951  0.00  0.00    +0.000 A 
ATOM      6  C   UNL     1      47.102   4.796  14.519  0.00  0.00    +0.000 A 
ATOM      7  N   UNL     1      46.287   3.895  13.915  0.00  0.00    +0.000 NA
BRANCH   6   8
ATOM      8  N   UNL     1      47.763   4.451  15.682  0.00  0.00    +0.000 N 
ATOM      9  C   UNL     1      48.442   5.435  16.515  0.00  0.00    +0.000 C 
ATOM     10  C   UNL     1      47.885   5.356  17.932  0.00  0.00    +0.000 C 
ATOM     11  C   UNL     1      47.932   3.928  18.478  0.00  0.00    +0.000 C 
ATOM     12  C   UNL     1      47.328   2.911  17.508  0.00  0.00    +0.000 C 
ATOM     13  C   UNL     1      47.883   3.055  16.085  0.00  0.00    +0.000 C 
BRANCH  11  14
ATOM     14  O   UNL     1      49.274   3.570  18.810  0.00  0.00    +0.000 OA
ATOM     15  H   UNL     1      49.636   3.005  18.107  0.00  0.00    +0.000 HD
ENDBRANCH  11  14
ENDBRANCH   6   8
ENDBRANCH   1   2
BRANCH   1  16
ATOM     16  N   UNL     1      44.227   3.815  10.790  0.00  0.00    +0.000 N 
ATOM     17  H   UNL     1      43.220   3.714  10.695  0.00  0.00    +0.000 HD
BRANCH  16  21
ATOM     18  C   UNL     1      46.419   2.743   7.475  0.00  0.00    +0.000 A 
ATOM     19  C   UNL     1      45.962   1.782   8.364  0.00  0.00    +0.000 A 
ATOM     20  N   UNL     1      45.213   2.091   9.461  0.00  0.00    +0.000 NA
ATOM     21  C   UNL     1      44.913   3.394   9.648  0.00  0.00    +0.000 A 
ATOM     22  C   UNL     1      45.380   4.346   8.730  0.00  0.00    +0.000 A 
ATOM     23  N   UNL     1      46.135   4.063   7.633  0.00  0.00    +0.000 NA
BRANCH  18  25
ATOM     24  N   UNL     1      47.302   3.212   5.262  0.00  0.00    +0.000 N 
ATOM     25  C   UNL     1      47.285   2.350   6.327  0.00  0.00    +0.000 C 
ATOM     26  O   UNL     1      47.963   1.331   6.337  0.00  0.00    +0.000 OA
ATOM     27  H   UNL     1      47.936   3.029   4.497  0.00  0.00    +0.000 HD
ATOM     28  H   UNL     1      46.835   4.109   5.327  0.00  0.00    +0.000 HD
ENDBRANCH  18  25
ENDBRANCH  16  21
ENDBRANCH   1  16
TORSDOF 6
ENDMDL
MODEL 4
REMARK VINA RESULT:    -7.505      1.587      2.373
REMARK INTER + INTRA:         -10.546
REMARK INTER:                  -9.906
REMARK INTRA:                  -0.640
REMARK UNBOUND:                -0.628
REMARK  Name = 
REMARK  6 active torsions:
REMARK  status: ('A' for Active; 'I' for Inactive)
REMARK    1  A    between atoms: C_2  and  C_4
REMARK    2  A    between atoms: C_7  and  N_8
REMARK    3  A    between atoms: N_8  and  C_9
REMARK    4  A    between atoms: C_9  and  C_10
REMARK    5  A    between atoms: C_14  and  N_15
REMARK    6  A    between atoms: C_18  and  O_19
REMARK                            x       y       z     vdW  Elec       q    Type
REMARK                         _______ _______ _______ _____ _____    ______ ____
ROOT
ATOM      1  C   UNL     1      44.397   3.977  11.762  0.00  0.00    +0.000 C 
ENDROOT
BRANCH   1   2
ATOM      2  C   UNL     1      45.039   5.334  11.945  0.00  0.00    +0.000 A 
ATOM      3  C   UNL     1      44.343   6.470  11.565  0.00  0.00    +0.000 A 
ATOM      4  N   UNL     1      44.836   7.711  11.708  0.00  0.00    +0.000 NA
ATOM      5  C   UNL     1      46.076   7.761  12.255  0.00  0.00    +0.000 A 
ATOM      6  C   UNL     1      46.832   6.649  12.648  0.00  0.00    +0.000 A 
ATOM      7  N   UNL     1      46.294   5.414  12.485  0.00  0.00    +0.000 NA
BRANCH   6   8
ATOM      8  N   UNL     1      48.082   6.782  13.218  0.00  0.00    +0.000 N 
ATOM      9  C   UNL     1      49.270   7.095  12.433  0.00  0.00    +0.000 C 
ATOM     10  C   UNL     1      49.923   8.351  12.998  0.00  0.00    +0.000 C 
ATOM     11  C   UNL     1      50.176   8.228  14.502  0.00  0.00    +0.000 C 
ATOM     12  C   UNL     1      48.936   7.766  15.268  0.00  0.00    +0.000 C 
ATOM     13  C   UNL     1      48.284   6.528  14.640  0.00  0.00    +0.000 C 
BRANCH  11  14
ATOM     14  O   UNL     1      51.274   7.348  14.748  0.00  0.00    +0.000 OA
ATOM     15  H   UNL     1      51.238   6.610  14.118  0.00  0.00    +0.000 HD
ENDBRANCH  11  14
ENDBRANCH   6   8
ENDBRANCH   1   2
BRANCH   1  16
ATOM     16  N   UNL     1      43.812   3.796  10.431  0.00  0.00    +0.000 N 
ATOM     17  H   UNL     1      42.947   3.263  10.472  0.00  0.00    +0.000 HD
BRANCH  16  21
ATOM     18  C   UNL     1      46.444   2.703   7.461  0.00  0.00    +0.000 A 
ATOM     19  C   UNL     1      45.954   1.763   8.354  0.00  0.00    +0.000 A 
ATOM     20  N   UNL     1      45.063   2.077   9.338  0.00  0.00    +0.000 NA
ATOM     21  C   UNL     1      44.653   3.363   9.403  0.00  0.00    +0.000 A 
ATOM     22  C   UNL     1      45.157   4.292   8.481  0.00  0.00    +0.000 A 
ATOM     23  N   UNL     1      46.053   4.004   7.497  0.00  0.00    +0.000 NA
BRANCH  18  25
ATOM     24  N   UNL     1      47.441   3.012   5.268  0.00  0.00    +0.000 N 
ATOM     25  C   UNL     1      47.462   2.311   6.445  0.00  0.00    +0.000 C 
ATOM     26  O   UNL     1      48.288   1.431   6.652  0.00  0.00    +0.000 OA
ATOM     27  H   UNL     1      48.164   2.838   4.584  0.00  0.00    +0.000 HD
ATOM     28  H   UNL     1      46.834   3.818   5.167  0.00  0.00    +0.000 HD
ENDBRANCH  18  25
ENDBRANCH  16  21
ENDBRANCH   1  16
TORSDOF 6
ENDMDL
MODEL 5
REMARK VINA RESULT:    -7.069      2.958      7.548
REMARK INTER + INTRA:          -9.969
REMARK INTER:                  -9.430
REMARK INTRA:                  -0.539
REMARK UNBOUND:                -0.628
REMARK  Name = 
REMARK  6 active torsions:
REMARK  status: ('A' for Active; 'I' for Inactive)
REMARK    1  A    between atoms: C_2  and  C_4
REMARK    2  A    between atoms: C_7  and  N_8
REMARK    3  A    between atoms: N_8  and  C_9
REMARK    4  A    between atoms: C_9  and  C_10
REMARK    5  A    between atoms: C_14  and  N_15
REMARK    6  A    between atoms: C_18  and  O_19
REMARK                            x       y       z     vdW  Elec       q    Type
REMARK                         _______ _______ _______ _____ _____    ______ ____
ROOT
ATOM      1  C   UNL     1      45.493   5.942  13.049  0.00  0.00    +0.000 C 
ENDROOT
BRANCH   1   2
ATOM      2  C   UNL     1      44.891   4.772  12.305  0.00  0.00    +0.000 A 
ATOM      3  C   UNL     1      43.932   3.991  12.930  0.00  0.00    +0.000 A 
ATOM      4  N   UNL     1      43.339   2.944  12.333  0.00  0.00    +0.000 NA
ATOM      5  C   UNL     1      43.757   2.712  11.064  0.00  0.00    +0.000 A 
ATOM      6  C   UNL     1      44.728   3.459  10.384  0.00  0.00    +0.000 A 
ATOM      7  N   UNL     1      45.302   4.508  11.026  0.00  0.00    +0.000 NA
BRANCH   6   8
ATOM      8  N   UNL     1      45.087   3.173   9.081  0.00  0.00    +0.000 N 
ATOM      9  C   UNL     1      45.353   4.216   8.098  0.00  0.00    +0.000 C 
ATOM     10  C   UNL     1      46.751   4.013   7.524  0.00  0.00    +0.000 C 
ATOM     11  C   UNL     1      46.944   2.588   7.000  0.00  0.00    +0.000 C 
ATOM     12  C   UNL     1      46.523   1.528   8.020  0.00  0.00    +0.000 C 
ATOM     13  C   UNL     1      45.131   1.796   8.605  0.00  0.00    +0.000 C 
BRANCH  11  14
ATOM     14  O   UNL     1      46.236   2.413   5.773  0.00  0.00    +0.000 OA
ATOM     15  H   UNL     1      46.875   2.324   5.047  0.00  0.00    +0.000 HD
ENDBRANCH  11  14
ENDBRANCH   6   8
ENDBRANCH   1   2
BRANCH   1  16
ATOM     16  N   UNL     1      46.947   5.842  13.192  0.00  0.00    +0.000 N 
ATOM     17  H   UNL     1      47.379   5.447  12.360  0.00  0.00    +0.000 HD
BRANCH  16  21
ATOM     18  C   UNL     1      48.357   4.387  16.775  0.00  0.00    +0.000 A 
ATOM     19  C   UNL     1      47.534   3.614  15.971  0.00  0.00    +0.000 A 
ATOM     20  N   UNL     1      47.064   4.047  14.767  0.00  0.00    +0.000 NA
ATOM     21  C   UNL     1      47.450   5.279  14.368  0.00  0.00    +0.000 A 
ATOM     22  C   UNL     1      48.290   6.038  15.196  0.00  0.00    +0.000 A 
ATOM     23  N   UNL     1      48.765   5.630  16.405  0.00  0.00    +0.000 NA
BRANCH  18  25
ATOM     24  N   UNL     1      49.690   2.849  18.100  0.00  0.00    +0.000 N 
ATOM     25  C   UNL     1      48.790   3.882  18.109  0.00  0.00    +0.000 C 
ATOM     26  O   UNL     1      48.388   4.372  19.156  0.00  0.00    +0.000 OA
ATOM     27  H   UNL     1      50.074   2.530  18.979  0.00  0.00    +0.000 HD
ATOM     28  H   UNL     1      50.106   2.545  17.227  0.00  0.00    +0.000 HD
ENDBRANCH  18  25
ENDBRANCH  16  21
ENDBRANCH   1  16
TORSDOF 6
ENDMDL
MODEL 6
REMARK VINA RESULT:    -6.852      3.871      6.038
REMARK INTER + INTRA:          -9.683
REMARK INTER:                  -9.016
REMARK INTRA:                  -0.667
REMARK UNBOUND:                -0.628
REMARK  Name = 
REMARK  6 active torsions:
REMARK  status: ('A' for Active; 'I' for Inactive)
REMARK    1  A    between atoms: C_2  and  C_4
REMARK    2  A    between atoms: C_7  and  N_8
REMARK    3  A    between atoms: N_8  and  C_9
REMARK    4  A    between atoms: C_9  and  C_10
REMARK    5  A    between atoms: C_14  and  N_15
REMARK    6  A    between atoms: C_18  and  O_19
REMARK                            x       y       z     vdW  Elec       q    Type
REMARK                         _______ _______ _______ _____ _____    ______ ____
ROOT
ATOM      1  C   UNL     1      47.985   7.647  12.978  0.00  0.00    +0.000 C 
ENDROOT
BRANCH   1   2
ATOM      2  C   UNL     1      49.002   7.369  14.062  0.00  0.00    +0.000 A 
ATOM      3  C   UNL     1      50.241   7.988  14.004  0.00  0.00    +0.000 A 
ATOM      4  N   UNL     1      51.193   7.805  14.934  0.00  0.00    +0.000 NA
ATOM      5  C   UNL     1      50.842   6.961  15.936  0.00  0.00    +0.000 A 
ATOM      6  C   UNL     1      49.612   6.299  16.042  0.00  0.00    +0.000 A 
ATOM      7  N   UNL     1      48.679   6.513  15.080  0.00  0.00    +0.000 NA
BRANCH   6   8
ATOM      8  N   UNL     1      49.321   5.470  17.107  0.00  0.00    +0.000 N 
ATOM      9  C   UNL     1      48.043   5.518  17.808  0.00  0.00    +0.000 C 
ATOM     10  C   UNL     1      47.409   4.131  17.782  0.00  0.00    +0.000 C 
ATOM     11  C   UNL     1      48.372   3.061  18.299  0.00  0.00    +0.000 C 
ATOM     12  C   UNL     1      49.745   3.136  17.629  0.00  0.00    +0.000 C 
ATOM     13  C   UNL     1      50.326   4.556  17.638  0.00  0.00    +0.000 C 
BRANCH  11  14
ATOM     14  O   UNL     1      48.500   3.155  19.718  0.00  0.00    +0.000 OA
ATOM     15  H   UNL     1      48.027   2.414  20.130  0.00  0.00    +0.000 HD
ENDBRANCH  11  14
ENDBRANCH   6   8
ENDBRANCH   1   2
BRANCH   1  16
ATOM     16  N   UNL     1      46.621   7.280  13.366  0.00  0.00    +0.000 N 
ATOM     17  H   UNL     1      46.514   7.252  14.376  0.00  0.00    +0.000 HD
BRANCH  16  21
ATOM     18  C   UNL     1      44.746   4.014  11.703  0.00  0.00    +0.000 A 
ATOM     19  C   UNL     1      45.054   5.124  10.932  0.00  0.00    +0.000 A 
ATOM     20  N   UNL     1      45.695   6.216  11.436  0.00  0.00    +0.000 NA
ATOM     21  C   UNL     1      46.042   6.172  12.741  0.00  0.00    +0.000 A 
ATOM     22  C   UNL     1      45.727   5.035  13.498  0.00  0.00    +0.000 A 
ATOM     23  N   UNL     1      45.081   3.936  13.018  0.00  0.00    +0.000 NA
BRANCH  18  25
ATOM     24  N   UNL     1      44.563   2.273  10.020  0.00  0.00    +0.000 N 
ATOM     25  C   UNL     1      43.990   2.875  11.110  0.00  0.00    +0.000 C 
ATOM     26  O   UNL     1      42.930   2.479  11.577  0.00  0.00    +0.000 OA
ATOM     27  H   UNL     1      44.128   1.446   9.636  0.00  0.00    +0.000 HD
ATOM     28  H   UNL     1      45.498   2.533   9.729  0.00  0.00    +0.000 HD
ENDBRANCH  18  25
ENDBRANCH  16  21
ENDBRANCH   1  16
TORSDOF 6
ENDMDL
MODEL 7
REMARK VINA RESULT:    -6.592      4.262      7.960
REMARK INTER + INTRA:          -9.339
REMARK INTER:                  -8.717
REMARK INTRA:                  -0.621
REMARK UNBOUND:                -0.628
REMARK  Name = 
REMARK  6 active torsions:
REMARK  status: ('A' for Active; 'I' for Inactive)
REMARK    1  A    between atoms: C_2  and  C_4
REMARK    2  A    between atoms: C_7  and  N_8
REMARK    3  A    between atoms: N_8  and  C_9
REMARK    4  A    between atoms: C_9  and  C_10
REMARK    5  A    between atoms: C_14  and  N_15
REMARK    6  A    between atoms: C_18  and  O_19
REMARK                            x       y       z     vdW  Elec       q    Type
REMARK                         _______ _______ _______ _____ _____    ______ ____
ROOT
ATOM      1  C   UNL     1      48.740   7.143  14.829  0.00  0.00    +0.000 C 
ENDROOT
BRANCH   1   2
ATOM      2  C   UNL     1      47.472   7.200  14.008  0.00  0.00    +0.000 A 
ATOM      3  C   UNL     1      47.058   8.415  13.485  0.00  0.00    +0.000 A 
ATOM      4  N   UNL     1      45.953   8.548  12.733  0.00  0.00    +0.000 NA
ATOM      5  C   UNL     1      45.272   7.393  12.529  0.00  0.00    +0.000 A 
ATOM      6  C   UNL     1      45.635   6.140  13.040  0.00  0.00    +0.000 A 
ATOM      7  N   UNL     1      46.759   6.052  13.794  0.00  0.00    +0.000 NA
BRANCH   6   8
ATOM      8  N   UNL     1      44.900   5.003  12.769  0.00  0.00    +0.000 N 
ATOM      9  C   UNL     1      43.445   4.972  12.863  0.00  0.00    +0.000 C 
ATOM     10  C   UNL     1      42.871   4.511  11.528  0.00  0.00    +0.000 C 
ATOM     11  C   UNL     1      43.501   3.196  11.066  0.00  0.00    +0.000 C 
ATOM     12  C   UNL     1      45.029   3.231  11.113  0.00  0.00    +0.000 C 
ATOM     13  C   UNL     1      45.564   3.742  12.457  0.00  0.00    +0.000 C 
BRANCH  11  14
ATOM     14  O   UNL     1      42.999   2.108  11.844  0.00  0.00    +0.000 OA
ATOM     15  H   UNL     1      43.671   1.845  12.493  0.00  0.00    +0.000 HD
ENDBRANCH  11  14
ENDBRANCH   6   8
ENDBRANCH   1   2
BRANCH   1  16
ATOM     16  N   UNL     1      48.509   6.707  16.209  0.00  0.00    +0.000 N 
ATOM     17  H   UNL     1      48.549   7.488  16.859  0.00  0.00    +0.000 HD
BRANCH  16  21
ATOM     18  C   UNL     1      50.533   3.315  17.366  0.00  0.00    +0.000 A 
ATOM     19  C   UNL     1      51.162   4.550  17.365  0.00  0.00    +0.000 A 
ATOM     20  N   UNL     1      50.523   5.701  17.012  0.00  0.00    +0.000 NA
ATOM     21  C   UNL     1      49.221   5.596  16.670  0.00  0.00    +0.000 A 
ATOM     22  C   UNL     1      48.604   4.337  16.687  0.00  0.00    +0.000 A 
ATOM     23  N   UNL     1      49.224   3.173  17.028  0.00  0.00    +0.000 NA
BRANCH  18  25
ATOM     24  N   UNL     1      52.393   2.255  18.512  0.00  0.00    +0.000 N 
ATOM     25  C   UNL     1      51.301   2.082  17.703  0.00  0.00    +0.000 C 
ATOM     26  O   UNL     1      50.968   0.974  17.304  0.00  0.00    +0.000 OA
ATOM     27  H   UNL     1      52.894   1.439  18.834  0.00  0.00    +0.000 HD
ATOM     28  H   UNL     1      52.575   3.158  18.934  0.00  0.00    +0.000 HD
ENDBRANCH  18  25
ENDBRANCH  16  21
ENDBRANCH   1  16
TORSDOF 6
ENDMDL
MODEL 8
REMARK VINA RESULT:    -6.511      4.950      8.410
REMARK INTER + INTRA:          -9.232
REMARK INTER:                  -8.630
REMARK INTRA:                  -0.602
REMARK UNBOUND:                -0.628
REMARK  Name = 
REMARK  6 active torsions:
REMARK  status: ('A' for Active; 'I' for Inactive)
REMARK    1  A    between atoms: C_2  and  C_4
REMARK    2  A    between atoms: C_7  and  N_8
REMARK    3  A    between atoms: N_8  and  C_9
REMARK    4  A    between atoms: C_9  and  C_10
REMARK    5  A    between atoms: C_14  and  N_15
REMARK    6  A    between atoms: C_18  and  O_19
REMARK                            x       y       z     vdW  Elec       q    Type
REMARK                         _______ _______ _______ _____ _____    ______ ____
ROOT
ATOM      1  C   UNL     1      47.482   4.130  17.009  0.00  0.00    +0.000 C 
ENDROOT
BRANCH   1   2
ATOM      2  C   UNL     1      47.476   4.796  15.652  0.00  0.00    +0.000 A 
ATOM      3  C   UNL     1      48.349   5.845  15.409  0.00  0.00    +0.000 A 
ATOM      4  N   UNL     1      48.417   6.480  14.227  0.00  0.00    +0.000 NA
ATOM      5  C   UNL     1      47.557   6.009  13.289  0.00  0.00    +0.000 A 
ATOM      6  C   UNL     1      46.647   4.962  13.479  0.00  0.00    +0.000 A 
ATOM      7  N   UNL     1      46.613   4.349  14.690  0.00  0.00    +0.000 NA
BRANCH   6   8
ATOM      8  N   UNL     1      45.817   4.525  12.465  0.00  0.00    +0.000 N 
ATOM      9  C   UNL     1      45.353   3.146  12.376  0.00  0.00    +0.000 C 
ATOM     10  C   UNL     1      43.828   3.136  12.339  0.00  0.00    +0.000 C 
ATOM     11  C   UNL     1      43.285   4.056  11.244  0.00  0.00    +0.000 C 
ATOM     12  C   UNL     1      43.903   5.455  11.295  0.00  0.00    +0.000 C 
ATOM     13  C   UNL     1      45.434   5.417  11.378  0.00  0.00    +0.000 C 
BRANCH  11  14
ATOM     14  O   UNL     1      43.484   3.466   9.959  0.00  0.00    +0.000 OA
ATOM     15  H   UNL     1      43.441   4.159   9.280  0.00  0.00    +0.000 HD
ENDBRANCH  11  14
ENDBRANCH   6   8
ENDBRANCH   1   2
BRANCH   1  16
ATOM     16  N   UNL     1      48.084   2.795  16.989  0.00  0.00    +0.000 N 
ATOM     17  H   UNL     1      47.547   2.133  17.543  0.00  0.00    +0.000 HD
BRANCH  16  21
ATOM     18  C   UNL     1      52.084   2.559  17.932  0.00  0.00    +0.000 A 
ATOM     19  C   UNL     1      51.459   1.537  17.236  0.00  0.00    +0.000 A 
ATOM     20  N   UNL     1      50.143   1.585  16.882  0.00  0.00    +0.000 NA
ATOM     21  C   UNL     1      49.457   2.695  17.230  0.00  0.00    +0.000 A 
ATOM     22  C   UNL     1      50.115   3.719  17.926  0.00  0.00    +0.000 A 
ATOM     23  N   UNL     1      51.425   3.691  18.297  0.00  0.00    +0.000 NA
BRANCH  18  25
ATOM     24  N   UNL     1      53.773   2.600  19.676  0.00  0.00    +0.000 N 
ATOM     25  C   UNL     1      53.510   2.423  18.344  0.00  0.00    +0.000 C 
ATOM     26  O   UNL     1      54.397   2.145  17.547  0.00  0.00    +0.000 OA
ATOM     27  H   UNL     1      54.712   2.436  20.014  0.00  0.00    +0.000 HD
ATOM     28  H   UNL     1      53.011   2.702  20.336  0.00  0.00    +0.000 HD
ENDBRANCH  18  25
ENDBRANCH  16  21
ENDBRANCH   1  16
TORSDOF 6
ENDMDL
MODEL 9
REMARK VINA RESULT:    -6.360      2.955      4.257
REMARK INTER + INTRA:          -9.033
REMARK INTER:                  -8.399
REMARK INTRA:                  -0.634
REMARK UNBOUND:                -0.628
REMARK  Name = 
REMARK  6 active torsions:
REMARK  status: ('A' for Active; 'I' for Inactive)
REMARK    1  A    between atoms: C_2  and  C_4
REMARK    2  A    between atoms: C_7  and  N_8
REMARK    3  A    between atoms: N_8  and  C_9
REMARK    4  A    between atoms: C_9  and  C_10
REMARK    5  A    between atoms: C_14  and  N_15
REMARK    6  A    between atoms: C_18  and  O_19
REMARK                            x       y       z     vdW  Elec       q    Type
REMARK                         _______ _______ _______ _____ _____    ______ ____
ROOT
ATOM      1  C   UNL     1      45.153   6.501  11.981  0.00  0.00    +0.000 C 
ENDROOT
BRANCH   1   2
ATOM      2  C   UNL     1      46.455   6.505  12.749  0.00  0.00    +0.000 A 
ATOM      3  C   UNL     1      47.541   7.197  12.239  0.00  0.00    +0.000 A 
ATOM      4  N   UNL     1      48.727   7.262  12.867  0.00  0.00    +0.000 NA
ATOM      5  C   UNL     1      48.774   6.591  14.044  0.00  0.00    +0.000 A 
ATOM      6  C   UNL     1      47.715   5.866  14.605  0.00  0.00    +0.000 A 
ATOM      7  N   UNL     1      46.535   5.827  13.936  0.00  0.00    +0.000 NA
BRANCH   6   8
ATOM      8  N   UNL     1      47.835   5.225  15.822  0.00  0.00    +0.000 N 
ATOM      9  C   UNL     1      47.123   3.989  16.127  0.00  0.00    +0.000 C 
ATOM     10  C   UNL     1      48.132   2.924  16.541  0.00  0.00    +0.000 C 
ATOM     11  C   UNL     1      49.047   3.418  17.663  0.00  0.00    +0.000 C 
ATOM     12  C   UNL     1      49.666   4.783  17.355  0.00  0.00    +0.000 C 
ATOM     13  C   UNL     1      48.623   5.811  16.900  0.00  0.00    +0.000 C 
BRANCH  11  14
ATOM     14  O   UNL     1      48.335   3.457  18.900  0.00  0.00    +0.000 OA
ATOM     15  H   UNL     1      48.353   2.575  19.305  0.00  0.00    +0.000 HD
ENDBRANCH  11  14
ENDBRANCH   6   8
ENDBRANCH   1   2
BRANCH   1  16
ATOM     16  N   UNL     1      44.609   5.155  11.784  0.00  0.00    +0.000 N 
ATOM     17  H   UNL     1      44.724   4.579  12.614  0.00  0.00    +0.000 HD
BRANCH  16  21
ATOM     18  C   UNL     1      45.860   3.265   8.348  0.00  0.00    +0.000 A 
ATOM     19  C   UNL     1      45.312   2.541   9.396  0.00  0.00    +0.000 A 
ATOM     20  N   UNL     1      44.864   3.129  10.541  0.00  0.00    +0.000 NA
ATOM     21  C   UNL     1      44.960   4.474  10.615  0.00  0.00    +0.000 A 
ATOM     22  C   UNL     1      45.510   5.185   9.538  0.00  0.00    +0.000 A 
ATOM     23  N   UNL     1      45.972   4.619   8.388  0.00  0.00    +0.000 NA
BRANCH  18  25
ATOM     24  N   UNL     1      46.921   1.316   7.362  0.00  0.00    +0.000 N 
ATOM     25  C   UNL     1      46.389   2.560   7.146  0.00  0.00    +0.000 C 
ATOM     26  O   UNL     1      46.334   3.047   6.024  0.00  0.00    +0.000 OA
ATOM     27  H   UNL     1      47.216   0.767   6.566  0.00  0.00    +0.000 HD
ATOM     28  H   UNL     1      46.842   0.880   8.273  0.00  0.00    +0.000 HD
ENDBRANCH  18  25
ENDBRANCH  16  21
ENDBRANCH   1  16
TORSDOF 6
ENDMDL
