MODEL 1
REMARK VINA RESULT:    -8.038      0.000      0.000
REMARK INTER + INTRA:         -12.090
REMARK INTER:                 -11.092
REMARK INTRA:                  -0.998
REMARK UNBOUND:                -0.998
REMARK  Name = 
REMARK  8 active torsions:
REMARK  status: ('A' for Active; 'I' for Inactive)
REMARK    1  A    between atoms: C_1  and  C_2
REMARK    2  A    between atoms: C_2  and  O_3
REMARK    3  A    between atoms: O_3  and  C_4
REMARK    4  A    between atoms: C_8  and  C_9
REMARK    5  A    between atoms: C_9  and  C_10
REMARK    6  A    between atoms: C_10  and  N_11
REMARK    7  A    between atoms: C_15  and  C_16
REMARK    8  A    between atoms: C_23  and  O_24
REMARK                            x       y       z     vdW  Elec       q    Type
REMARK                         _______ _______ _______ _____ _____    ______ ____
ROOT
ATOM      1  C   UNL     1      43.188   5.189  12.281  0.00  0.00    +0.000 C 
ENDROOT
BRANCH   1   6
ATOM      2  C   UNL     1      46.528   6.698  13.488  0.00  0.00    +0.000 A 
ATOM      3  C   UNL     1      47.236   5.541  13.787  0.00  0.00    +0.000 A 
ATOM      4  C   UNL     1      46.668   4.290  13.534  0.00  0.00    +0.000 A 
ATOM      5  C   UNL     1      45.376   4.192  13.017  0.00  0.00    +0.000 A 
ATOM      6  C   UNL     1      44.622   5.344  12.764  0.00  0.00    +0.000 A 
ATOM      7  C   UNL     1      45.226   6.594  12.990  0.00  0.00    +0.000 A 
BRANCH   2   8
ATOM      8  O   UNL     1      46.980   7.989  13.636  0.00  0.00    +0.000 OA
BRANCH   8  10
ATOM      9  C   UNL     1      46.591   9.632  11.865  0.00  0.00    +0.000 C 
ATOM     10  C   UNL     1      47.601   8.698  12.530  0.00  0.00    +0.000 C 
ATOM     11  C   UNL     1      49.048   9.234  12.748  0.00  0.00    +0.000 C 
ATOM     12  C   UNL     1      49.603   8.000  12.023  0.00  0.00    +0.000 C 
ATOM     13  C   UNL     1      48.201   7.734  11.459  0.00  0.00    +0.000 C 
BRANCH  12  14
ATOM     14  O   UNL     1      50.163   6.960  12.848  0.00  0.00    +0.000 OA
ATOM     15  H   UNL     1      51.118   6.960  12.659  0.00  0.00    +0.000 HD
ENDBRANCH  12  14
ENDBRANCH   8  10
ENDBRANCH   2   8
ENDBRANCH   1   6
BRANCH   1  16
ATOM     16  C   UNL     1      43.055   4.444  10.953  0.00  0.00    +0.000 C 
BRANCH  16  17
ATOM     17  N   UNL     1      43.881   5.022   9.888  0.00  0.00    +0.000 N 
ATOM     18  C   UNL     1      44.670   4.025   9.272  0.00  0.00    +0.000 A 
ATOM     19  C   UNL     1      45.544   4.389   8.251  0.00  0.00    +0.000 A 
ATOM     20  C   UNL     1      46.314   3.401   7.629  0.00  0.00    +0.000 A 
ATOM     21  C   UNL     1      46.198   2.069   8.032  0.00  0.00    +0.000 A 
ATOM     22  C   UNL     1      45.300   1.797   9.045  0.00  0.00    +0.000 A 
ATOM     23  N   UNL     1      44.544   2.736   9.657  0.00  0.00    +0.000 NA
ATOM     24  H   UNL     1      44.500   5.752  10.232  0.00  0.00    +0.000 HD
BRANCH  21  25
ATOM     25  C   UNL     1      47.017   1.022   7.377  0.00  0.00    +0.000 C 
ATOM     26  N   UNL     1      46.763  -0.292   7.644  0.00  0.00    +0.000 N 
ATOM     27  O   UNL     1      47.919   1.325   6.603  0.00  0.00    +0.000 OA
ATOM     28  H   UNL     1      46.052  -0.650   8.260  0.00  0.00    +0.000 HD
ATOM     29  H   UNL     1      47.349  -0.968   7.172  0.00  0.00    +0.000 HD
ENDBRANCH  21  25
ENDBRANCH  16  17
ENDBRANCH   1  16
TORSDOF 7
ENDMDL
MODEL 2
REMARK VINA RESULT:    -7.983      2.564      3.774
REMARK INTER + INTRA:         -12.014
REMARK INTER:                 -11.559
REMARK INTRA:                  -0.455
REMARK UNBOUND:                -0.998
REMARK  Name = 
REMARK  8 active torsions:
REMARK  status: ('A' for Active; 'I' for Inactive)
REMARK    1  A    between atoms: C_1  and  C_2
REMARK    2  A    between atoms: C_2  and  O_3
REMARK    3  A    between atoms: O_3  and  C_4
REMARK    4  A    between atoms: C_8  and  C_9
REMARK    5  A    between atoms: C_9  and  C_10
REMARK    6  A    between atoms: C_10  and  N_11
REMARK    7  A    between atoms: C_15  and  C_16
REMARK    8  A    between atoms: C_23  and  O_24
REMARK                            x       y       z     vdW  Elec       q    Type
REMARK                         _______ _______ _______ _____ _____    ______ ____
ROOT
ATOM      1  C   UNL     1      43.689   5.582  12.272  0.00  0.00    +0.000 C 
ENDROOT
BRANCH   1   6
ATOM      2  C   UNL     1      47.129   5.122  13.958  0.00  0.00    +0.000 A 
ATOM      3  C   UNL     1      47.891   6.029  13.230  0.00  0.00    +0.000 A 
ATOM      4  C   UNL     1      47.285   6.828  12.259  0.00  0.00    +0.000 A 
ATOM      5  C   UNL     1      45.923   6.697  11.984  0.00  0.00    +0.000 A 
ATOM      6  C   UNL     1      45.149   5.749  12.663  0.00  0.00    +0.000 A 
ATOM      7  C   UNL     1      45.770   4.981  13.664  0.00  0.00    +0.000 A 
BRANCH   2   8
ATOM      8  O   UNL     1      47.580   4.313  14.975  0.00  0.00    +0.000 OA
BRANCH   8  10
ATOM      9  C   UNL     1      48.948   6.067  15.993  0.00  0.00    +0.000 C 
ATOM     10  C   UNL     1      48.027   4.872  16.238  0.00  0.00    +0.000 C 
ATOM     11  C   UNL     1      46.972   4.994  17.379  0.00  0.00    +0.000 C 
ATOM     12  C   UNL     1      47.496   3.686  17.988  0.00  0.00    +0.000 C 
ATOM     13  C   UNL     1      48.762   3.825  17.133  0.00  0.00    +0.000 C 
BRANCH  12  14
ATOM     14  O   UNL     1      46.704   2.503  17.762  0.00  0.00    +0.000 OA
ATOM     15  H   UNL     1      47.136   1.796  18.275  0.00  0.00    +0.000 HD
ENDBRANCH  12  14
ENDBRANCH   8  10
ENDBRANCH   2   8
ENDBRANCH   1   6
BRANCH   1  16
ATOM     16  C   UNL     1      43.480   5.075  10.846  0.00  0.00    +0.000 C 
BRANCH  16  17
ATOM     17  N   UNL     1      43.677   3.627  10.719  0.00  0.00    +0.000 N 
ATOM     18  C   UNL     1      44.588   3.337   9.678  0.00  0.00    +0.000 A 
ATOM     19  C   UNL     1      44.882   2.008   9.388  0.00  0.00    +0.000 A 
ATOM     20  C   UNL     1      45.795   1.719   8.369  0.00  0.00    +0.000 A 
ATOM     21  C   UNL     1      46.402   2.758   7.660  0.00  0.00    +0.000 A 
ATOM     22  C   UNL     1      46.059   4.046   8.022  0.00  0.00    +0.000 A 
ATOM     23  N   UNL     1      45.181   4.347   9.005  0.00  0.00    +0.000 NA
ATOM     24  H   UNL     1      42.808   3.133  10.530  0.00  0.00    +0.000 HD
BRANCH  21  25
ATOM     25  C   UNL     1      47.366   2.453   6.577  0.00  0.00    +0.000 C 
ATOM     26  N   UNL     1      47.368   3.219   5.447  0.00  0.00    +0.000 N 
ATOM     27  O   UNL     1      48.156   1.521   6.685  0.00  0.00    +0.000 OA
ATOM     28  H   UNL     1      46.766   4.002   5.255  0.00  0.00    +0.000 HD
ATOM     29  H   UNL     1      48.045   2.970   4.737  0.00  0.00    +0.000 HD
ENDBRANCH  21  25
ENDBRANCH  16  17
ENDBRANCH   1  16
TORSDOF 7
ENDMDL
MODEL 3
REMARK VINA RESULT:    -7.172      1.516      2.277
REMARK INTER + INTRA:         -10.895
REMARK INTER:                 -10.371
REMARK INTRA:                  -0.524
REMARK UNBOUND:                -0.998
REMARK  Name = 
REMARK  8 active torsions:
REMARK  status: ('A' for Active; 'I' for Inactive)
REMARK    1  A    between atoms: C_1  and  C_2
REMARK    2  A    between atoms: C_2  and  O_3
REMARK    3  A    between atoms: O_3  and  C_4
REMARK    4  A    between atoms: C_8  and  C_9
REMARK    5  A    between atoms: C_9  and  C_10
REMARK    6  A    between atoms: C_10  and  N_11
REMARK    7  A    between atoms: C_15  and  C_16
REMARK    8  A    between atoms: C_23  and  O_24
REMARK                            x       y       z     vdW  Elec       q    Type
REMARK                         _______ _______ _______ _____ _____    ______ ____
ROOT
ATOM      1  C   UNL     1      44.002   4.870  12.391  0.00  0.00    +0.000 C 
ENDROOT
BRANCH   1   6
ATOM      2  C   UNL     1      47.146   7.097  12.600  0.00  0.00    +0.000 A 
ATOM      3  C   UNL     1      46.634   8.302  12.137  0.00  0.00    +0.000 A 
ATOM      4  C   UNL     1      45.276   8.412  11.830  0.00  0.00    +0.000 A 
ATOM      5  C   UNL     1      44.433   7.307  11.949  0.00  0.00    +0.000 A 
ATOM      6  C   UNL     1      44.939   6.067  12.357  0.00  0.00    +0.000 A 
ATOM      7  C   UNL     1      46.301   5.988  12.698  0.00  0.00    +0.000 A 
BRANCH   2   8
ATOM      8  O   UNL     1      48.444   6.860  12.988  0.00  0.00    +0.000 OA
BRANCH   8  10
ATOM      9  C   UNL     1      50.066   8.688  13.117  0.00  0.00    +0.000 C 
ATOM     10  C   UNL     1      49.133   7.761  13.896  0.00  0.00    +0.000 C 
ATOM     11  C   UNL     1      48.300   8.382  15.056  0.00  0.00    +0.000 C 
ATOM     12  C   UNL     1      48.844   7.307  16.008  0.00  0.00    +0.000 C 
ATOM     13  C   UNL     1      49.950   7.003  14.989  0.00  0.00    +0.000 C 
BRANCH  12  14
ATOM     14  O   UNL     1      47.959   6.216  16.328  0.00  0.00    +0.000 OA
ATOM     15  H   UNL     1      48.004   5.610  15.566  0.00  0.00    +0.000 HD
ENDBRANCH  12  14
ENDBRANCH   8  10
ENDBRANCH   2   8
ENDBRANCH   1   6
BRANCH   1  16
ATOM     16  C   UNL     1      43.341   4.557  11.048  0.00  0.00    +0.000 C 
BRANCH  16  17
ATOM     17  N   UNL     1      44.092   5.084   9.904  0.00  0.00    +0.000 N 
ATOM     18  C   UNL     1      44.826   4.055   9.272  0.00  0.00    +0.000 A 
ATOM     19  C   UNL     1      45.626   4.368   8.177  0.00  0.00    +0.000 A 
ATOM     20  C   UNL     1      46.339   3.348   7.540  0.00  0.00    +0.000 A 
ATOM     21  C   UNL     1      46.241   2.034   8.003  0.00  0.00    +0.000 A 
ATOM     22  C   UNL     1      45.417   1.813   9.087  0.00  0.00    +0.000 A 
ATOM     23  N   UNL     1      44.717   2.783   9.716  0.00  0.00    +0.000 NA
ATOM     24  H   UNL     1      44.742   5.819  10.174  0.00  0.00    +0.000 HD
BRANCH  21  25
ATOM     25  C   UNL     1      47.001   0.954   7.331  0.00  0.00    +0.000 C 
ATOM     26  N   UNL     1      46.729  -0.348   7.641  0.00  0.00    +0.000 N 
ATOM     27  O   UNL     1      47.870   1.217   6.506  0.00  0.00    +0.000 OA
ATOM     28  H   UNL     1      46.042  -0.675   8.300  0.00  0.00    +0.000 HD
ATOM     29  H   UNL     1      47.275  -1.048   7.155  0.00  0.00    +0.000 HD
ENDBRANCH  21  25
ENDBRANCH  16  17
ENDBRANCH   1  16
TORSDOF 7
ENDMDL
MODEL 4
REMARK VINA RESULT:    -6.984      1.703      2.662
REMARK INTER + INTRA:         -10.636
REMARK INTER:                  -9.696
REMARK INTRA:                  -0.940
REMARK UNBOUND:                -0.998
REMARK  Name = 
REMARK  8 active torsions:
REMARK  status: ('A' for Active; 'I' for Inactive)
REMARK    1  A    between atoms: C_1  and  C_2
REMARK    2  A    between atoms: C_2  and  O_3
REMARK    3  A    between atoms: O_3  and  C_4
REMARK    4  A    between atoms: C_8  and  C_9
REMARK    5  A    between atoms: C_9  and  C_10
REMARK    6  A    between atoms: C_10  and  N_11
REMARK    7  A    between atoms: C_15  and  C_16
REMARK    8  A    between atoms: C_23  and  O_24
REMARK                            x       y       z     vdW  Elec       q    Type
REMARK                         _______ _______ _______ _____ _____    ______ ____
ROOT
ATOM      1  C   UNL     1      44.005   5.405  12.192  0.00  0.00    +0.000 C 
ENDROOT
BRANCH   1   6
ATOM      2  C   UNL     1      46.242   8.494  12.777  0.00  0.00    +0.000 A 
ATOM      3  C   UNL     1      45.638   9.409  11.924  0.00  0.00    +0.000 A 
ATOM      4  C   UNL     1      44.482   9.054  11.225  0.00  0.00    +0.000 A 
ATOM      5  C   UNL     1      43.948   7.771  11.347  0.00  0.00    +0.000 A 
ATOM      6  C   UNL     1      44.573   6.815  12.155  0.00  0.00    +0.000 A 
ATOM      7  C   UNL     1      45.714   7.204  12.880  0.00  0.00    +0.000 A 
BRANCH   2   8
ATOM      8  O   UNL     1      47.348   8.722  13.563  0.00  0.00    +0.000 OA
BRANCH   8  10
ATOM      9  C   UNL     1      49.062   7.095  14.195  0.00  0.00    +0.000 C 
ATOM     10  C   UNL     1      48.648   8.182  13.204  0.00  0.00    +0.000 C 
ATOM     11  C   UNL     1      48.924   7.926  11.692  0.00  0.00    +0.000 C 
ATOM     12  C   UNL     1      49.667   9.267  11.612  0.00  0.00    +0.000 C 
ATOM     13  C   UNL     1      49.758   9.279  13.143  0.00  0.00    +0.000 C 
BRANCH  12  14
ATOM     14  O   UNL     1      48.957  10.367  11.010  0.00  0.00    +0.000 OA
ATOM     15  H   UNL     1      48.997  10.211  10.049  0.00  0.00    +0.000 HD
ENDBRANCH  12  14
ENDBRANCH   8  10
ENDBRANCH   2   8
ENDBRANCH   1   6
BRANCH   1  16
ATOM     16  C   UNL     1      43.541   4.883  10.833  0.00  0.00    +0.000 C 
BRANCH  16  17
ATOM     17  N   UNL     1      43.844   3.463  10.631  0.00  0.00    +0.000 N 
ATOM     18  C   UNL     1      44.711   3.289   9.528  0.00  0.00    +0.000 A 
ATOM     19  C   UNL     1      45.090   2.001   9.163  0.00  0.00    +0.000 A 
ATOM     20  C   UNL     1      45.960   1.828   8.082  0.00  0.00    +0.000 A 
ATOM     21  C   UNL     1      46.439   2.940   7.386  0.00  0.00    +0.000 A 
ATOM     22  C   UNL     1      46.018   4.180   7.823  0.00  0.00    +0.000 A 
ATOM     23  N   UNL     1      45.180   4.369   8.867  0.00  0.00    +0.000 NA
ATOM     24  H   UNL     1      43.007   2.908  10.470  0.00  0.00    +0.000 HD
BRANCH  21  25
ATOM     25  C   UNL     1      47.357   2.757   6.237  0.00  0.00    +0.000 C 
ATOM     26  N   UNL     1      48.669   2.461   6.470  0.00  0.00    +0.000 N 
ATOM     27  O   UNL     1      46.951   2.872   5.085  0.00  0.00    +0.000 OA
ATOM     28  H   UNL     1      49.106   2.346   7.369  0.00  0.00    +0.000 HD
ATOM     29  H   UNL     1      49.255   2.346   5.653  0.00  0.00    +0.000 HD
ENDBRANCH  21  25
ENDBRANCH  16  17
ENDBRANCH   1  16
TORSDOF 7
ENDMDL
MODEL 5
REMARK VINA RESULT:    -6.794      4.818      7.820
REMARK INTER + INTRA:         -10.374
REMARK INTER:                  -9.575
REMARK INTRA:                  -0.799
REMARK UNBOUND:                -0.998
REMARK  Name = 
REMARK  8 active torsions:
REMARK  status: ('A' for Active; 'I' for Inactive)
REMARK    1  A    between atoms: C_1  and  C_2
REMARK    2  A    between atoms: C_2  and  O_3
REMARK    3  A    between atoms: O_3  and  C_4
REMARK    4  A    between atoms: C_8  and  C_9
REMARK    5  A    between atoms: C_9  and  C_10
REMARK    6  A    between atoms: C_10  and  N_11
REMARK    7  A    between atoms: C_15  and  C_16
REMARK    8  A    between atoms: C_23  and  O_24
REMARK                            x       y       z     vdW  Elec       q    Type
REMARK                         _______ _______ _______ _____ _____    ______ ____
ROOT
ATOM      1  C   UNL     1      48.957   7.050  14.649  0.00  0.00    +0.000 C 
ENDROOT
BRANCH   1   6
ATOM      2  C   UNL     1      46.062   6.634  12.132  0.00  0.00    +0.000 A 
ATOM      3  C   UNL     1      45.505   7.906  12.175  0.00  0.00    +0.000 A 
ATOM      4  C   UNL     1      46.099   8.903  12.951  0.00  0.00    +0.000 A 
ATOM      5  C   UNL     1      47.231   8.622  13.717  0.00  0.00    +0.000 A 
ATOM      6  C   UNL     1      47.775   7.332  13.736  0.00  0.00    +0.000 A 
ATOM      7  C   UNL     1      47.184   6.353  12.917  0.00  0.00    +0.000 A 
BRANCH   2   8
ATOM      8  O   UNL     1      45.617   5.576  11.375  0.00  0.00    +0.000 OA
BRANCH   8  10
ATOM      9  C   UNL     1      45.273   3.284  12.159  0.00  0.00    +0.000 C 
ATOM     10  C   UNL     1      44.630   4.644  11.893  0.00  0.00    +0.000 C 
ATOM     11  C   UNL     1      43.621   5.186  12.950  0.00  0.00    +0.000 C 
ATOM     12  C   UNL     1      42.579   5.381  11.840  0.00  0.00    +0.000 C 
ATOM     13  C   UNL     1      43.411   4.464  10.934  0.00  0.00    +0.000 C 
BRANCH  12  14
ATOM     14  O   UNL     1      42.379   6.728  11.367  0.00  0.00    +0.000 OA
ATOM     15  H   UNL     1      42.260   7.271  12.167  0.00  0.00    +0.000 HD
ENDBRANCH  12  14
ENDBRANCH   8  10
ENDBRANCH   2   8
ENDBRANCH   1   6
BRANCH   1  16
ATOM     16  C   UNL     1      48.569   6.773  16.102  0.00  0.00    +0.000 C 
BRANCH  16  17
ATOM     17  N   UNL     1      47.986   5.441  16.294  0.00  0.00    +0.000 N 
ATOM     18  C   UNL     1      48.976   4.517  16.701  0.00  0.00    +0.000 A 
ATOM     19  C   UNL     1      48.617   3.189  16.908  0.00  0.00    +0.000 A 
ATOM     20  C   UNL     1      49.591   2.277  17.326  0.00  0.00    +0.000 A 
ATOM     21  C   UNL     1      50.904   2.704  17.535  0.00  0.00    +0.000 A 
ATOM     22  C   UNL     1      51.168   4.042  17.315  0.00  0.00    +0.000 A 
ATOM     23  N   UNL     1      50.241   4.940  16.913  0.00  0.00    +0.000 NA
ATOM     24  H   UNL     1      47.547   5.085  15.448  0.00  0.00    +0.000 HD
BRANCH  21  25
ATOM     25  C   UNL     1      51.937   1.738  17.974  0.00  0.00    +0.000 C 
ATOM     26  N   UNL     1      51.634   0.408  18.018  0.00  0.00    +0.000 N 
ATOM     27  O   UNL     1      53.056   2.120  18.299  0.00  0.00    +0.000 OA
ATOM     28  H   UNL     1      50.752  -0.013  17.775  0.00  0.00    +0.000 HD
ATOM     29  H   UNL     1      52.373  -0.211  18.324  0.00  0.00    +0.000 HD
ENDBRANCH  21  25
ENDBRANCH  16  17
ENDBRANCH   1  16
TORSDOF 7
ENDMDL
MODEL 6
REMARK VINA RESULT:    -6.632      3.265      5.254
REMARK INTER + INTRA:         -10.150
REMARK INTER:                  -9.113
REMARK INTRA:                  -1.037
REMARK UNBOUND:                -0.998
REMARK  Name = 
REMARK  8 active torsions:
REMARK  status: ('A' for Active; 'I' for Inactive)
REMARK    1  A    between atoms: C_1  and  C_2
REMARK    2  A    between atoms: C_2  and  O_3
REMARK    3  A    between atoms: O_3  and  C_4
REMARK    4  A    between atoms: C_8  and  C_9
REMARK    5  A    between atoms: C_9  and  C_10
REMARK    6  A    between atoms: C_10  and  N_11
REMARK    7  A    between atoms: C_15  and  C_16
REMARK    8  A    between atoms: C_23  and  O_24
REMARK                            x       y       z     vdW  Elec       q    Type
REMARK                         _______ _______ _______ _____ _____    ______ ____
ROOT
ATOM      1  C   UNL     1      47.868   8.031  13.058  0.00  0.00    +0.000 C 
ENDROOT
BRANCH   1   6
ATOM      2  C   UNL     1      49.372   6.579  16.301  0.00  0.00    +0.000 A 
ATOM      3  C   UNL     1      49.292   7.687  17.135  0.00  0.00    +0.000 A 
ATOM      4  C   UNL     1      48.696   8.864  16.678  0.00  0.00    +0.000 A 
ATOM      5  C   UNL     1      48.210   8.950  15.373  0.00  0.00    +0.000 A 
ATOM      6  C   UNL     1      48.333   7.866  14.496  0.00  0.00    +0.000 A 
ATOM      7  C   UNL     1      48.903   6.677  14.988  0.00  0.00    +0.000 A 
BRANCH   2   8
ATOM      8  O   UNL     1      49.883   5.346  16.633  0.00  0.00    +0.000 OA
BRANCH   8  10
ATOM      9  C   UNL     1      49.799   4.549  18.945  0.00  0.00    +0.000 C 
ATOM     10  C   UNL     1      49.181   4.464  17.549  0.00  0.00    +0.000 C 
ATOM     11  C   UNL     1      47.627   4.417  17.448  0.00  0.00    +0.000 C 
ATOM     12  C   UNL     1      47.731   3.143  16.598  0.00  0.00    +0.000 C 
ATOM     13  C   UNL     1      49.181   2.977  17.071  0.00  0.00    +0.000 C 
BRANCH  12  14
ATOM     14  O   UNL     1      47.542   3.295  15.177  0.00  0.00    +0.000 OA
ATOM     15  H   UNL     1      46.793   2.713  14.949  0.00  0.00    +0.000 HD
ENDBRANCH  12  14
ENDBRANCH   8  10
ENDBRANCH   2   8
ENDBRANCH   1   6
BRANCH   1  16
ATOM     16  C   UNL     1      46.387   7.724  12.843  0.00  0.00    +0.000 C 
BRANCH  16  17
ATOM     17  N   UNL     1      45.996   6.405  13.350  0.00  0.00    +0.000 N 
ATOM     18  C   UNL     1      45.632   5.549  12.287  0.00  0.00    +0.000 A 
ATOM     19  C   UNL     1      45.203   4.256  12.575  0.00  0.00    +0.000 A 
ATOM     20  C   UNL     1      44.858   3.402  11.523  0.00  0.00    +0.000 A 
ATOM     21  C   UNL     1      44.947   3.849  10.203  0.00  0.00    +0.000 A 
ATOM     22  C   UNL     1      45.391   5.142  10.009  0.00  0.00    +0.000 A 
ATOM     23  N   UNL     1      45.733   5.982  11.011  0.00  0.00    +0.000 NA
ATOM     24  H   UNL     1      45.216   6.456  14.001  0.00  0.00    +0.000 HD
BRANCH  21  25
ATOM     25  C   UNL     1      44.577   2.947   9.088  0.00  0.00    +0.000 C 
ATOM     26  N   UNL     1      44.339   3.473   7.851  0.00  0.00    +0.000 N 
ATOM     27  O   UNL     1      44.478   1.737   9.266  0.00  0.00    +0.000 OA
ATOM     28  H   UNL     1      44.390   4.445   7.596  0.00  0.00    +0.000 HD
ATOM     29  H   UNL     1      44.089   2.815   7.124  0.00  0.00    +0.000 HD
ENDBRANCH  21  25
ENDBRANCH  16  17
ENDBRANCH   1  16
TORSDOF 7
ENDMDL
MODEL 7
REMARK VINA RESULT:    -6.590      4.038      7.447
REMARK INTER + INTRA:         -10.092
REMARK INTER:                  -9.004
REMARK INTRA:                  -1.088
REMARK UNBOUND:                -0.998
REMARK  Name = 
REMARK  8 active torsions:
REMARK  status: ('A' for Active; 'I' for Inactive)
REMARK    1  A    between atoms: C_1  and  C_2
REMARK    2  A    between atoms: C_2  and  O_3
REMARK    3  A    between atoms: O_3  and  C_4
REMARK    4  A    between atoms: C_8  and  C_9
REMARK    5  A    between atoms: C_9  and  C_10
REMARK    6  A    between atoms: C_10  and  N_11
REMARK    7  A    between atoms: C_15  and  C_16
REMARK    8  A    between atoms: C_23  and  O_24
REMARK                            x       y       z     vdW  Elec       q    Type
REMARK                         _______ _______ _______ _____ _____    ______ ____
ROOT
ATOM      1  C   UNL     1      48.685   8.865  12.848  0.00  0.00    +0.000 C 
ENDROOT
BRANCH   1   6
ATOM      2  C   UNL     1      45.553   7.116  11.427  0.00  0.00    +0.000 A 
ATOM      3  C   UNL     1      44.662   8.181  11.393  0.00  0.00    +0.000 A 
ATOM      4  C   UNL     1      45.089   9.460  11.757  0.00  0.00    +0.000 A 
ATOM      5  C   UNL     1      46.397   9.672  12.191  0.00  0.00    +0.000 A 
ATOM      6  C   UNL     1      47.296   8.604  12.289  0.00  0.00    +0.000 A 
ATOM      7  C   UNL     1      46.857   7.330  11.882  0.00  0.00    +0.000 A 
BRANCH   2   8
ATOM      8  O   UNL     1      45.287   5.821  11.049  0.00  0.00    +0.000 OA
BRANCH   8  10
ATOM      9  C   UNL     1      45.688   3.773  12.326  0.00  0.00    +0.000 C 
ATOM     10  C   UNL     1      44.690   4.876  11.977  0.00  0.00    +0.000 C 
ATOM     11  C   UNL     1      43.822   5.459  13.132  0.00  0.00    +0.000 C 
ATOM     12  C   UNL     1      42.556   5.169  12.314  0.00  0.00    +0.000 C 
ATOM     13  C   UNL     1      43.380   4.233  11.420  0.00  0.00    +0.000 C 
BRANCH  12  14
ATOM     14  O   UNL     1      41.938   6.292  11.656  0.00  0.00    +0.000 OA
ATOM     15  H   UNL     1      41.116   6.466  12.151  0.00  0.00    +0.000 HD
ENDBRANCH  12  14
ENDBRANCH   8  10
ENDBRANCH   2   8
ENDBRANCH   1   6
BRANCH   1  16
ATOM     16  C   UNL     1      49.483   7.598  13.153  0.00  0.00    +0.000 C 
BRANCH  16  17
ATOM     17  N   UNL     1      50.025   7.577  14.516  0.00  0.00    +0.000 N 
ATOM     18  C   UNL     1      49.371   6.599  15.299  0.00  0.00    +0.000 A 
ATOM     19  C   UNL     1      49.732   6.449  16.634  0.00  0.00    +0.000 A 
ATOM     20  C   UNL     1      49.097   5.471  17.406  0.00  0.00    +0.000 A 
ATOM     21  C   UNL     1      48.116   4.658  16.834  0.00  0.00    +0.000 A 
ATOM     22  C   UNL     1      47.829   4.870  15.500  0.00  0.00    +0.000 A 
ATOM     23  N   UNL     1      48.432   5.807  14.736  0.00  0.00    +0.000 NA
ATOM     24  H   UNL     1      49.931   8.476  14.983  0.00  0.00    +0.000 HD
BRANCH  21  25
ATOM     25  C   UNL     1      47.440   3.625  17.652  0.00  0.00    +0.000 C 
ATOM     26  N   UNL     1      47.993   3.245  18.841  0.00  0.00    +0.000 N 
ATOM     27  O   UNL     1      46.395   3.107  17.271  0.00  0.00    +0.000 OA
ATOM     28  H   UNL     1      48.842   3.601  19.246  0.00  0.00    +0.000 HD
ATOM     29  H   UNL     1      47.493   2.536  19.363  0.00  0.00    +0.000 HD
ENDBRANCH  21  25
ENDBRANCH  16  17
ENDBRANCH   1  16
TORSDOF 7
ENDMDL
MODEL 8
REMARK VINA RESULT:    -6.389      3.932      6.362
REMARK INTER + INTRA:          -9.815
REMARK INTER:                  -8.514
REMARK INTRA:                  -1.302
REMARK UNBOUND:                -0.998
REMARK  Name = 
REMARK  8 active torsions:
REMARK  status: ('A' for Active; 'I' for Inactive)
REMARK    1  A    between atoms: C_1  and  C_2
REMARK    2  A    between atoms: C_2  and  O_3
REMARK    3  A    between atoms: O_3  and  C_4
REMARK    4  A    between atoms: C_8  and  C_9
REMARK    5  A    between atoms: C_9  and  C_10
REMARK    6  A    between atoms: C_10  and  N_11
REMARK    7  A    between atoms: C_15  and  C_16
REMARK    8  A    between atoms: C_23  and  O_24
REMARK                            x       y       z     vdW  Elec       q    Type
REMARK                         _______ _______ _______ _____ _____    ______ ____
ROOT
ATOM      1  C   UNL     1      49.041   8.500  14.088  0.00  0.00    +0.000 C 
ENDROOT
BRANCH   1   6
ATOM      2  C   UNL     1      49.122   6.721  17.511  0.00  0.00    +0.000 A 
ATOM      3  C   UNL     1      48.573   7.707  18.322  0.00  0.00    +0.000 A 
ATOM      4  C   UNL     1      48.118   8.901  17.758  0.00  0.00    +0.000 A 
ATOM      5  C   UNL     1      48.244   9.129  16.387  0.00  0.00    +0.000 A 
ATOM      6  C   UNL     1      48.848   8.175  15.560  0.00  0.00    +0.000 A 
ATOM      7  C   UNL     1      49.265   6.963  16.142  0.00  0.00    +0.000 A 
BRANCH   2   8
ATOM      8  O   UNL     1      49.561   5.483  17.919  0.00  0.00    +0.000 OA
BRANCH   8  10
ATOM      9  C   UNL     1      48.672   4.442  19.946  0.00  0.00    +0.000 C 
ATOM     10  C   UNL     1      48.632   4.484  18.419  0.00  0.00    +0.000 C 
ATOM     11  C   UNL     1      47.238   4.394  17.729  0.00  0.00    +0.000 C 
ATOM     12  C   UNL     1      47.747   3.223  16.878  0.00  0.00    +0.000 C 
ATOM     13  C   UNL     1      48.920   3.058  17.853  0.00  0.00    +0.000 C 
BRANCH  12  14
ATOM     14  O   UNL     1      48.096   3.518  15.510  0.00  0.00    +0.000 OA
ATOM     15  H   UNL     1      49.050   3.335  15.438  0.00  0.00    +0.000 HD
ENDBRANCH  12  14
ENDBRANCH   8  10
ENDBRANCH   2   8
ENDBRANCH   1   6
BRANCH   1  16
ATOM     16  C   UNL     1      49.154   7.271  13.187  0.00  0.00    +0.000 C 
BRANCH  16  17
ATOM     17  N   UNL     1      48.252   7.324  12.032  0.00  0.00    +0.000 N 
ATOM     18  C   UNL     1      47.132   6.486  12.234  0.00  0.00    +0.000 A 
ATOM     19  C   UNL     1      46.174   6.383  11.229  0.00  0.00    +0.000 A 
ATOM     20  C   UNL     1      45.057   5.567  11.434  0.00  0.00    +0.000 A 
ATOM     21  C   UNL     1      44.912   4.871  12.636  0.00  0.00    +0.000 A 
ATOM     22  C   UNL     1      45.904   5.040  13.580  0.00  0.00    +0.000 A 
ATOM     23  N   UNL     1      46.990   5.826  13.404  0.00  0.00    +0.000 NA
ATOM     24  H   UNL     1      48.711   7.040  11.170  0.00  0.00    +0.000 HD
BRANCH  21  25
ATOM     25  C   UNL     1      43.731   4.004  12.852  0.00  0.00    +0.000 C 
ATOM     26  N   UNL     1      43.821   2.670  12.575  0.00  0.00    +0.000 N 
ATOM     27  O   UNL     1      42.677   4.471  13.270  0.00  0.00    +0.000 OA
ATOM     28  H   UNL     1      44.631   2.184  12.228  0.00  0.00    +0.000 HD
ATOM     29  H   UNL     1      42.987   2.120  12.739  0.00  0.00    +0.000 HD
ENDBRANCH  21  25
ENDBRANCH  16  17
ENDBRANCH   1  16
TORSDOF 7
ENDMDL
MODEL 9
REMARK VINA RESULT:    -6.352      3.950      7.812
REMARK INTER + INTRA:          -9.765
REMARK INTER:                  -8.837
REMARK INTRA:                  -0.928
REMARK UNBOUND:                -0.998
REMARK  Name = 
REMARK  8 active torsions:
REMARK  status: ('A' for Active; 'I' for Inactive)
REMARK    1  A    between atoms: C_1  and  C_2
REMARK    2  A    between atoms: C_2  and  O_3
REMARK    3  A    between atoms: O_3  and  C_4
REMARK    4  A    between atoms: C_8  and  C_9
REMARK    5  A    between atoms: C_9  and  C_10
REMARK    6  A    between atoms: C_10  and  N_11
REMARK    7  A    between atoms: C_15  and  C_16
REMARK    8  A    between atoms: C_23  and  O_24
REMARK                            x       y       z     vdW  Elec       q    Type
REMARK                         _______ _______ _______ _____ _____    ______ ____
ROOT
ATOM      1  C   UNL     1      48.718   7.976  11.656  0.00  0.00    +0.000 C 
ENDROOT
BRANCH   1   6
ATOM      2  C   UNL     1      45.679   5.657  12.179  0.00  0.00    +0.000 A 
ATOM      3  C   UNL     1      44.736   6.573  12.628  0.00  0.00    +0.000 A 
ATOM      4  C   UNL     1      45.057   7.930  12.692  0.00  0.00    +0.000 A 
ATOM      5  C   UNL     1      46.333   8.373  12.343  0.00  0.00    +0.000 A 
ATOM      6  C   UNL     1      47.317   7.461  11.945  0.00  0.00    +0.000 A 
ATOM      7  C   UNL     1      46.962   6.102  11.850  0.00  0.00    +0.000 A 
BRANCH   2   8
ATOM      8  O   UNL     1      45.486   4.305  12.015  0.00  0.00    +0.000 OA
BRANCH   8  10
ATOM      9  C   UNL     1      43.488   2.895  12.084  0.00  0.00    +0.000 C 
ATOM     10  C   UNL     1      44.378   3.793  11.227  0.00  0.00    +0.000 C 
ATOM     11  C   UNL     1      43.679   4.785  10.250  0.00  0.00    +0.000 C 
ATOM     12  C   UNL     1      44.516   4.221   9.094  0.00  0.00    +0.000 C 
ATOM     13  C   UNL     1      44.852   3.004   9.966  0.00  0.00    +0.000 C 
BRANCH  12  14
ATOM     14  O   UNL     1      45.636   5.016   8.657  0.00  0.00    +0.000 OA
ATOM     15  H   UNL     1      45.550   5.080   7.688  0.00  0.00    +0.000 HD
ENDBRANCH  12  14
ENDBRANCH   8  10
ENDBRANCH   2   8
ENDBRANCH   1   6
BRANCH   1  16
ATOM     16  C   UNL     1      49.766   7.537  12.678  0.00  0.00    +0.000 C 
BRANCH  16  17
ATOM     17  N   UNL     1      49.827   8.418  13.849  0.00  0.00    +0.000 N 
ATOM     18  C   UNL     1      49.368   7.746  15.004  0.00  0.00    +0.000 A 
ATOM     19  C   UNL     1      49.325   8.432  16.214  0.00  0.00    +0.000 A 
ATOM     20  C   UNL     1      48.887   7.763  17.361  0.00  0.00    +0.000 A 
ATOM     21  C   UNL     1      48.502   6.423  17.284  0.00  0.00    +0.000 A 
ATOM     22  C   UNL     1      48.586   5.819  16.046  0.00  0.00    +0.000 A 
ATOM     23  N   UNL     1      49.009   6.446  14.925  0.00  0.00    +0.000 NA
ATOM     24  H   UNL     1      49.270   9.261  13.728  0.00  0.00    +0.000 HD
BRANCH  21  25
ATOM     25  C   UNL     1      48.033   5.716  18.498  0.00  0.00    +0.000 C 
ATOM     26  N   UNL     1      46.712   5.390  18.615  0.00  0.00    +0.000 N 
ATOM     27  O   UNL     1      48.816   5.425  19.397  0.00  0.00    +0.000 OA
ATOM     28  H   UNL     1      45.988   5.580  17.943  0.00  0.00    +0.000 HD
ATOM     29  H   UNL     1      46.442   4.907  19.463  0.00  0.00    +0.000 HD
ENDBRANCH  21  25
ENDBRANCH  16  17
ENDBRANCH   1  16
TORSDOF 7
ENDMDL
