MODEL 1
REMARK VINA RESULT:    -7.459      0.000      0.000
REMARK INTER + INTRA:         -10.549
REMARK INTER:                 -10.075
REMARK INTRA:                  -0.474
REMARK UNBOUND:                -0.474
REMARK  Name = 
REMARK  7 active torsions:
REMARK  status: ('A' for Active; 'I' for Inactive)
REMARK    1  A    between atoms: N_1  and  C_2
REMARK    2  A    between atoms: C_2  and  C_3
REMARK    3  A    between atoms: C_3  and  C_4
REMARK    4  A    between atoms: C_4  and  O_5
REMARK    5  A    between atoms: C_8  and  C_9
REMARK    6  A    between atoms: C_9  and  N_10
REMARK    7  A    between atoms: C_15  and  C_16
REMARK                            x       y       z     vdW  Elec       q    Type
REMARK                         _______ _______ _______ _____ _____    ______ ____
ROOT
ATOM      1  C   UNL     1      44.058   6.043  11.094  0.00  0.00    +0.000 C 
ENDROOT
BRANCH   1   2
ATOM      2  N   UNL     1      44.233   4.670  10.667  0.00  0.00    +0.000 N 
ATOM      3  C   UNL     1      43.520   3.590  11.122  0.00  0.00    +0.000 A 
ATOM      4  N   UNL     1      43.808   2.490  10.460  0.00  0.00    +0.000 NA
ATOM      5  C   UNL     1      44.717   2.883   9.511  0.00  0.00    +0.000 A 
ATOM      6  C   UNL     1      45.327   2.158   8.479  0.00  0.00    +0.000 A 
ATOM      7  C   UNL     1      46.186   2.862   7.629  0.00  0.00    +0.000 A 
ATOM      8  C   UNL     1      46.412   4.221   7.878  0.00  0.00    +0.000 A 
ATOM      9  N   UNL     1      45.852   4.966   8.873  0.00  0.00    +0.000 NA
ATOM     10  C   UNL     1      45.013   4.238   9.633  0.00  0.00    +0.000 A 
BRANCH   7  11
ATOM     11  C   UNL     1      46.853   2.253   6.454  0.00  0.00    +0.000 C 
ATOM     12  N   UNL     1      47.140   3.041   5.375  0.00  0.00    +0.000 N 
ATOM     13  O   UNL     1      47.164   1.067   6.448  0.00  0.00    +0.000 OA
ATOM     14  H   UNL     1      46.963   4.031   5.310  0.00  0.00    +0.000 HD
ATOM     15  H   UNL     1      47.636   2.601   4.611  0.00  0.00    +0.000 HD
ENDBRANCH   7  11
ENDBRANCH   1   2
BRANCH   1  19
ATOM     16  C   UNL     1      47.631   7.214  13.407  0.00  0.00    +0.000 C 
ATOM     17  C   UNL     1      46.488   8.239  13.227  0.00  0.00    +0.000 C 
ATOM     18  C   UNL     1      45.488   7.862  12.142  0.00  0.00    +0.000 C 
ATOM     19  C   UNL     1      44.885   6.463  12.327  0.00  0.00    +0.000 C 
ATOM     20  C   UNL     1      45.975   5.406  12.589  0.00  0.00    +0.000 C 
ATOM     21  C   UNL     1      46.992   5.821  13.656  0.00  0.00    +0.000 C 
BRANCH  16  22
ATOM     22  C   UNL     1      48.473   7.585  14.663  0.00  0.00    +0.000 C 
BRANCH  22  23
ATOM     23  N   UNL     1      49.036   6.422  15.353  0.00  0.00    +0.000 NA
ATOM     24  H   UNL     1      49.715   6.744  16.045  0.00  0.00    +0.000 HD
ATOM     25  H   UNL     1      49.576   5.860  14.694  0.00  0.00    +0.000 HD
ENDBRANCH  22  23
ENDBRANCH  16  22
BRANCH  16  26
ATOM     26  C   UNL     1      48.533   7.187  12.145  0.00  0.00    +0.000 C 
BRANCH  26  27
ATOM     27  O   UNL     1      49.818   6.641  12.420  0.00  0.00    +0.000 OA
ATOM     28  H   UNL     1      50.312   7.337  12.892  0.00  0.00    +0.000 HD
ENDBRANCH  26  27
ENDBRANCH  16  26
ENDBRANCH   1  19
TORSDOF 7
ENDMDL
MODEL 2
REMARK VINA RESULT:    -6.235      3.459      8.426
REMARK INTER + INTRA:          -8.896
REMARK INTER:                  -8.378
REMARK INTRA:                  -0.518
REMARK UNBOUND:                -0.474
REMARK  Name = 
REMARK  7 active torsions:
REMARK  status: ('A' for Active; 'I' for Inactive)
REMARK    1  A    between atoms: N_1  and  C_2
REMARK    2  A    between atoms: C_2  and  C_3
REMARK    3  A    between atoms: C_3  and  C_4
REMARK    4  A    between atoms: C_4  and  O_5
REMARK    5  A    between atoms: C_8  and  C_9
REMARK    6  A    between atoms: C_9  and  N_10
REMARK    7  A    between atoms: C_15  and  C_16
REMARK                            x       y       z     vdW  Elec       q    Type
REMARK                         _______ _______ _______ _____ _____    ______ ____
ROOT
ATOM      1  C   UNL     1      48.086   6.314  13.388  0.00  0.00    +0.000 C 
ENDROOT
BRANCH   1   2
ATOM      2  N   UNL     1      48.544   6.791  14.678  0.00  0.00    +0.000 N 
ATOM      3  C   UNL     1      48.823   8.095  15.000  0.00  0.00    +0.000 A 
ATOM      4  N   UNL     1      49.091   8.243  16.279  0.00  0.00    +0.000 NA
ATOM      5  C   UNL     1      48.942   6.990  16.815  0.00  0.00    +0.000 A 
ATOM      6  C   UNL     1      49.034   6.550  18.141  0.00  0.00    +0.000 A 
ATOM      7  C   UNL     1      48.776   5.196  18.381  0.00  0.00    +0.000 A 
ATOM      8  C   UNL     1      48.482   4.365  17.293  0.00  0.00    +0.000 A 
ATOM      9  N   UNL     1      48.392   4.743  15.987  0.00  0.00    +0.000 NA
ATOM     10  C   UNL     1      48.619   6.061  15.829  0.00  0.00    +0.000 A 
BRANCH   7  11
ATOM     11  C   UNL     1      48.768   4.593  19.735  0.00  0.00    +0.000 C 
ATOM     12  N   UNL     1      48.439   3.273  19.868  0.00  0.00    +0.000 N 
ATOM     13  O   UNL     1      49.069   5.253  20.723  0.00  0.00    +0.000 OA
ATOM     14  H   UNL     1      48.223   2.645  19.111  0.00  0.00    +0.000 HD
ATOM     15  H   UNL     1      48.489   2.885  20.802  0.00  0.00    +0.000 HD
ENDBRANCH   7  11
ENDBRANCH   1   2
BRANCH   1  19
ATOM     16  C   UNL     1      44.243   5.175  11.539  0.00  0.00    +0.000 C 
ATOM     17  C   UNL     1      44.619   4.573  12.911  0.00  0.00    +0.000 C 
ATOM     18  C   UNL     1      46.085   4.753  13.282  0.00  0.00    +0.000 C 
ATOM     19  C   UNL     1      46.555   6.212  13.227  0.00  0.00    +0.000 C 
ATOM     20  C   UNL     1      46.139   6.892  11.909  0.00  0.00    +0.000 C 
ATOM     21  C   UNL     1      44.671   6.667  11.536  0.00  0.00    +0.000 C 
BRANCH  16  22
ATOM     22  C   UNL     1      42.699   5.120  11.349  0.00  0.00    +0.000 C 
BRANCH  22  23
ATOM     23  N   UNL     1      42.020   6.365  11.718  0.00  0.00    +0.000 NA
ATOM     24  H   UNL     1      41.014   6.247  11.582  0.00  0.00    +0.000 HD
ATOM     25  H   UNL     1      42.289   7.107  11.071  0.00  0.00    +0.000 HD
ENDBRANCH  22  23
ENDBRANCH  16  22
BRANCH  16  26
ATOM     26  C   UNL     1      44.952   4.398  10.398  0.00  0.00    +0.000 C 
BRANCH  26  27
ATOM     27  O   UNL     1      44.422   4.728   9.119  0.00  0.00    +0.000 OA
ATOM     28  H   UNL     1      44.406   3.896   8.610  0.00  0.00    +0.000 HD
ENDBRANCH  26  27
ENDBRANCH  16  26
ENDBRANCH   1  19
TORSDOF 7
ENDMDL
MODEL 3
REMARK VINA RESULT:    -6.065      3.304      8.237
REMARK INTER + INTRA:          -8.666
REMARK INTER:                  -7.937
REMARK INTRA:                  -0.730
REMARK UNBOUND:                -0.474
REMARK  Name = 
REMARK  7 active torsions:
REMARK  status: ('A' for Active; 'I' for Inactive)
REMARK    1  A    between atoms: N_1  and  C_2
REMARK    2  A    between atoms: C_2  and  C_3
REMARK    3  A    between atoms: C_3  and  C_4
REMARK    4  A    between atoms: C_4  and  O_5
REMARK    5  A    between atoms: C_8  and  C_9
REMARK    6  A    between atoms: C_9  and  N_10
REMARK    7  A    between atoms: C_15  and  C_16
REMARK                            x       y       z     vdW  Elec       q    Type
REMARK                         _______ _______ _______ _____ _____    ______ ____
ROOT
ATOM      1  C   UNL     1      46.814   6.670  13.595  0.00  0.00    +0.000 C 
ENDROOT
BRANCH   1   2
ATOM      2  N   UNL     1      48.054   6.562  14.336  0.00  0.00    +0.000 N 
ATOM      3  C   UNL     1      49.210   7.252  14.073  0.00  0.00    +0.000 A 
ATOM      4  N   UNL     1      50.130   7.048  14.992  0.00  0.00    +0.000 NA
ATOM      5  C   UNL     1      49.529   6.223  15.908  0.00  0.00    +0.000 A 
ATOM      6  C   UNL     1      49.999   5.726  17.131  0.00  0.00    +0.000 A 
ATOM      7  C   UNL     1      49.119   4.935  17.876  0.00  0.00    +0.000 A 
ATOM      8  C   UNL     1      47.852   4.659  17.347  0.00  0.00    +0.000 A 
ATOM      9  N   UNL     1      47.354   5.110  16.161  0.00  0.00    +0.000 NA
ATOM     10  C   UNL     1      48.238   5.890  15.510  0.00  0.00    +0.000 A 
BRANCH   7  11
ATOM     11  C   UNL     1      49.443   4.392  19.216  0.00  0.00    +0.000 C 
ATOM     12  N   UNL     1      48.563   3.531  19.810  0.00  0.00    +0.000 N 
ATOM     13  O   UNL     1      50.490   4.687  19.782  0.00  0.00    +0.000 OA
ATOM     14  H   UNL     1      47.704   3.198  19.402  0.00  0.00    +0.000 HD
ATOM     15  H   UNL     1      48.840   3.145  20.705  0.00  0.00    +0.000 HD
ENDBRANCH   7  11
ENDBRANCH   1   2
BRANCH   1  19
ATOM     16  C   UNL     1      44.758   4.276  10.507  0.00  0.00    +0.000 C 
ATOM     17  C   UNL     1      45.677   5.437  10.064  0.00  0.00    +0.000 C 
ATOM     18  C   UNL     1      46.046   6.395  11.189  0.00  0.00    +0.000 C 
ATOM     19  C   UNL     1      46.668   5.697  12.405  0.00  0.00    +0.000 C 
ATOM     20  C   UNL     1      45.835   4.479  12.848  0.00  0.00    +0.000 C 
ATOM     21  C   UNL     1      45.443   3.549  11.695  0.00  0.00    +0.000 C 
BRANCH  16  22
ATOM     22  C   UNL     1      44.610   3.254   9.343  0.00  0.00    +0.000 C 
BRANCH  22  23
ATOM     23  N   UNL     1      44.344   1.886   9.795  0.00  0.00    +0.000 NA
ATOM     24  H   UNL     1      43.571   1.500   9.250  0.00  0.00    +0.000 HD
ATOM     25  H   UNL     1      44.005   1.904  10.758  0.00  0.00    +0.000 HD
ENDBRANCH  22  23
ENDBRANCH  16  22
BRANCH  16  26
ATOM     26  C   UNL     1      43.366   4.820  10.924  0.00  0.00    +0.000 C 
BRANCH  26  27
ATOM     27  O   UNL     1      42.539   3.801  11.474  0.00  0.00    +0.000 OA
ATOM     28  H   UNL     1      42.302   4.102  12.371  0.00  0.00    +0.000 HD
ENDBRANCH  26  27
ENDBRANCH  16  26
ENDBRANCH   1  19
TORSDOF 7
ENDMDL
MODEL 4
REMARK VINA RESULT:    -5.907      3.745      5.481
REMARK INTER + INTRA:          -8.454
REMARK INTER:                  -7.886
REMARK INTRA:                  -0.568
REMARK UNBOUND:                -0.474
REMARK  Name = 
REMARK  7 active torsions:
REMARK  status: ('A' for Active; 'I' for Inactive)
REMARK    1  A    between atoms: N_1  and  C_2
REMARK    2  A    between atoms: C_2  and  C_3
REMARK    3  A    between atoms: C_3  and  C_4
REMARK    4  A    between atoms: C_4  and  O_5
REMARK    5  A    between atoms: C_8  and  C_9
REMARK    6  A    between atoms: C_9  and  N_10
REMARK    7  A    between atoms: C_15  and  C_16
REMARK                            x       y       z     vdW  Elec       q    Type
REMARK                         _______ _______ _______ _____ _____    ______ ____
ROOT
ATOM      1  C   UNL     1      48.495   6.285  14.438  0.00  0.00    +0.000 C 
ENDROOT
BRANCH   1   2
ATOM      2  N   UNL     1      47.278   6.460  13.670  0.00  0.00    +0.000 N 
ATOM      3  C   UNL     1      46.787   7.652  13.202  0.00  0.00    +0.000 A 
ATOM      4  N   UNL     1      45.737   7.486  12.426  0.00  0.00    +0.000 NA
ATOM      5  C   UNL     1      45.566   6.127  12.357  0.00  0.00    +0.000 A 
ATOM      6  C   UNL     1      44.651   5.361  11.625  0.00  0.00    +0.000 A 
ATOM      7  C   UNL     1      44.761   3.970  11.726  0.00  0.00    +0.000 A 
ATOM      8  C   UNL     1      45.741   3.433  12.571  0.00  0.00    +0.000 A 
ATOM      9  N   UNL     1      46.645   4.136  13.310  0.00  0.00    +0.000 NA
ATOM     10  C   UNL     1      46.506   5.465  13.142  0.00  0.00    +0.000 A 
BRANCH   7  11
ATOM     11  C   UNL     1      43.911   3.025  10.964  0.00  0.00    +0.000 C 
ATOM     12  N   UNL     1      44.150   2.851   9.630  0.00  0.00    +0.000 N 
ATOM     13  O   UNL     1      43.018   2.391  11.515  0.00  0.00    +0.000 OA
ATOM     14  H   UNL     1      44.888   3.294   9.105  0.00  0.00    +0.000 HD
ATOM     15  H   UNL     1      43.580   2.165   9.152  0.00  0.00    +0.000 HD
ENDBRANCH   7  11
ENDBRANCH   1   2
BRANCH   1  19
ATOM     16  C   UNL     1      49.263   5.045  18.604  0.00  0.00    +0.000 C 
ATOM     17  C   UNL     1      49.516   6.516  18.203  0.00  0.00    +0.000 C 
ATOM     18  C   UNL     1      49.556   6.747  16.698  0.00  0.00    +0.000 C 
ATOM     19  C   UNL     1      48.308   6.234  15.968  0.00  0.00    +0.000 C 
ATOM     20  C   UNL     1      47.959   4.793  16.387  0.00  0.00    +0.000 C 
ATOM     21  C   UNL     1      47.961   4.574  17.903  0.00  0.00    +0.000 C 
BRANCH  16  22
ATOM     22  C   UNL     1      49.039   4.954  20.141  0.00  0.00    +0.000 C 
BRANCH  22  23
ATOM     23  N   UNL     1      48.434   3.690  20.570  0.00  0.00    +0.000 NA
ATOM     24  H   UNL     1      47.936   3.276  19.781  0.00  0.00    +0.000 HD
ATOM     25  H   UNL     1      47.714   3.875  21.269  0.00  0.00    +0.000 HD
ENDBRANCH  22  23
ENDBRANCH  16  22
BRANCH  16  26
ATOM     26  C   UNL     1      50.466   4.159  18.184  0.00  0.00    +0.000 C 
BRANCH  26  27
ATOM     27  O   UNL     1      51.311   3.849  19.287  0.00  0.00    +0.000 OA
ATOM     28  H   UNL     1      51.301   4.636  19.863  0.00  0.00    +0.000 HD
ENDBRANCH  26  27
ENDBRANCH  16  26
ENDBRANCH   1  19
TORSDOF 7
ENDMDL
MODEL 5
REMARK VINA RESULT:    -5.819      3.776      6.498
REMARK INTER + INTRA:          -8.335
REMARK INTER:                  -7.759
REMARK INTRA:                  -0.575
REMARK UNBOUND:                -0.474
REMARK  Name = 
REMARK  7 active torsions:
REMARK  status: ('A' for Active; 'I' for Inactive)
REMARK    1  A    between atoms: N_1  and  C_2
REMARK    2  A    between atoms: C_2  and  C_3
REMARK    3  A    between atoms: C_3  and  C_4
REMARK    4  A    between atoms: C_4  and  O_5
REMARK    5  A    between atoms: C_8  and  C_9
REMARK    6  A    between atoms: C_9  and  N_10
REMARK    7  A    between atoms: C_15  and  C_16
REMARK                            x       y       z     vdW  Elec       q    Type
REMARK                         _______ _______ _______ _____ _____    ______ ____
ROOT
ATOM      1  C   UNL     1      50.001   7.380  15.036  0.00  0.00    +0.000 C 
ENDROOT
BRANCH   1   2
ATOM      2  N   UNL     1      48.686   7.559  14.453  0.00  0.00    +0.000 N 
ATOM      3  C   UNL     1      48.146   8.750  14.040  0.00  0.00    +0.000 A 
ATOM      4  N   UNL     1      46.990   8.587  13.431  0.00  0.00    +0.000 NA
ATOM      5  C   UNL     1      46.794   7.229  13.416  0.00  0.00    +0.000 A 
ATOM      6  C   UNL     1      45.770   6.465  12.842  0.00  0.00    +0.000 A 
ATOM      7  C   UNL     1      45.877   5.074  12.954  0.00  0.00    +0.000 A 
ATOM      8  C   UNL     1      46.964   4.538  13.655  0.00  0.00    +0.000 A 
ATOM      9  N   UNL     1      47.977   5.240  14.237  0.00  0.00    +0.000 NA
ATOM     10  C   UNL     1      47.831   6.567  14.066  0.00  0.00    +0.000 A 
BRANCH   7  11
ATOM     11  C   UNL     1      44.911   4.129  12.344  0.00  0.00    +0.000 C 
ATOM     12  N   UNL     1      45.111   2.787  12.505  0.00  0.00    +0.000 N 
ATOM     13  O   UNL     1      43.937   4.535  11.721  0.00  0.00    +0.000 OA
ATOM     14  H   UNL     1      45.856   2.365  13.037  0.00  0.00    +0.000 HD
ATOM     15  H   UNL     1      44.407   2.173  12.114  0.00  0.00    +0.000 HD
ENDBRANCH   7  11
ENDBRANCH   1   2
BRANCH   1  19
ATOM     16  C   UNL     1      48.806   5.498  18.847  0.00  0.00    +0.000 C 
ATOM     17  C   UNL     1      50.225   5.233  18.294  0.00  0.00    +0.000 C 
ATOM     18  C   UNL     1      50.404   5.634  16.836  0.00  0.00    +0.000 C 
ATOM     19  C   UNL     1      50.018   7.091  16.551  0.00  0.00    +0.000 C 
ATOM     20  C   UNL     1      48.641   7.440  17.148  0.00  0.00    +0.000 C 
ATOM     21  C   UNL     1      48.469   6.994  18.603  0.00  0.00    +0.000 C 
BRANCH  16  22
ATOM     22  C   UNL     1      48.788   5.248  20.383  0.00  0.00    +0.000 C 
BRANCH  22  23
ATOM     23  N   UNL     1      48.348   3.900  20.750  0.00  0.00    +0.000 NA
ATOM     24  H   UNL     1      48.473   3.773  21.756  0.00  0.00    +0.000 HD
ATOM     25  H   UNL     1      48.962   3.209  20.318  0.00  0.00    +0.000 HD
ENDBRANCH  22  23
ENDBRANCH  16  22
BRANCH  16  26
ATOM     26  C   UNL     1      47.774   4.580  18.141  0.00  0.00    +0.000 C 
BRANCH  26  27
ATOM     27  O   UNL     1      46.434   4.958  18.438  0.00  0.00    +0.000 OA
ATOM     28  H   UNL     1      46.454   5.337  19.336  0.00  0.00    +0.000 HD
ENDBRANCH  26  27
ENDBRANCH  16  26
ENDBRANCH   1  19
TORSDOF 7
ENDMDL
MODEL 6
REMARK VINA RESULT:    -5.638      3.162      4.920
REMARK INTER + INTRA:          -8.089
REMARK INTER:                  -7.546
REMARK INTRA:                  -0.544
REMARK UNBOUND:                -0.474
REMARK  Name = 
REMARK  7 active torsions:
REMARK  status: ('A' for Active; 'I' for Inactive)
REMARK    1  A    between atoms: N_1  and  C_2
REMARK    2  A    between atoms: C_2  and  C_3
REMARK    3  A    between atoms: C_3  and  C_4
REMARK    4  A    between atoms: C_4  and  O_5
REMARK    5  A    between atoms: C_8  and  C_9
REMARK    6  A    between atoms: C_9  and  N_10
REMARK    7  A    between atoms: C_15  and  C_16
REMARK                            x       y       z     vdW  Elec       q    Type
REMARK                         _______ _______ _______ _____ _____    ______ ____
ROOT
ATOM      1  C   UNL     1      47.608   8.037  13.087  0.00  0.00    +0.000 C 
ENDROOT
BRANCH   1   2
ATOM      2  N   UNL     1      47.313   6.627  13.250  0.00  0.00    +0.000 N 
ATOM      3  C   UNL     1      47.646   5.857  14.335  0.00  0.00    +0.000 A 
ATOM      4  N   UNL     1      47.134   4.647  14.262  0.00  0.00    +0.000 NA
ATOM      5  C   UNL     1      46.407   4.648  13.099  0.00  0.00    +0.000 A 
ATOM      6  C   UNL     1      45.591   3.658  12.536  0.00  0.00    +0.000 A 
ATOM      7  C   UNL     1      44.931   3.980  11.345  0.00  0.00    +0.000 A 
ATOM      8  C   UNL     1      45.150   5.240  10.776  0.00  0.00    +0.000 A 
ATOM      9  N   UNL     1      45.940   6.230  11.279  0.00  0.00    +0.000 NA
ATOM     10  C   UNL     1      46.519   5.868  12.439  0.00  0.00    +0.000 A 
BRANCH   7  11
ATOM     11  C   UNL     1      43.984   3.067  10.663  0.00  0.00    +0.000 C 
ATOM     12  N   UNL     1      44.168   2.795   9.337  0.00  0.00    +0.000 N 
ATOM     13  O   UNL     1      43.059   2.543  11.274  0.00  0.00    +0.000 OA
ATOM     14  H   UNL     1      44.924   3.142   8.768  0.00  0.00    +0.000 HD
ATOM     15  H   UNL     1      43.529   2.132   8.916  0.00  0.00    +0.000 HD
ENDBRANCH   7  11
ENDBRANCH   1   2
BRANCH   1  19
ATOM     16  C   UNL     1      51.467   9.172  11.268  0.00  0.00    +0.000 C 
ATOM     17  C   UNL     1      50.892   7.766  10.984  0.00  0.00    +0.000 C 
ATOM     18  C   UNL     1      49.761   7.361  11.922  0.00  0.00    +0.000 C 
ATOM     19  C   UNL     1      48.611   8.376  11.965  0.00  0.00    +0.000 C 
ATOM     20  C   UNL     1      49.131   9.813  12.168  0.00  0.00    +0.000 C 
ATOM     21  C   UNL     1      50.292  10.185  11.242  0.00  0.00    +0.000 C 
BRANCH  16  22
ATOM     22  C   UNL     1      52.464   9.566  10.140  0.00  0.00    +0.000 C 
BRANCH  22  23
ATOM     23  N   UNL     1      53.870   9.408  10.520  0.00  0.00    +0.000 NA
ATOM     24  H   UNL     1      53.932   8.747  11.296  0.00  0.00    +0.000 HD
ATOM     25  H   UNL     1      54.225  10.289  10.893  0.00  0.00    +0.000 HD
ENDBRANCH  22  23
ENDBRANCH  16  22
BRANCH  16  26
ATOM     26  C   UNL     1      52.180   9.192  12.646  0.00  0.00    +0.000 C 
BRANCH  26  27
ATOM     27  O   UNL     1      52.927   8.003  12.877  0.00  0.00    +0.000 OA
ATOM     28  H   UNL     1      52.288   7.343  13.207  0.00  0.00    +0.000 HD
ENDBRANCH  26  27
ENDBRANCH  16  26
ENDBRANCH   1  19
TORSDOF 7
ENDMDL
MODEL 7
REMARK VINA RESULT:    -5.507      3.181      8.253
REMARK INTER + INTRA:          -7.912
REMARK INTER:                  -7.236
REMARK INTRA:                  -0.676
REMARK UNBOUND:                -0.474
REMARK  Name = 
REMARK  7 active torsions:
REMARK  status: ('A' for Active; 'I' for Inactive)
REMARK    1  A    between atoms: N_1  and  C_2
REMARK    2  A    between atoms: C_2  and  C_3
REMARK    3  A    between atoms: C_3  and  C_4
REMARK    4  A    between atoms: C_4  and  O_5
REMARK    5  A    between atoms: C_8  and  C_9
REMARK    6  A    between atoms: C_9  and  N_10
REMARK    7  A    between atoms: C_15  and  C_16
REMARK                            x       y       z     vdW  Elec       q    Type
REMARK                         _______ _______ _______ _____ _____    ______ ____
ROOT
ATOM      1  C   UNL     1      47.143   7.159  13.587  0.00  0.00    +0.000 C 
ENDROOT
BRANCH   1   2
ATOM      2  N   UNL     1      48.558   7.422  13.751  0.00  0.00    +0.000 N 
ATOM      3  C   UNL     1      49.308   8.286  12.995  0.00  0.00    +0.000 A 
ATOM      4  N   UNL     1      50.533   8.418  13.460  0.00  0.00    +0.000 NA
ATOM      5  C   UNL     1      50.564   7.637  14.586  0.00  0.00    +0.000 A 
ATOM      6  C   UNL     1      51.581   7.439  15.528  0.00  0.00    +0.000 A 
ATOM      7  C   UNL     1      51.288   6.607  16.614  0.00  0.00    +0.000 A 
ATOM      8  C   UNL     1      50.028   5.999  16.674  0.00  0.00    +0.000 A 
ATOM      9  N   UNL     1      49.012   6.152  15.779  0.00  0.00    +0.000 NA
ATOM     10  C   UNL     1      49.347   6.989  14.779  0.00  0.00    +0.000 A 
BRANCH   7  11
ATOM     11  C   UNL     1      52.234   6.352  17.726  0.00  0.00    +0.000 C 
ATOM     12  N   UNL     1      53.461   6.953  17.700  0.00  0.00    +0.000 N 
ATOM     13  O   UNL     1      51.924   5.630  18.668  0.00  0.00    +0.000 OA
ATOM     14  H   UNL     1      53.784   7.595  16.993  0.00  0.00    +0.000 HD
ATOM     15  H   UNL     1      54.063   6.792  18.498  0.00  0.00    +0.000 HD
ENDBRANCH   7  11
ENDBRANCH   1   2
BRANCH   1  19
ATOM     16  C   UNL     1      44.608   4.693  10.944  0.00  0.00    +0.000 C 
ATOM     17  C   UNL     1      45.718   5.565  10.314  0.00  0.00    +0.000 C 
ATOM     18  C   UNL     1      46.284   6.618  11.259  0.00  0.00    +0.000 C 
ATOM     19  C   UNL     1      46.792   6.039  12.585  0.00  0.00    +0.000 C 
ATOM     20  C   UNL     1      45.755   5.095  13.225  0.00  0.00    +0.000 C 
ATOM     21  C   UNL     1      45.170   4.070  12.250  0.00  0.00    +0.000 C 
BRANCH  16  22
ATOM     22  C   UNL     1      44.245   3.530   9.976  0.00  0.00    +0.000 C 
BRANCH  22  23
ATOM     23  N   UNL     1      43.807   2.312  10.663  0.00  0.00    +0.000 NA
ATOM     24  H   UNL     1      43.944   1.513  10.042  0.00  0.00    +0.000 HD
ATOM     25  H   UNL     1      42.799   2.353  10.823  0.00  0.00    +0.000 HD
ENDBRANCH  22  23
ENDBRANCH  16  22
BRANCH  16  26
ATOM     26  C   UNL     1      43.352   5.554  11.243  0.00  0.00    +0.000 C 
BRANCH  26  27
ATOM     27  O   UNL     1      42.284   4.774  11.770  0.00  0.00    +0.000 OA
ATOM     28  H   UNL     1      42.277   3.945  11.256  0.00  0.00    +0.000 HD
ENDBRANCH  26  27
ENDBRANCH  16  26
ENDBRANCH   1  19
TORSDOF 7
ENDMDL
MODEL 8
REMARK VINA RESULT:    -5.167      3.438      7.174
REMARK INTER + INTRA:          -7.454
REMARK INTER:                  -7.003
REMARK INTRA:                  -0.451
REMARK UNBOUND:                -0.474
REMARK  Name = 
REMARK  7 active torsions:
REMARK  status: ('A' for Active; 'I' for Inactive)
REMARK    1  A    between atoms: N_1  and  C_2
REMARK    2  A    between atoms: C_2  and  C_3
REMARK    3  A    between atoms: C_3  and  C_4
REMARK    4  A    between atoms: C_4  and  O_5
REMARK    5  A    between atoms: C_8  and  C_9
REMARK    6  A    between atoms: C_9  and  N_10
REMARK    7  A    between atoms: C_15  and  C_16
REMARK                            x       y       z     vdW  Elec       q    Type
REMARK                         _______ _______ _______ _____ _____    ______ ____
ROOT
ATOM      1  C   UNL     1      47.854   6.472  13.921  0.00  0.00    +0.000 C 
ENDROOT
BRANCH   1   2
ATOM      2  N   UNL     1      48.217   7.821  13.538  0.00  0.00    +0.000 N 
ATOM      3  C   UNL     1      47.727   8.974  14.095  0.00  0.00    +0.000 A 
ATOM      4  N   UNL     1      48.336  10.046  13.635  0.00  0.00    +0.000 NA
ATOM      5  C   UNL     1      49.287   9.563  12.772  0.00  0.00    +0.000 A 
ATOM      6  C   UNL     1      50.276  10.232  12.041  0.00  0.00    +0.000 A 
ATOM      7  C   UNL     1      51.142   9.445  11.275  0.00  0.00    +0.000 A 
ATOM      8  C   UNL     1      50.949   8.058  11.255  0.00  0.00    +0.000 A 
ATOM      9  N   UNL     1      49.996   7.363  11.940  0.00  0.00    +0.000 NA
ATOM     10  C   UNL     1      49.219   8.176  12.680  0.00  0.00    +0.000 A 
BRANCH   7  11
ATOM     11  C   UNL     1      52.279   9.997  10.500  0.00  0.00    +0.000 C 
ATOM     12  N   UNL     1      52.019  10.688   9.350  0.00  0.00    +0.000 N 
ATOM     13  O   UNL     1      53.434   9.858  10.886  0.00  0.00    +0.000 OA
ATOM     14  H   UNL     1      51.103  10.890   8.982  0.00  0.00    +0.000 HD
ATOM     15  H   UNL     1      52.817  11.089   8.872  0.00  0.00    +0.000 HD
ENDBRANCH   7  11
ENDBRANCH   1   2
BRANCH   1  19
ATOM     16  C   UNL     1      44.585   4.713  11.531  0.00  0.00    +0.000 C 
ATOM     17  C   UNL     1      45.552   5.712  10.855  0.00  0.00    +0.000 C 
ATOM     18  C   UNL     1      46.403   6.507  11.837  0.00  0.00    +0.000 C 
ATOM     19  C   UNL     1      47.192   5.625  12.813  0.00  0.00    +0.000 C 
ATOM     20  C   UNL     1      46.294   4.555  13.463  0.00  0.00    +0.000 C 
ATOM     21  C   UNL     1      45.420   3.794  12.462  0.00  0.00    +0.000 C 
BRANCH  16  22
ATOM     22  C   UNL     1      43.918   3.817  10.447  0.00  0.00    +0.000 C 
BRANCH  22  23
ATOM     23  N   UNL     1      43.726   4.496   9.164  0.00  0.00    +0.000 NA
ATOM     24  H   UNL     1      42.896   4.114   8.706  0.00  0.00    +0.000 HD
ATOM     25  H   UNL     1      44.500   4.270   8.537  0.00  0.00    +0.000 HD
ENDBRANCH  22  23
ENDBRANCH  16  22
BRANCH  16  26
ATOM     26  C   UNL     1      43.501   5.476  12.338  0.00  0.00    +0.000 C 
BRANCH  26  27
ATOM     27  O   UNL     1      42.188   5.187  11.871  0.00  0.00    +0.000 OA
ATOM     28  H   UNL     1      41.853   6.016  11.479  0.00  0.00    +0.000 HD
ENDBRANCH  26  27
ENDBRANCH  16  26
ENDBRANCH   1  19
TORSDOF 7
ENDMDL
MODEL 9
REMARK VINA RESULT:    -5.068      3.648      5.542
REMARK INTER + INTRA:          -7.320
REMARK INTER:                  -6.607
REMARK INTRA:                  -0.714
REMARK UNBOUND:                -0.474
REMARK  Name = 
REMARK  7 active torsions:
REMARK  status: ('A' for Active; 'I' for Inactive)
REMARK    1  A    between atoms: N_1  and  C_2
REMARK    2  A    between atoms: C_2  and  C_3
REMARK    3  A    between atoms: C_3  and  C_4
REMARK    4  A    between atoms: C_4  and  O_5
REMARK    5  A    between atoms: C_8  and  C_9
REMARK    6  A    between atoms: C_9  and  N_10
REMARK    7  A    between atoms: C_15  and  C_16
REMARK                            x       y       z     vdW  Elec       q    Type
REMARK                         _______ _______ _______ _____ _____    ______ ____
ROOT
ATOM      1  C   UNL     1      47.774   7.098  14.954  0.00  0.00    +0.000 C 
ENDROOT
BRANCH   1   2
ATOM      2  N   UNL     1      47.494   7.078  13.533  0.00  0.00    +0.000 N 
ATOM      3  C   UNL     1      48.275   7.631  12.551  0.00  0.00    +0.000 A 
ATOM      4  N   UNL     1      47.836   7.342  11.345  0.00  0.00    +0.000 NA
ATOM      5  C   UNL     1      46.748   6.535  11.555  0.00  0.00    +0.000 A 
ATOM      6  C   UNL     1      45.919   5.868  10.643  0.00  0.00    +0.000 A 
ATOM      7  C   UNL     1      44.904   5.066  11.175  0.00  0.00    +0.000 A 
ATOM      8  C   UNL     1      44.754   5.007  12.566  0.00  0.00    +0.000 A 
ATOM      9  N   UNL     1      45.526   5.643  13.491  0.00  0.00    +0.000 NA
ATOM     10  C   UNL     1      46.502   6.371  12.915  0.00  0.00    +0.000 A 
BRANCH   7  11
ATOM     11  C   UNL     1      43.990   4.247  10.344  0.00  0.00    +0.000 C 
ATOM     12  N   UNL     1      43.996   4.422   8.988  0.00  0.00    +0.000 N 
ATOM     13  O   UNL     1      43.251   3.412  10.852  0.00  0.00    +0.000 OA
ATOM     14  H   UNL     1      44.599   5.050   8.481  0.00  0.00    +0.000 HD
ATOM     15  H   UNL     1      43.391   3.814   8.450  0.00  0.00    +0.000 HD
ENDBRANCH   7  11
ENDBRANCH   1   2
BRANCH   1  19
ATOM     16  C   UNL     1      49.830   4.520  17.889  0.00  0.00    +0.000 C 
ATOM     17  C   UNL     1      48.768   3.893  16.958  0.00  0.00    +0.000 C 
ATOM     18  C   UNL     1      47.891   4.915  16.247  0.00  0.00    +0.000 C 
ATOM     19  C   UNL     1      48.689   5.965  15.464  0.00  0.00    +0.000 C 
ATOM     20  C   UNL     1      49.818   6.573  16.319  0.00  0.00    +0.000 C 
ATOM     21  C   UNL     1      50.664   5.529  17.054  0.00  0.00    +0.000 C 
BRANCH  16  22
ATOM     22  C   UNL     1      50.796   3.412  18.401  0.00  0.00    +0.000 C 
BRANCH  22  23
ATOM     23  N   UNL     1      51.896   3.927  19.220  0.00  0.00    +0.000 NA
ATOM     24  H   UNL     1      51.970   3.365  20.069  0.00  0.00    +0.000 HD
ATOM     25  H   UNL     1      51.670   4.868  19.544  0.00  0.00    +0.000 HD
ENDBRANCH  22  23
ENDBRANCH  16  22
BRANCH  16  26
ATOM     26  C   UNL     1      49.145   5.230  19.086  0.00  0.00    +0.000 C 
BRANCH  26  27
ATOM     27  O   UNL     1      50.024   6.136  19.743  0.00  0.00    +0.000 OA
ATOM     28  H   UNL     1      50.889   5.687  19.788  0.00  0.00    +0.000 HD
ENDBRANCH  26  27
ENDBRANCH  16  26
ENDBRANCH   1  19
TORSDOF 7
ENDMDL
