MODEL 1
REMARK VINA RESULT:    -8.290      0.000      0.000
REMARK INTER + INTRA:         -10.387
REMARK INTER:                 -10.471
REMARK INTRA:                   0.085
REMARK UNBOUND:                 0.085
REMARK  Name = 
REMARK  5 active torsions:
REMARK  status: ('A' for Active; 'I' for Inactive)
REMARK    1  A    between atoms: C_2  and  C_3
REMARK    2  A    between atoms: N_7  and  C_8
REMARK    3  A    between atoms: C_8  and  C_9
REMARK    4  A    between atoms: C_11  and  C_12
REMARK    5  A    between atoms: C_25  and  N_26
REMARK                            x       y       z     vdW  Elec       q    Type
REMARK                         _______ _______ _______ _____ _____    ______ ____
ROOT
ATOM      1  C   UNL     1      44.248   4.072  11.270  0.00  0.00    +0.000 C 
ATOM      2  C   UNL     1      42.810   4.378  11.636  0.00  0.00    +0.000 C 
ATOM      3  C   UNL     1      43.487   5.225  10.611  0.00  0.00    +0.000 C 
ENDROOT
BRANCH   1   8
ATOM      4  C   UNL     1      46.876   2.445   7.195  0.00  0.00    +0.000 A 
ATOM      5  N   UNL     1      46.603   3.727   7.560  0.00  0.00    +0.000 NA
ATOM      6  C   UNL     1      45.822   3.857   8.667  0.00  0.00    +0.000 A 
ATOM      7  C   UNL     1      45.349   2.770   9.402  0.00  0.00    +0.000 A 
ATOM      8  N   UNL     1      44.508   2.852  10.508  0.00  0.00    +0.000 N 
ATOM      9  N   UNL     1      45.671   1.506   9.036  0.00  0.00    +0.000 NA
ATOM     10  C   UNL     1      46.430   1.344   7.928  0.00  0.00    +0.000 A 
ATOM     11  H   UNL     1      44.376   1.934  10.915  0.00  0.00    +0.000 HD
BRANCH  10  12
ATOM     12  N   UNL     1      46.616   0.012   7.556  0.00  0.00    +0.000 N 
ATOM     13  H   UNL     1      47.097   0.005   6.659  0.00  0.00    +0.000 HD
ATOM     14  H   UNL     1      45.774  -0.550   7.556  0.00  0.00    +0.000 HD
ENDBRANCH  10  12
BRANCH   4  16
ATOM     15  N   UNL     1      48.309   2.122   5.054  0.00  0.00    +0.000 NA
ATOM     16  C   UNL     1      47.658   2.282   6.001  0.00  0.00    +0.000 C 
ENDBRANCH   4  16
ENDBRANCH   1   8
BRANCH   1  17
ATOM     17  C   UNL     1      45.415   4.575  12.123  0.00  0.00    +0.000 A 
ATOM     18  C   UNL     1      46.027   5.786  11.773  0.00  0.00    +0.000 A 
ATOM     19  C   UNL     1      46.894   6.448  12.651  0.00  0.00    +0.000 A 
ATOM     20  C   UNL     1      47.180   5.791  13.851  0.00  0.00    +0.000 A 
ATOM     21  C   UNL     1      46.596   4.558  14.107  0.00  0.00    +0.000 A 
ATOM     22  N   UNL     1      45.729   3.942  13.277  0.00  0.00    +0.000 NA
BRANCH  19  23
ATOM     23  C   UNL     1      47.377   7.811  12.338  0.00  0.00    +0.000 A 
ATOM     24  C   UNL     1      48.658   8.033  11.804  0.00  0.00    +0.000 A 
ATOM     25  C   UNL     1      49.055   9.311  11.409  0.00  0.00    +0.000 A 
ATOM     26  C   UNL     1      48.168  10.355  11.581  0.00  0.00    +0.000 A 
ATOM     27  N   UNL     1      46.938  10.207  12.106  0.00  0.00    +0.000 NA
ATOM     28  C   UNL     1      46.572   8.951  12.463  0.00  0.00    +0.000 A 
ATOM     29  F   UNL     1      45.318   8.825  12.928  0.00  0.00    +0.000 F 
ENDBRANCH  19  23
ENDBRANCH   1  17
TORSDOF 5
ENDMDL
MODEL 2
REMARK VINA RESULT:    -8.117      2.175      3.731
REMARK INTER + INTRA:         -10.167
REMARK INTER:                 -10.291
REMARK INTRA:                   0.123
REMARK UNBOUND:                 0.085
REMARK  Name = 
REMARK  5 active torsions:
REMARK  status: ('A' for Active; 'I' for Inactive)
REMARK    1  A    between atoms: C_2  and  C_3
REMARK    2  A    between atoms: N_7  and  C_8
REMARK    3  A    between atoms: C_8  and  C_9
REMARK    4  A    between atoms: C_11  and  C_12
REMARK    5  A    between atoms: C_25  and  N_26
REMARK                            x       y       z     vdW  Elec       q    Type
REMARK                         _______ _______ _______ _____ _____    ______ ____
ROOT
ATOM      1  C   UNL     1      44.106   4.828  11.826  0.00  0.00    +0.000 C 
ATOM      2  C   UNL     1      42.742   5.040  12.449  0.00  0.00    +0.000 C 
ATOM      3  C   UNL     1      43.129   5.866  11.268  0.00  0.00    +0.000 C 
ENDROOT
BRANCH   1   8
ATOM      4  C   UNL     1      46.200   3.123   7.481  0.00  0.00    +0.000 A 
ATOM      5  N   UNL     1      45.899   4.406   7.821  0.00  0.00    +0.000 NA
ATOM      6  C   UNL     1      45.286   4.554   9.026  0.00  0.00    +0.000 A 
ATOM      7  C   UNL     1      45.001   3.487   9.878  0.00  0.00    +0.000 A 
ATOM      8  N   UNL     1      44.332   3.583  11.093  0.00  0.00    +0.000 N 
ATOM      9  N   UNL     1      45.350   2.225   9.529  0.00  0.00    +0.000 NA
ATOM     10  C   UNL     1      45.943   2.043   8.327  0.00  0.00    +0.000 A 
ATOM     11  H   UNL     1      44.324   2.684  11.560  0.00  0.00    +0.000 HD
BRANCH  10  12
ATOM     12  N   UNL     1      46.160   0.704   7.996  0.00  0.00    +0.000 N 
ATOM     13  H   UNL     1      45.261   0.294   7.755  0.00  0.00    +0.000 HD
ATOM     14  H   UNL     1      46.662   0.172   8.695  0.00  0.00    +0.000 HD
ENDBRANCH  10  12
BRANCH   4  16
ATOM     15  N   UNL     1      47.324   2.775   5.167  0.00  0.00    +0.000 NA
ATOM     16  C   UNL     1      46.804   2.938   6.191  0.00  0.00    +0.000 C 
ENDBRANCH   4  16
ENDBRANCH   1   8
BRANCH   1  17
ATOM     17  C   UNL     1      45.362   5.484  12.407  0.00  0.00    +0.000 A 
ATOM     18  C   UNL     1      45.816   5.063  13.663  0.00  0.00    +0.000 A 
ATOM     19  C   UNL     1      47.094   5.399  14.128  0.00  0.00    +0.000 A 
ATOM     20  C   UNL     1      47.847   6.245  13.311  0.00  0.00    +0.000 A 
ATOM     21  C   UNL     1      47.311   6.685  12.110  0.00  0.00    +0.000 A 
ATOM     22  N   UNL     1      46.096   6.327  11.645  0.00  0.00    +0.000 NA
BRANCH  19  23
ATOM     23  C   UNL     1      47.620   4.789  15.370  0.00  0.00    +0.000 A 
ATOM     24  C   UNL     1      47.520   3.408  15.612  0.00  0.00    +0.000 A 
ATOM     25  C   UNL     1      48.120   2.834  16.733  0.00  0.00    +0.000 A 
ATOM     26  C   UNL     1      48.791   3.661  17.612  0.00  0.00    +0.000 A 
ATOM     27  N   UNL     1      48.901   4.992  17.444  0.00  0.00    +0.000 NA
ATOM     28  C   UNL     1      48.325   5.518  16.337  0.00  0.00    +0.000 A 
ATOM     29  F   UNL     1      48.503   6.839  16.166  0.00  0.00    +0.000 F 
ENDBRANCH  19  23
ENDBRANCH   1  17
TORSDOF 5
ENDMDL
MODEL 3
REMARK VINA RESULT:    -7.720      2.623      7.424
REMARK INTER + INTRA:          -9.667
REMARK INTER:                  -9.232
REMARK INTRA:                  -0.435
REMARK UNBOUND:                 0.085
REMARK  Name = 
REMARK  5 active torsions:
REMARK  status: ('A' for Active; 'I' for Inactive)
REMARK    1  A    between atoms: C_2  and  C_3
REMARK    2  A    between atoms: N_7  and  C_8
REMARK    3  A    between atoms: C_8  and  C_9
REMARK    4  A    between atoms: C_11  and  C_12
REMARK    5  A    between atoms: C_25  and  N_26
REMARK                            x       y       z     vdW  Elec       q    Type
REMARK                         _______ _______ _______ _____ _____    ______ ____
ROOT
ATOM      1  C   UNL     1      48.620   7.832  12.528  0.00  0.00    +0.000 C 
ATOM      2  C   UNL     1      49.813   7.455  11.675  0.00  0.00    +0.000 C 
ATOM      3  C   UNL     1      49.436   8.894  11.787  0.00  0.00    +0.000 C 
ENDROOT
BRANCH   1   8
ATOM      4  C   UNL     1      47.665   4.513  16.301  0.00  0.00    +0.000 A 
ATOM      5  N   UNL     1      47.204   4.484  15.020  0.00  0.00    +0.000 NA
ATOM      6  C   UNL     1      47.575   5.542  14.250  0.00  0.00    +0.000 A 
ATOM      7  C   UNL     1      48.391   6.576  14.711  0.00  0.00    +0.000 A 
ATOM      8  N   UNL     1      48.755   7.701  13.978  0.00  0.00    +0.000 N 
ATOM      9  N   UNL     1      48.867   6.556  15.979  0.00  0.00    +0.000 NA
ATOM     10  C   UNL     1      48.498   5.527  16.776  0.00  0.00    +0.000 A 
ATOM     11  H   UNL     1      49.417   8.261  14.502  0.00  0.00    +0.000 HD
BRANCH  10  12
ATOM     12  N   UNL     1      48.935   5.644  18.096  0.00  0.00    +0.000 N 
ATOM     13  H   UNL     1      49.944   5.774  18.079  0.00  0.00    +0.000 HD
ATOM     14  H   UNL     1      48.646   4.890  18.706  0.00  0.00    +0.000 HD
ENDBRANCH  10  12
BRANCH   4  16
ATOM     15  N   UNL     1      46.868   2.562  17.817  0.00  0.00    +0.000 NA
ATOM     16  C   UNL     1      47.245   3.430  17.146  0.00  0.00    +0.000 C 
ENDBRANCH   4  16
ENDBRANCH   1   8
BRANCH   1  17
ATOM     17  C   UNL     1      47.190   7.737  11.990  0.00  0.00    +0.000 A 
ATOM     18  C   UNL     1      46.846   6.638  11.194  0.00  0.00    +0.000 A 
ATOM     19  C   UNL     1      45.510   6.332  10.907  0.00  0.00    +0.000 A 
ATOM     20  C   UNL     1      44.553   7.231  11.384  0.00  0.00    +0.000 A 
ATOM     21  C   UNL     1      44.965   8.342  12.107  0.00  0.00    +0.000 A 
ATOM     22  N   UNL     1      46.249   8.612  12.417  0.00  0.00    +0.000 NA
BRANCH  19  23
ATOM     23  C   UNL     1      45.164   5.065  10.225  0.00  0.00    +0.000 A 
ATOM     24  C   UNL     1      45.584   4.797   8.911  0.00  0.00    +0.000 A 
ATOM     25  C   UNL     1      45.346   3.554   8.323  0.00  0.00    +0.000 A 
ATOM     26  C   UNL     1      44.664   2.604   9.057  0.00  0.00    +0.000 A 
ATOM     27  N   UNL     1      44.219   2.809  10.310  0.00  0.00    +0.000 NA
ATOM     28  C   UNL     1      44.481   4.020  10.861  0.00  0.00    +0.000 A 
ATOM     29  F   UNL     1      44.077   4.174  12.133  0.00  0.00    +0.000 F 
ENDBRANCH  19  23
ENDBRANCH   1  17
TORSDOF 5
ENDMDL
MODEL 4
REMARK VINA RESULT:    -7.481      3.164      7.719
REMARK INTER + INTRA:          -9.365
REMARK INTER:                 -10.122
REMARK INTRA:                   0.757
REMARK UNBOUND:                 0.085
REMARK  Name = 
REMARK  5 active torsions:
REMARK  status: ('A' for Active; 'I' for Inactive)
REMARK    1  A    between atoms: C_2  and  C_3
REMARK    2  A    between atoms: N_7  and  C_8
REMARK    3  A    between atoms: C_8  and  C_9
REMARK    4  A    between atoms: C_11  and  C_12
REMARK    5  A    between atoms: C_25  and  N_26
REMARK                            x       y       z     vdW  Elec       q    Type
REMARK                         _______ _______ _______ _____ _____    ______ ____
ROOT
ATOM      1  C   UNL     1      45.602   4.844  12.541  0.00  0.00    +0.000 C 
ATOM      2  C   UNL     1      46.420   6.063  12.170  0.00  0.00    +0.000 C 
ATOM      3  C   UNL     1      44.994   6.248  12.567  0.00  0.00    +0.000 C 
ENDROOT
BRANCH   1   8
ATOM      4  C   UNL     1      48.641   5.336  16.626  0.00  0.00    +0.000 A 
ATOM      5  N   UNL     1      48.719   5.995  15.438  0.00  0.00    +0.000 NA
ATOM      6  C   UNL     1      47.807   5.610  14.505  0.00  0.00    +0.000 A 
ATOM      7  C   UNL     1      46.838   4.633  14.737  0.00  0.00    +0.000 A 
ATOM      8  N   UNL     1      45.920   4.172  13.800  0.00  0.00    +0.000 N 
ATOM      9  N   UNL     1      46.761   4.024  15.945  0.00  0.00    +0.000 NA
ATOM     10  C   UNL     1      47.667   4.371  16.887  0.00  0.00    +0.000 A 
ATOM     11  H   UNL     1      45.272   3.526  14.234  0.00  0.00    +0.000 HD
BRANCH  10  12
ATOM     12  N   UNL     1      47.591   3.613  18.056  0.00  0.00    +0.000 N 
ATOM     13  H   UNL     1      48.496   3.172  18.200  0.00  0.00    +0.000 HD
ATOM     14  H   UNL     1      46.823   2.955  18.085  0.00  0.00    +0.000 HD
ENDBRANCH  10  12
BRANCH   4  16
ATOM     15  N   UNL     1      50.406   5.951  18.428  0.00  0.00    +0.000 NA
ATOM     16  C   UNL     1      49.625   5.692  17.610  0.00  0.00    +0.000 C 
ENDBRANCH   4  16
ENDBRANCH   1   8
BRANCH   1  17
ATOM     17  C   UNL     1      44.951   3.962  11.472  0.00  0.00    +0.000 A 
ATOM     18  C   UNL     1      45.559   3.877  10.213  0.00  0.00    +0.000 A 
ATOM     19  C   UNL     1      45.196   2.888   9.291  0.00  0.00    +0.000 A 
ATOM     20  C   UNL     1      44.139   2.053   9.663  0.00  0.00    +0.000 A 
ATOM     21  C   UNL     1      43.531   2.235  10.897  0.00  0.00    +0.000 A 
ATOM     22  N   UNL     1      43.910   3.162  11.800  0.00  0.00    +0.000 NA
BRANCH  19  23
ATOM     23  C   UNL     1      45.979   2.701   8.049  0.00  0.00    +0.000 A 
ATOM     24  C   UNL     1      46.314   3.786   7.220  0.00  0.00    +0.000 A 
ATOM     25  C   UNL     1      47.146   3.609   6.114  0.00  0.00    +0.000 A 
ATOM     26  C   UNL     1      47.611   2.338   5.840  0.00  0.00    +0.000 A 
ATOM     27  N   UNL     1      47.307   1.259   6.585  0.00  0.00    +0.000 NA
ATOM     28  C   UNL     1      46.512   1.464   7.663  0.00  0.00    +0.000 A 
ATOM     29  F   UNL     1      46.275   0.379   8.421  0.00  0.00    +0.000 F 
ENDBRANCH  19  23
ENDBRANCH   1  17
TORSDOF 5
ENDMDL
MODEL 5
REMARK VINA RESULT:    -7.016      2.908      7.275
REMARK INTER + INTRA:          -8.777
REMARK INTER:                  -9.146
REMARK INTRA:                   0.370
REMARK UNBOUND:                 0.085
REMARK  Name = 
REMARK  5 active torsions:
REMARK  status: ('A' for Active; 'I' for Inactive)
REMARK    1  A    between atoms: C_2  and  C_3
REMARK    2  A    between atoms: N_7  and  C_8
REMARK    3  A    between atoms: C_8  and  C_9
REMARK    4  A    between atoms: C_11  and  C_12
REMARK    5  A    between atoms: C_25  and  N_26
REMARK                            x       y       z     vdW  Elec       q    Type
REMARK                         _______ _______ _______ _____ _____    ______ ____
ROOT
ATOM      1  C   UNL     1      45.175   5.835  11.662  0.00  0.00    +0.000 C 
ATOM      2  C   UNL     1      45.345   7.183  10.993  0.00  0.00    +0.000 C 
ATOM      3  C   UNL     1      44.069   6.893  11.711  0.00  0.00    +0.000 C 
ENDROOT
BRANCH   1   8
ATOM      4  C   UNL     1      49.501   7.327  13.947  0.00  0.00    +0.000 A 
ATOM      5  N   UNL     1      49.099   7.571  12.670  0.00  0.00    +0.000 NA
ATOM      6  C   UNL     1      47.921   6.991  12.316  0.00  0.00    +0.000 A 
ATOM      7  C   UNL     1      47.152   6.221  13.190  0.00  0.00    +0.000 A 
ATOM      8  N   UNL     1      45.970   5.568  12.860  0.00  0.00    +0.000 N 
ATOM      9  N   UNL     1      47.560   6.030  14.468  0.00  0.00    +0.000 NA
ATOM     10  C   UNL     1      48.738   6.577  14.844  0.00  0.00    +0.000 A 
ATOM     11  H   UNL     1      45.560   5.148  13.685  0.00  0.00    +0.000 HD
BRANCH  10  12
ATOM     12  N   UNL     1      49.139   6.234  16.136  0.00  0.00    +0.000 N 
ATOM     13  H   UNL     1      48.318   5.904  16.638  0.00  0.00    +0.000 HD
ATOM     14  H   UNL     1      49.639   6.961  16.631  0.00  0.00    +0.000 HD
ENDBRANCH  10  12
BRANCH   4  16
ATOM     15  N   UNL     1      51.800   8.308  14.649  0.00  0.00    +0.000 NA
ATOM     16  C   UNL     1      50.767   7.889  14.327  0.00  0.00    +0.000 C 
ENDBRANCH   4  16
ENDBRANCH   1   8
BRANCH   1  17
ATOM     17  C   UNL     1      44.743   4.597  10.871  0.00  0.00    +0.000 A 
ATOM     18  C   UNL     1      45.364   4.339   9.643  0.00  0.00    +0.000 A 
ATOM     19  C   UNL     1      45.236   3.098   9.006  0.00  0.00    +0.000 A 
ATOM     20  C   UNL     1      44.387   2.172   9.619  0.00  0.00    +0.000 A 
ATOM     21  C   UNL     1      43.744   2.517  10.800  0.00  0.00    +0.000 A 
ATOM     22  N   UNL     1      43.902   3.698  11.433  0.00  0.00    +0.000 NA
BRANCH  19  23
ATOM     23  C   UNL     1      46.049   2.784   7.811  0.00  0.00    +0.000 A 
ATOM     24  C   UNL     1      46.395   3.775   6.875  0.00  0.00    +0.000 A 
ATOM     25  C   UNL     1      47.254   3.487   5.814  0.00  0.00    +0.000 A 
ATOM     26  C   UNL     1      47.736   2.199   5.693  0.00  0.00    +0.000 A 
ATOM     27  N   UNL     1      47.424   1.204   6.545  0.00  0.00    +0.000 NA
ATOM     28  C   UNL     1      46.601   1.518   7.576  0.00  0.00    +0.000 A 
ATOM     29  F   UNL     1      46.356   0.521   8.442  0.00  0.00    +0.000 F 
ENDBRANCH  19  23
ENDBRANCH   1  17
TORSDOF 5
ENDMDL
MODEL 6
REMARK VINA RESULT:    -6.815      2.031      6.866
REMARK INTER + INTRA:          -8.523
REMARK INTER:                  -8.840
REMARK INTRA:                   0.317
REMARK UNBOUND:                 0.085
REMARK  Name = 
REMARK  5 active torsions:
REMARK  status: ('A' for Active; 'I' for Inactive)
REMARK    1  A    between atoms: C_2  and  C_3
REMARK    2  A    between atoms: N_7  and  C_8
REMARK    3  A    between atoms: C_8  and  C_9
REMARK    4  A    between atoms: C_11  and  C_12
REMARK    5  A    between atoms: C_25  and  N_26
REMARK                            x       y       z     vdW  Elec       q    Type
REMARK                         _______ _______ _______ _____ _____    ______ ____
ROOT
ATOM      1  C   UNL     1      45.933   4.826  13.557  0.00  0.00    +0.000 C 
ATOM      2  C   UNL     1      46.348   4.101  14.820  0.00  0.00    +0.000 C 
ATOM      3  C   UNL     1      47.316   4.184  13.687  0.00  0.00    +0.000 C 
ENDROOT
BRANCH   1   8
ATOM      4  C   UNL     1      48.178   9.074  11.801  0.00  0.00    +0.000 A 
ATOM      5  N   UNL     1      48.661   7.801  11.786  0.00  0.00    +0.000 NA
ATOM      6  C   UNL     1      47.864   6.876  12.385  0.00  0.00    +0.000 A 
ATOM      7  C   UNL     1      46.629   7.182  12.955  0.00  0.00    +0.000 A 
ATOM      8  N   UNL     1      45.804   6.281  13.622  0.00  0.00    +0.000 N 
ATOM      9  N   UNL     1      46.157   8.451  12.918  0.00  0.00    +0.000 NA
ATOM     10  C   UNL     1      46.935   9.398  12.347  0.00  0.00    +0.000 A 
ATOM     11  H   UNL     1      44.928   6.725  13.869  0.00  0.00    +0.000 HD
BRANCH  10  12
ATOM     12  N   UNL     1      46.429  10.694  12.457  0.00  0.00    +0.000 N 
ATOM     13  H   UNL     1      47.218  11.335  12.481  0.00  0.00    +0.000 HD
ATOM     14  H   UNL     1      45.784  10.833  13.224  0.00  0.00    +0.000 HD
ENDBRANCH  10  12
BRANCH   4  16
ATOM     15  N   UNL     1      49.686  10.886  10.713  0.00  0.00    +0.000 NA
ATOM     16  C   UNL     1      49.025  10.076  11.217  0.00  0.00    +0.000 C 
ENDBRANCH   4  16
ENDBRANCH   1   8
BRANCH   1  17
ATOM     17  C   UNL     1      45.087   4.140  12.481  0.00  0.00    +0.000 A 
ATOM     18  C   UNL     1      45.599   4.058  11.179  0.00  0.00    +0.000 A 
ATOM     19  C   UNL     1      45.029   3.210  10.222  0.00  0.00    +0.000 A 
ATOM     20  C   UNL     1      43.876   2.523  10.611  0.00  0.00    +0.000 A 
ATOM     21  C   UNL     1      43.378   2.703  11.894  0.00  0.00    +0.000 A 
ATOM     22  N   UNL     1      43.953   3.489  12.828  0.00  0.00    +0.000 NA
BRANCH  19  23
ATOM     23  C   UNL     1      45.697   2.999   8.918  0.00  0.00    +0.000 A 
ATOM     24  C   UNL     1      45.996   1.710   8.443  0.00  0.00    +0.000 A 
ATOM     25  C   UNL     1      46.523   1.524   7.165  0.00  0.00    +0.000 A 
ATOM     26  C   UNL     1      46.768   2.640   6.389  0.00  0.00    +0.000 A 
ATOM     27  N   UNL     1      46.523   3.899   6.798  0.00  0.00    +0.000 NA
ATOM     28  C   UNL     1      45.993   4.047   8.037  0.00  0.00    +0.000 A 
ATOM     29  F   UNL     1      45.704   5.310   8.393  0.00  0.00    +0.000 F 
ENDBRANCH  19  23
ENDBRANCH   1  17
TORSDOF 5
ENDMDL
MODEL 7
REMARK VINA RESULT:    -6.668      5.097      8.407
REMARK INTER + INTRA:          -8.337
REMARK INTER:                  -8.927
REMARK INTRA:                   0.590
REMARK UNBOUND:                 0.085
REMARK  Name = 
REMARK  5 active torsions:
REMARK  status: ('A' for Active; 'I' for Inactive)
REMARK    1  A    between atoms: C_2  and  C_3
REMARK    2  A    between atoms: N_7  and  C_8
REMARK    3  A    between atoms: C_8  and  C_9
REMARK    4  A    between atoms: C_11  and  C_12
REMARK    5  A    between atoms: C_25  and  N_26
REMARK                            x       y       z     vdW  Elec       q    Type
REMARK                         _______ _______ _______ _____ _____    ______ ____
ROOT
ATOM      1  C   UNL     1      48.102   4.736  17.093  0.00  0.00    +0.000 C 
ATOM      2  C   UNL     1      46.953   4.888  18.068  0.00  0.00    +0.000 C 
ATOM      3  C   UNL     1      47.181   3.560  17.427  0.00  0.00    +0.000 C 
ENDROOT
BRANCH   1   8
ATOM      4  C   UNL     1      52.224   1.748  17.587  0.00  0.00    +0.000 A 
ATOM      5  N   UNL     1      50.959   1.383  17.245  0.00  0.00    +0.000 NA
ATOM      6  C   UNL     1      50.045   2.391  17.254  0.00  0.00    +0.000 A 
ATOM      7  C   UNL     1      50.366   3.713  17.562  0.00  0.00    +0.000 A 
ATOM      8  N   UNL     1      49.460   4.766  17.634  0.00  0.00    +0.000 N 
ATOM      9  N   UNL     1      51.644   4.053  17.860  0.00  0.00    +0.000 NA
ATOM     10  C   UNL     1      52.571   3.069  17.879  0.00  0.00    +0.000 A 
ATOM     11  H   UNL     1      49.949   5.638  17.792  0.00  0.00    +0.000 HD
BRANCH  10  12
ATOM     12  N   UNL     1      53.833   3.483  18.308  0.00  0.00    +0.000 N 
ATOM     13  H   UNL     1      53.711   4.000  19.176  0.00  0.00    +0.000 HD
ATOM     14  H   UNL     1      54.369   3.992  17.618  0.00  0.00    +0.000 HD
ENDBRANCH  10  12
BRANCH   4  16
ATOM     15  N   UNL     1      53.950  -0.189  17.664  0.00  0.00    +0.000 NA
ATOM     16  C   UNL     1      53.195   0.691  17.631  0.00  0.00    +0.000 C 
ENDBRANCH   4  16
ENDBRANCH   1   8
BRANCH   1  17
ATOM     17  C   UNL     1      47.970   5.163  15.628  0.00  0.00    +0.000 A 
ATOM     18  C   UNL     1      46.879   4.690  14.889  0.00  0.00    +0.000 A 
ATOM     19  C   UNL     1      46.534   5.252  13.654  0.00  0.00    +0.000 A 
ATOM     20  C   UNL     1      47.388   6.244  13.165  0.00  0.00    +0.000 A 
ATOM     21  C   UNL     1      48.494   6.618  13.914  0.00  0.00    +0.000 A 
ATOM     22  N   UNL     1      48.801   6.104  15.123  0.00  0.00    +0.000 NA
BRANCH  19  23
ATOM     23  C   UNL     1      45.273   4.865  12.984  0.00  0.00    +0.000 A 
ATOM     24  C   UNL     1      44.240   5.793  12.764  0.00  0.00    +0.000 A 
ATOM     25  C   UNL     1      43.106   5.440  12.032  0.00  0.00    +0.000 A 
ATOM     26  C   UNL     1      43.012   4.149  11.552  0.00  0.00    +0.000 A 
ATOM     27  N   UNL     1      43.957   3.211  11.749  0.00  0.00    +0.000 NA
ATOM     28  C   UNL     1      45.056   3.588  12.448  0.00  0.00    +0.000 A 
ATOM     29  F   UNL     1      46.008   2.649  12.576  0.00  0.00    +0.000 F 
ENDBRANCH  19  23
ENDBRANCH   1  17
TORSDOF 5
ENDMDL
MODEL 8
REMARK VINA RESULT:    -6.595      3.412      8.210
REMARK INTER + INTRA:          -8.246
REMARK INTER:                  -8.190
REMARK INTRA:                  -0.056
REMARK UNBOUND:                 0.085
REMARK  Name = 
REMARK  5 active torsions:
REMARK  status: ('A' for Active; 'I' for Inactive)
REMARK    1  A    between atoms: C_2  and  C_3
REMARK    2  A    between atoms: N_7  and  C_8
REMARK    3  A    between atoms: C_8  and  C_9
REMARK    4  A    between atoms: C_11  and  C_12
REMARK    5  A    between atoms: C_25  and  N_26
REMARK                            x       y       z     vdW  Elec       q    Type
REMARK                         _______ _______ _______ _____ _____    ______ ____
ROOT
ATOM      1  C   UNL     1      48.995   7.744  12.465  0.00  0.00    +0.000 C 
ATOM      2  C   UNL     1      50.049   8.092  11.434  0.00  0.00    +0.000 C 
ATOM      3  C   UNL     1      49.558   9.163  12.350  0.00  0.00    +0.000 C 
ENDROOT
BRANCH   1   8
ATOM      4  C   UNL     1      48.687   7.535  17.567  0.00  0.00    +0.000 A 
ATOM      5  N   UNL     1      48.429   8.595  16.753  0.00  0.00    +0.000 NA
ATOM      6  C   UNL     1      48.659   8.375  15.430  0.00  0.00    +0.000 A 
ATOM      7  C   UNL     1      49.101   7.154  14.922  0.00  0.00    +0.000 A 
ATOM      8  N   UNL     1      49.398   6.898  13.587  0.00  0.00    +0.000 N 
ATOM      9  N   UNL     1      49.310   6.105  15.753  0.00  0.00    +0.000 NA
ATOM     10  C   UNL     1      49.110   6.298  17.077  0.00  0.00    +0.000 A 
ATOM     11  H   UNL     1      49.617   5.917  13.459  0.00  0.00    +0.000 HD
BRANCH  10  12
ATOM     12  N   UNL     1      49.461   5.206  17.872  0.00  0.00    +0.000 N 
ATOM     13  H   UNL     1      49.958   5.562  18.685  0.00  0.00    +0.000 HD
ATOM     14  H   UNL     1      49.968   4.476  17.388  0.00  0.00    +0.000 HD
ENDBRANCH  10  12
BRANCH   4  16
ATOM     15  N   UNL     1      48.381   7.957  20.110  0.00  0.00    +0.000 NA
ATOM     16  C   UNL     1      48.498   7.760  18.973  0.00  0.00    +0.000 C 
ENDBRANCH   4  16
ENDBRANCH   1   8
BRANCH   1  17
ATOM     17  C   UNL     1      47.508   7.692  12.104  0.00  0.00    +0.000 A 
ATOM     18  C   UNL     1      47.051   6.635  11.305  0.00  0.00    +0.000 A 
ATOM     19  C   UNL     1      45.685   6.359  11.172  0.00  0.00    +0.000 A 
ATOM     20  C   UNL     1      44.809   7.245  11.803  0.00  0.00    +0.000 A 
ATOM     21  C   UNL     1      45.325   8.315  12.521  0.00  0.00    +0.000 A 
ATOM     22  N   UNL     1      46.642   8.555  12.683  0.00  0.00    +0.000 NA
BRANCH  19  23
ATOM     23  C   UNL     1      45.236   5.130  10.480  0.00  0.00    +0.000 A 
ATOM     24  C   UNL     1      45.500   4.914   9.116  0.00  0.00    +0.000 A 
ATOM     25  C   UNL     1      45.169   3.704   8.507  0.00  0.00    +0.000 A 
ATOM     26  C   UNL     1      44.552   2.733   9.271  0.00  0.00    +0.000 A 
ATOM     27  N   UNL     1      44.255   2.890  10.575  0.00  0.00    +0.000 NA
ATOM     28  C   UNL     1      44.605   4.070  11.144  0.00  0.00    +0.000 A 
ATOM     29  F   UNL     1      44.349   4.174  12.459  0.00  0.00    +0.000 F 
ENDBRANCH  19  23
ENDBRANCH   1  17
TORSDOF 5
ENDMDL
MODEL 9
REMARK VINA RESULT:    -6.473      3.700      6.577
REMARK INTER + INTRA:          -8.091
REMARK INTER:                  -8.180
REMARK INTRA:                   0.089
REMARK UNBOUND:                 0.085
REMARK  Name = 
REMARK  5 active torsions:
REMARK  status: ('A' for Active; 'I' for Inactive)
REMARK    1  A    between atoms: C_2  and  C_3
REMARK    2  A    between atoms: N_7  and  C_8
REMARK    3  A    between atoms: C_8  and  C_9
REMARK    4  A    between atoms: C_11  and  C_12
REMARK    5  A    between atoms: C_25  and  N_26
REMARK                            x       y       z     vdW  Elec       q    Type
REMARK                         _______ _______ _______ _____ _____    ______ ____
ROOT
ATOM      1  C   UNL     1      48.196   8.381  12.710  0.00  0.00    +0.000 C 
ATOM      2  C   UNL     1      49.260   9.114  11.919  0.00  0.00    +0.000 C 
ATOM      3  C   UNL     1      49.344   7.629  12.033  0.00  0.00    +0.000 C 
ENDROOT
BRANCH   1   8
ATOM      4  C   UNL     1      44.480   5.001  11.748  0.00  0.00    +0.000 A 
ATOM      5  N   UNL     1      45.776   4.751  12.079  0.00  0.00    +0.000 NA
ATOM      6  C   UNL     1      46.559   5.856  12.216  0.00  0.00    +0.000 A 
ATOM      7  C   UNL     1      46.081   7.157  12.058  0.00  0.00    +0.000 A 
ATOM      8  N   UNL     1      46.852   8.313  12.138  0.00  0.00    +0.000 N 
ATOM      9  N   UNL     1      44.776   7.374  11.768  0.00  0.00    +0.000 NA
ATOM     10  C   UNL     1      43.977   6.295  11.606  0.00  0.00    +0.000 A 
ATOM     11  H   UNL     1      46.262   9.132  12.071  0.00  0.00    +0.000 HD
BRANCH  10  12
ATOM     12  N   UNL     1      42.680   6.603  11.194  0.00  0.00    +0.000 N 
ATOM     13  H   UNL     1      42.744   7.332  10.487  0.00  0.00    +0.000 HD
ATOM     14  H   UNL     1      42.041   6.836  11.943  0.00  0.00    +0.000 HD
ENDBRANCH  10  12
BRANCH   4  16
ATOM     15  N   UNL     1      43.004   2.893  11.404  0.00  0.00    +0.000 NA
ATOM     16  C   UNL     1      43.647   3.847  11.551  0.00  0.00    +0.000 C 
ENDBRANCH   4  16
ENDBRANCH   1   8
BRANCH   1  17
ATOM     17  C   UNL     1      48.266   8.272  14.235  0.00  0.00    +0.000 A 
ATOM     18  C   UNL     1      48.334   6.997  14.812  0.00  0.00    +0.000 A 
ATOM     19  C   UNL     1      48.685   6.821  16.156  0.00  0.00    +0.000 A 
ATOM     20  C   UNL     1      48.875   7.986  16.904  0.00  0.00    +0.000 A 
ATOM     21  C   UNL     1      48.723   9.220  16.290  0.00  0.00    +0.000 A 
ATOM     22  N   UNL     1      48.425   9.387  14.985  0.00  0.00    +0.000 NA
BRANCH  19  23
ATOM     23  C   UNL     1      48.933   5.464  16.691  0.00  0.00    +0.000 A 
ATOM     24  C   UNL     1      47.892   4.533  16.851  0.00  0.00    +0.000 A 
ATOM     25  C   UNL     1      48.159   3.223  17.250  0.00  0.00    +0.000 A 
ATOM     26  C   UNL     1      49.469   2.872  17.508  0.00  0.00    +0.000 A 
ATOM     27  N   UNL     1      50.504   3.724  17.394  0.00  0.00    +0.000 NA
ATOM     28  C   UNL     1      50.216   4.985  16.987  0.00  0.00    +0.000 A 
ATOM     29  F   UNL     1      51.276   5.794  16.823  0.00  0.00    +0.000 F 
ENDBRANCH  19  23
ENDBRANCH   1  17
TORSDOF 5
ENDMDL
