MODEL 1
REMARK VINA RESULT:    -8.425      0.000      0.000
REMARK INTER + INTRA:         -11.673
REMARK INTER:                 -10.888
REMARK INTRA:                  -0.785
REMARK UNBOUND:                -0.785
REMARK  Name = 
REMARK  7 active torsions:
REMARK  status: ('A' for Active; 'I' for Inactive)
REMARK    1  A    between atoms: C_1  and  C_2
REMARK    2  A    between atoms: C_2  and  N_3
REMARK    3  A    between atoms: C_2  and  C_17
REMARK    4  A    between atoms: C_4  and  C_6
REMARK    5  A    between atoms: N_12  and  C_13
REMARK    6  A    between atoms: C_20  and  O_21
REMARK    7  A    between atoms: O_21  and  C_22
REMARK                            x       y       z     vdW  Elec       q    Type
REMARK                         _______ _______ _______ _____ _____    ______ ____
ROOT
ATOM      1  C   UNL     1      45.667   8.091  13.003  0.00  0.00    +0.000 C 
ATOM      2  C   UNL     1      46.552   6.854  12.819  0.00  0.00    +0.000 C 
ENDROOT
BRANCH   2   3
ATOM      3  C   UNL     1      45.962   5.908  11.773  0.00  0.00    +0.000 A 
ATOM      4  C   UNL     1      45.383   4.697  12.163  0.00  0.00    +0.000 A 
ATOM      5  C   UNL     1      44.939   3.802  11.193  0.00  0.00    +0.000 A 
ATOM      6  C   UNL     1      45.019   4.155   9.851  0.00  0.00    +0.000 A 
ATOM      7  C   UNL     1      45.627   5.365   9.544  0.00  0.00    +0.000 A 
ATOM      8  N   UNL     1      46.099   6.243  10.466  0.00  0.00    +0.000 NA
BRANCH   6   9
ATOM      9  O   UNL     1      44.601   3.375   8.802  0.00  0.00    +0.000 OA
BRANCH   9  10
ATOM     10  C   UNL     1      45.529   2.785   7.972  0.00  0.00    +0.000 A 
ATOM     11  C   UNL     1      46.055   3.392   6.827  0.00  0.00    +0.000 A 
ATOM     12  C   UNL     1      46.968   2.703   6.026  0.00  0.00    +0.000 A 
ATOM     13  C   UNL     1      47.405   1.434   6.400  0.00  0.00    +0.000 A 
ATOM     14  C   UNL     1      46.936   0.855   7.579  0.00  0.00    +0.000 A 
ATOM     15  C   UNL     1      45.998   1.530   8.363  0.00  0.00    +0.000 A 
ENDBRANCH   9  10
ENDBRANCH   6   9
ENDBRANCH   2   3
BRANCH   2  16
ATOM     16  N   UNL     1      46.739   6.136  14.073  0.00  0.00    +0.000 N 
ATOM     17  C   UNL     1      47.947   5.933  14.675  0.00  0.00    +0.000 C 
ATOM     18  O   UNL     1      49.004   6.304  14.174  0.00  0.00    +0.000 OA
ATOM     19  H   UNL     1      45.897   5.844  14.553  0.00  0.00    +0.000 HD
BRANCH  17  20
ATOM     20  C   UNL     1      47.914   5.214  15.959  0.00  0.00    +0.000 A 
ATOM     21  C   UNL     1      47.472   3.899  15.994  0.00  0.00    +0.000 A 
ATOM     22  S   UNL     1      47.503   3.209  17.552  0.00  0.00    +0.000 S 
ATOM     23  C   UNL     1      48.143   4.634  18.231  0.00  0.00    +0.000 A 
ATOM     24  N   UNL     1      48.443   4.697  19.553  0.00  0.00    +0.000 NA
ATOM     25  C   UNL     1      48.942   5.827  19.937  0.00  0.00    +0.000 A 
ATOM     26  N   UNL     1      49.170   6.916  19.125  0.00  0.00    +0.000 N 
ATOM     27  C   UNL     1      49.713   8.144  19.667  0.00  0.00    +0.000 C 
ATOM     28  C   UNL     1      48.851   6.891  17.772  0.00  0.00    +0.000 A 
ATOM     29  O   UNL     1      49.007   7.867  17.042  0.00  0.00    +0.000 OA
ATOM     30  C   UNL     1      48.305   5.629  17.288  0.00  0.00    +0.000 A 
ENDBRANCH  17  20
ENDBRANCH   2  16
TORSDOF 5
ENDMDL
MODEL 2
REMARK VINA RESULT:    -7.900      3.199      4.089
REMARK INTER + INTRA:         -10.995
REMARK INTER:                  -9.962
REMARK INTRA:                  -1.032
REMARK UNBOUND:                -0.785
REMARK  Name = 
REMARK  7 active torsions:
REMARK  status: ('A' for Active; 'I' for Inactive)
REMARK    1  A    between atoms: C_1  and  C_2
REMARK    2  A    between atoms: C_2  and  N_3
REMARK    3  A    between atoms: C_2  and  C_17
REMARK    4  A    between atoms: C_4  and  C_6
REMARK    5  A    between atoms: N_12  and  C_13
REMARK    6  A    between atoms: C_20  and  O_21
REMARK    7  A    between atoms: O_21  and  C_22
REMARK                            x       y       z     vdW  Elec       q    Type
REMARK                         _______ _______ _______ _____ _____    ______ ____
ROOT
ATOM      1  C   UNL     1      46.770   4.635  14.690  0.00  0.00    +0.000 C 
ATOM      2  C   UNL     1      46.368   5.709  13.675  0.00  0.00    +0.000 C 
ENDROOT
BRANCH   2   3
ATOM      3  C   UNL     1      45.817   5.076  12.397  0.00  0.00    +0.000 A 
ATOM      4  C   UNL     1      45.230   3.808  12.433  0.00  0.00    +0.000 A 
ATOM      5  C   UNL     1      44.822   3.205  11.246  0.00  0.00    +0.000 A 
ATOM      6  C   UNL     1      44.945   3.900  10.049  0.00  0.00    +0.000 A 
ATOM      7  C   UNL     1      45.558   5.145  10.094  0.00  0.00    +0.000 A 
ATOM      8  N   UNL     1      45.996   5.745  11.230  0.00  0.00    +0.000 NA
BRANCH   6   9
ATOM      9  O   UNL     1      44.565   3.428   8.818  0.00  0.00    +0.000 OA
BRANCH   9  10
ATOM     10  C   UNL     1      45.494   2.830   7.994  0.00  0.00    +0.000 A 
ATOM     11  C   UNL     1      46.056   3.443   6.870  0.00  0.00    +0.000 A 
ATOM     12  C   UNL     1      46.967   2.747   6.075  0.00  0.00    +0.000 A 
ATOM     13  C   UNL     1      47.366   1.461   6.434  0.00  0.00    +0.000 A 
ATOM     14  C   UNL     1      46.861   0.873   7.593  0.00  0.00    +0.000 A 
ATOM     15  C   UNL     1      45.924   1.557   8.372  0.00  0.00    +0.000 A 
ENDBRANCH   9  10
ENDBRANCH   6   9
ENDBRANCH   2   3
BRANCH   2  16
ATOM     16  N   UNL     1      47.488   6.579  13.342  0.00  0.00    +0.000 N 
ATOM     17  C   UNL     1      47.433   7.943  13.337  0.00  0.00    +0.000 C 
ATOM     18  O   UNL     1      46.398   8.562  13.571  0.00  0.00    +0.000 OA
ATOM     19  H   UNL     1      48.379   6.124  13.183  0.00  0.00    +0.000 HD
BRANCH  17  20
ATOM     20  C   UNL     1      48.687   8.638  13.009  0.00  0.00    +0.000 A 
ATOM     21  C   UNL     1      48.686   9.625  12.033  0.00  0.00    +0.000 A 
ATOM     22  S   UNL     1      50.214  10.336  11.778  0.00  0.00    +0.000 S 
ATOM     23  C   UNL     1      50.926   9.373  12.989  0.00  0.00    +0.000 A 
ATOM     24  N   UNL     1      52.239   9.514  13.304  0.00  0.00    +0.000 NA
ATOM     25  C   UNL     1      52.649   8.740  14.255  0.00  0.00    +0.000 A 
ATOM     26  N   UNL     1      51.873   7.822  14.929  0.00  0.00    +0.000 N 
ATOM     27  C   UNL     1      52.443   6.987  15.964  0.00  0.00    +0.000 C 
ATOM     28  C   UNL     1      50.531   7.636  14.613  0.00  0.00    +0.000 A 
ATOM     29  O   UNL     1      49.835   6.793  15.173  0.00  0.00    +0.000 OA
ATOM     30  C   UNL     1      50.017   8.504  13.560  0.00  0.00    +0.000 A 
ENDBRANCH  17  20
ENDBRANCH   2  16
TORSDOF 5
ENDMDL
MODEL 3
REMARK VINA RESULT:    -7.645      1.637      2.430
REMARK INTER + INTRA:         -10.665
REMARK INTER:                  -9.483
REMARK INTRA:                  -1.182
REMARK UNBOUND:                -0.785
REMARK  Name = 
REMARK  7 active torsions:
REMARK  status: ('A' for Active; 'I' for Inactive)
REMARK    1  A    between atoms: C_1  and  C_2
REMARK    2  A    between atoms: C_2  and  N_3
REMARK    3  A    between atoms: C_2  and  C_17
REMARK    4  A    between atoms: C_4  and  C_6
REMARK    5  A    between atoms: N_12  and  C_13
REMARK    6  A    between atoms: C_20  and  O_21
REMARK    7  A    between atoms: O_21  and  C_22
REMARK                            x       y       z     vdW  Elec       q    Type
REMARK                         _______ _______ _______ _____ _____    ______ ____
ROOT
ATOM      1  C   UNL     1      47.672   9.197  13.992  0.00  0.00    +0.000 C 
ATOM      2  C   UNL     1      48.010   7.705  13.927  0.00  0.00    +0.000 C 
ENDROOT
BRANCH   2   3
ATOM      3  C   UNL     1      47.056   6.966  12.988  0.00  0.00    +0.000 A 
ATOM      4  C   UNL     1      46.224   7.681  12.122  0.00  0.00    +0.000 A 
ATOM      5  C   UNL     1      45.291   6.999  11.345  0.00  0.00    +0.000 A 
ATOM      6  C   UNL     1      45.245   5.611  11.393  0.00  0.00    +0.000 A 
ATOM      7  C   UNL     1      46.089   4.976  12.295  0.00  0.00    +0.000 A 
ATOM      8  N   UNL     1      46.985   5.615  13.090  0.00  0.00    +0.000 NA
BRANCH   6   9
ATOM      9  O   UNL     1      44.390   4.822  10.666  0.00  0.00    +0.000 OA
BRANCH   9  10
ATOM     10  C   UNL     1      44.894   3.946   9.728  0.00  0.00    +0.000 A 
ATOM     11  C   UNL     1      44.708   2.561   9.768  0.00  0.00    +0.000 A 
ATOM     12  C   UNL     1      45.285   1.749   8.791  0.00  0.00    +0.000 A 
ATOM     13  C   UNL     1      45.995   2.322   7.738  0.00  0.00    +0.000 A 
ATOM     14  C   UNL     1      46.123   3.708   7.657  0.00  0.00    +0.000 A 
ATOM     15  C   UNL     1      45.573   4.519   8.652  0.00  0.00    +0.000 A 
ENDBRANCH   9  10
ENDBRANCH   6   9
ENDBRANCH   2   3
BRANCH   2  16
ATOM     16  N   UNL     1      47.969   7.087  15.246  0.00  0.00    +0.000 N 
ATOM     17  C   UNL     1      49.063   6.626  15.919  0.00  0.00    +0.000 C 
ATOM     18  O   UNL     1      50.192   6.649  15.437  0.00  0.00    +0.000 OA
ATOM     19  H   UNL     1      47.068   7.079  15.710  0.00  0.00    +0.000 HD
BRANCH  17  20
ATOM     20  C   UNL     1      48.809   6.069  17.258  0.00  0.00    +0.000 A 
ATOM     21  C   UNL     1      49.106   4.737  17.511  0.00  0.00    +0.000 A 
ATOM     22  S   UNL     1      48.761   4.253  19.108  0.00  0.00    +0.000 S 
ATOM     23  C   UNL     1      48.235   5.816  19.529  0.00  0.00    +0.000 A 
ATOM     24  N   UNL     1      47.829   6.094  20.794  0.00  0.00    +0.000 NA
ATOM     25  C   UNL     1      47.476   7.322  20.987  0.00  0.00    +0.000 A 
ATOM     26  N   UNL     1      47.481   8.315  20.031  0.00  0.00    +0.000 N 
ATOM     27  C   UNL     1      47.041   9.656  20.352  0.00  0.00    +0.000 C 
ATOM     28  C   UNL     1      47.868   8.057  18.721  0.00  0.00    +0.000 A 
ATOM     29  O   UNL     1      47.837   8.918  17.845  0.00  0.00    +0.000 OA
ATOM     30  C   UNL     1      48.296   6.688  18.460  0.00  0.00    +0.000 A 
ENDBRANCH  17  20
ENDBRANCH   2  16
TORSDOF 5
ENDMDL
MODEL 4
REMARK VINA RESULT:    -7.375      3.104      4.564
REMARK INTER + INTRA:         -10.316
REMARK INTER:                  -9.211
REMARK INTRA:                  -1.106
REMARK UNBOUND:                -0.785
REMARK  Name = 
REMARK  7 active torsions:
REMARK  status: ('A' for Active; 'I' for Inactive)
REMARK    1  A    between atoms: C_1  and  C_2
REMARK    2  A    between atoms: C_2  and  N_3
REMARK    3  A    between atoms: C_2  and  C_17
REMARK    4  A    between atoms: C_4  and  C_6
REMARK    5  A    between atoms: N_12  and  C_13
REMARK    6  A    between atoms: C_20  and  O_21
REMARK    7  A    between atoms: O_21  and  C_22
REMARK                            x       y       z     vdW  Elec       q    Type
REMARK                         _______ _______ _______ _____ _____    ______ ____
ROOT
ATOM      1  C   UNL     1      47.456   3.750  15.887  0.00  0.00    +0.000 C 
ATOM      2  C   UNL     1      47.169   5.042  15.118  0.00  0.00    +0.000 C 
ENDROOT
BRANCH   2   3
ATOM      3  C   UNL     1      46.499   4.745  13.776  0.00  0.00    +0.000 A 
ATOM      4  C   UNL     1      46.231   5.780  12.875  0.00  0.00    +0.000 A 
ATOM      5  C   UNL     1      45.533   5.508  11.702  0.00  0.00    +0.000 A 
ATOM      6  C   UNL     1      45.168   4.198  11.411  0.00  0.00    +0.000 A 
ATOM      7  C   UNL     1      45.451   3.231  12.367  0.00  0.00    +0.000 A 
ATOM      8  N   UNL     1      46.101   3.470  13.535  0.00  0.00    +0.000 NA
BRANCH   6   9
ATOM      9  O   UNL     1      44.497   3.795  10.284  0.00  0.00    +0.000 OA
BRANCH   9  10
ATOM     10  C   UNL     1      45.197   3.273   9.218  0.00  0.00    +0.000 A 
ATOM     11  C   UNL     1      45.409   1.907   9.013  0.00  0.00    +0.000 A 
ATOM     12  C   UNL     1      46.161   1.471   7.921  0.00  0.00    +0.000 A 
ATOM     13  C   UNL     1      46.648   2.394   6.997  0.00  0.00    +0.000 A 
ATOM     14  C   UNL     1      46.378   3.752   7.161  0.00  0.00    +0.000 A 
ATOM     15  C   UNL     1      45.654   4.192   8.271  0.00  0.00    +0.000 A 
ENDBRANCH   9  10
ENDBRANCH   6   9
ENDBRANCH   2   3
BRANCH   2  16
ATOM     16  N   UNL     1      48.383   5.815  14.893  0.00  0.00    +0.000 N 
ATOM     17  C   UNL     1      49.005   6.572  15.844  0.00  0.00    +0.000 C 
ATOM     18  O   UNL     1      48.556   6.706  16.978  0.00  0.00    +0.000 OA
ATOM     19  H   UNL     1      48.822   5.708  13.987  0.00  0.00    +0.000 HD
BRANCH  17  20
ATOM     20  C   UNL     1      50.244   7.246  15.422  0.00  0.00    +0.000 A 
ATOM     21  C   UNL     1      51.430   6.974  16.090  0.00  0.00    +0.000 A 
ATOM     22  S   UNL     1      52.770   7.829  15.474  0.00  0.00    +0.000 S 
ATOM     23  C   UNL     1      51.819   8.565  14.270  0.00  0.00    +0.000 A 
ATOM     24  N   UNL     1      52.379   9.407  13.363  0.00  0.00    +0.000 NA
ATOM     25  C   UNL     1      51.552   9.881  12.489  0.00  0.00    +0.000 A 
ATOM     26  N   UNL     1      50.204   9.601  12.430  0.00  0.00    +0.000 N 
ATOM     27  C   UNL     1      49.364  10.208  11.419  0.00  0.00    +0.000 C 
ATOM     28  C   UNL     1      49.597   8.763  13.358  0.00  0.00    +0.000 A 
ATOM     29  O   UNL     1      48.389   8.536  13.348  0.00  0.00    +0.000 OA
ATOM     30  C   UNL     1      50.494   8.186  14.352  0.00  0.00    +0.000 A 
ENDBRANCH  17  20
ENDBRANCH   2  16
TORSDOF 5
ENDMDL
MODEL 5
REMARK VINA RESULT:    -7.299      2.272      3.050
REMARK INTER + INTRA:         -10.218
REMARK INTER:                  -9.854
REMARK INTRA:                  -0.364
REMARK UNBOUND:                -0.785
REMARK  Name = 
REMARK  7 active torsions:
REMARK  status: ('A' for Active; 'I' for Inactive)
REMARK    1  A    between atoms: C_1  and  C_2
REMARK    2  A    between atoms: C_2  and  N_3
REMARK    3  A    between atoms: C_2  and  C_17
REMARK    4  A    between atoms: C_4  and  C_6
REMARK    5  A    between atoms: N_12  and  C_13
REMARK    6  A    between atoms: C_20  and  O_21
REMARK    7  A    between atoms: O_21  and  C_22
REMARK                            x       y       z     vdW  Elec       q    Type
REMARK                         _______ _______ _______ _____ _____    ______ ____
ROOT
ATOM      1  C   UNL     1      42.808   5.574  13.262  0.00  0.00    +0.000 C 
ATOM      2  C   UNL     1      44.029   5.853  12.380  0.00  0.00    +0.000 C 
ENDROOT
BRANCH   2   3
ATOM      3  C   UNL     1      44.291   4.691  11.422  0.00  0.00    +0.000 A 
ATOM      4  C   UNL     1      44.915   3.526  11.878  0.00  0.00    +0.000 A 
ATOM      5  C   UNL     1      45.235   2.518  10.974  0.00  0.00    +0.000 A 
ATOM      6  C   UNL     1      44.872   2.655   9.639  0.00  0.00    +0.000 A 
ATOM      7  C   UNL     1      44.275   3.851   9.261  0.00  0.00    +0.000 A 
ATOM      8  N   UNL     1      43.980   4.866  10.113  0.00  0.00    +0.000 NA
BRANCH   6   9
ATOM      9  O   UNL     1      45.110   1.730   8.655  0.00  0.00    +0.000 OA
BRANCH   9  10
ATOM     10  C   UNL     1      45.989   2.023   7.635  0.00  0.00    +0.000 A 
ATOM     11  C   UNL     1      45.870   3.132   6.791  0.00  0.00    +0.000 A 
ATOM     12  C   UNL     1      46.791   3.330   5.761  0.00  0.00    +0.000 A 
ATOM     13  C   UNL     1      47.868   2.458   5.612  0.00  0.00    +0.000 A 
ATOM     14  C   UNL     1      48.030   1.392   6.496  0.00  0.00    +0.000 A 
ATOM     15  C   UNL     1      47.090   1.174   7.506  0.00  0.00    +0.000 A 
ENDBRANCH   9  10
ENDBRANCH   6   9
ENDBRANCH   2   3
BRANCH   2  16
ATOM     16  N   UNL     1      45.222   6.104  13.178  0.00  0.00    +0.000 N 
ATOM     17  C   UNL     1      46.419   6.519  12.670  0.00  0.00    +0.000 C 
ATOM     18  O   UNL     1      46.607   6.672  11.467  0.00  0.00    +0.000 OA
ATOM     19  H   UNL     1      45.113   6.034  14.183  0.00  0.00    +0.000 HD
BRANCH  17  20
ATOM     20  C   UNL     1      47.490   6.750  13.652  0.00  0.00    +0.000 A 
ATOM     21  C   UNL     1      48.289   7.880  13.537  0.00  0.00    +0.000 A 
ATOM     22  S   UNL     1      49.475   8.004  14.756  0.00  0.00    +0.000 S 
ATOM     23  C   UNL     1      48.939   6.570  15.502  0.00  0.00    +0.000 A 
ATOM     24  N   UNL     1      49.522   6.123  16.643  0.00  0.00    +0.000 NA
ATOM     25  C   UNL     1      49.007   5.037  17.118  0.00  0.00    +0.000 A 
ATOM     26  N   UNL     1      47.958   4.338  16.561  0.00  0.00    +0.000 N 
ATOM     27  C   UNL     1      47.476   3.116  17.168  0.00  0.00    +0.000 C 
ATOM     28  C   UNL     1      47.356   4.757  15.380  0.00  0.00    +0.000 A 
ATOM     29  O   UNL     1      46.449   4.124  14.845  0.00  0.00    +0.000 OA
ATOM     30  C   UNL     1      47.889   5.992  14.817  0.00  0.00    +0.000 A 
ENDBRANCH  17  20
ENDBRANCH   2  16
TORSDOF 5
ENDMDL
MODEL 6
REMARK VINA RESULT:    -7.202      2.540      9.418
REMARK INTER + INTRA:         -10.092
REMARK INTER:                  -9.200
REMARK INTRA:                  -0.892
REMARK UNBOUND:                -0.785
REMARK  Name = 
REMARK  7 active torsions:
REMARK  status: ('A' for Active; 'I' for Inactive)
REMARK    1  A    between atoms: C_1  and  C_2
REMARK    2  A    between atoms: C_2  and  N_3
REMARK    3  A    between atoms: C_2  and  C_17
REMARK    4  A    between atoms: C_4  and  C_6
REMARK    5  A    between atoms: N_12  and  C_13
REMARK    6  A    between atoms: C_20  and  O_21
REMARK    7  A    between atoms: O_21  and  C_22
REMARK                            x       y       z     vdW  Elec       q    Type
REMARK                         _______ _______ _______ _____ _____    ______ ____
ROOT
ATOM      1  C   UNL     1      48.447   8.068  11.510  0.00  0.00    +0.000 C 
ATOM      2  C   UNL     1      47.362   7.821  12.562  0.00  0.00    +0.000 C 
ENDROOT
BRANCH   2   3
ATOM      3  C   UNL     1      47.963   7.762  13.967  0.00  0.00    +0.000 A 
ATOM      4  C   UNL     1      47.968   8.898  14.782  0.00  0.00    +0.000 A 
ATOM      5  C   UNL     1      48.606   8.854  16.018  0.00  0.00    +0.000 A 
ATOM      6  C   UNL     1      49.173   7.663  16.454  0.00  0.00    +0.000 A 
ATOM      7  C   UNL     1      49.146   6.586  15.577  0.00  0.00    +0.000 A 
ATOM      8  N   UNL     1      48.561   6.606  14.352  0.00  0.00    +0.000 NA
BRANCH   6   9
ATOM      9  O   UNL     1      49.812   7.483  17.655  0.00  0.00    +0.000 OA
BRANCH   9  10
ATOM     10  C   UNL     1      49.126   6.948  18.724  0.00  0.00    +0.000 A 
ATOM     11  C   UNL     1      48.144   7.632  19.447  0.00  0.00    +0.000 A 
ATOM     12  C   UNL     1      47.525   7.020  20.539  0.00  0.00    +0.000 A 
ATOM     13  C   UNL     1      47.840   5.704  20.871  0.00  0.00    +0.000 A 
ATOM     14  C   UNL     1      48.768   4.996  20.109  0.00  0.00    +0.000 A 
ATOM     15  C   UNL     1      49.411   5.618  19.037  0.00  0.00    +0.000 A 
ENDBRANCH   9  10
ENDBRANCH   6   9
ENDBRANCH   2   3
BRANCH   2  16
ATOM     16  N   UNL     1      46.625   6.592  12.297  0.00  0.00    +0.000 N 
ATOM     17  C   UNL     1      45.382   6.541  11.736  0.00  0.00    +0.000 C 
ATOM     18  O   UNL     1      44.747   7.552  11.448  0.00  0.00    +0.000 OA
ATOM     19  H   UNL     1      47.119   5.726  12.475  0.00  0.00    +0.000 HD
BRANCH  17  20
ATOM     20  C   UNL     1      44.829   5.196  11.517  0.00  0.00    +0.000 A 
ATOM     21  C   UNL     1      44.057   4.605  12.509  0.00  0.00    +0.000 A 
ATOM     22  S   UNL     1      43.487   3.053  12.097  0.00  0.00    +0.000 S 
ATOM     23  C   UNL     1      44.222   3.129  10.563  0.00  0.00    +0.000 A 
ATOM     24  N   UNL     1      44.084   2.109   9.677  0.00  0.00    +0.000 NA
ATOM     25  C   UNL     1      44.672   2.301   8.542  0.00  0.00    +0.000 A 
ATOM     26  N   UNL     1      45.398   3.420   8.197  0.00  0.00    +0.000 N 
ATOM     27  C   UNL     1      46.036   3.520   6.902  0.00  0.00    +0.000 C 
ATOM     28  C   UNL     1      45.578   4.471   9.090  0.00  0.00    +0.000 A 
ATOM     29  O   UNL     1      46.258   5.457   8.817  0.00  0.00    +0.000 OA
ATOM     30  C   UNL     1      44.914   4.309  10.378  0.00  0.00    +0.000 A 
ENDBRANCH  17  20
ENDBRANCH   2  16
TORSDOF 5
ENDMDL
MODEL 7
REMARK VINA RESULT:    -7.149      1.967      3.055
REMARK INTER + INTRA:         -10.023
REMARK INTER:                  -9.124
REMARK INTRA:                  -0.899
REMARK UNBOUND:                -0.785
REMARK  Name = 
REMARK  7 active torsions:
REMARK  status: ('A' for Active; 'I' for Inactive)
REMARK    1  A    between atoms: C_1  and  C_2
REMARK    2  A    between atoms: C_2  and  N_3
REMARK    3  A    between atoms: C_2  and  C_17
REMARK    4  A    between atoms: C_4  and  C_6
REMARK    5  A    between atoms: N_12  and  C_13
REMARK    6  A    between atoms: C_20  and  O_21
REMARK    7  A    between atoms: O_21  and  C_22
REMARK                            x       y       z     vdW  Elec       q    Type
REMARK                         _______ _______ _______ _____ _____    ______ ____
ROOT
ATOM      1  C   UNL     1      47.492   9.967  12.883  0.00  0.00    +0.000 C 
ATOM      2  C   UNL     1      47.810   8.519  13.267  0.00  0.00    +0.000 C 
ENDROOT
BRANCH   2   3
ATOM      3  C   UNL     1      46.874   7.544  12.553  0.00  0.00    +0.000 A 
ATOM      4  C   UNL     1      45.721   8.011  11.915  0.00  0.00    +0.000 A 
ATOM      5  C   UNL     1      44.828   7.101  11.355  0.00  0.00    +0.000 A 
ATOM      6  C   UNL     1      45.129   5.744  11.380  0.00  0.00    +0.000 A 
ATOM      7  C   UNL     1      46.281   5.359  12.052  0.00  0.00    +0.000 A 
ATOM      8  N   UNL     1      47.155   6.219  12.636  0.00  0.00    +0.000 NA
BRANCH   6   9
ATOM      9  O   UNL     1      44.346   4.751  10.848  0.00  0.00    +0.000 OA
BRANCH   9  10
ATOM     10  C   UNL     1      44.853   3.929   9.866  0.00  0.00    +0.000 A 
ATOM     11  C   UNL     1      44.721   2.537   9.862  0.00  0.00    +0.000 A 
ATOM     12  C   UNL     1      45.299   1.782   8.840  0.00  0.00    +0.000 A 
ATOM     13  C   UNL     1      45.954   2.418   7.788  0.00  0.00    +0.000 A 
ATOM     14  C   UNL     1      46.027   3.810   7.752  0.00  0.00    +0.000 A 
ATOM     15  C   UNL     1      45.478   4.565   8.791  0.00  0.00    +0.000 A 
ENDBRANCH   9  10
ENDBRANCH   6   9
ENDBRANCH   2   3
BRANCH   2  16
ATOM     16  N   UNL     1      47.721   8.312  14.706  0.00  0.00    +0.000 N 
ATOM     17  C   UNL     1      48.740   8.538  15.585  0.00  0.00    +0.000 C 
ATOM     18  O   UNL     1      49.857   8.895  15.222  0.00  0.00    +0.000 OA
ATOM     19  H   UNL     1      46.809   8.058  15.068  0.00  0.00    +0.000 HD
BRANCH  17  20
ATOM     20  C   UNL     1      48.431   8.303  17.005  0.00  0.00    +0.000 A 
ATOM     21  C   UNL     1      48.013   9.363  17.797  0.00  0.00    +0.000 A 
ATOM     22  S   UNL     1      47.689   8.922  19.412  0.00  0.00    +0.000 S 
ATOM     23  C   UNL     1      48.062   7.290  19.100  0.00  0.00    +0.000 A 
ATOM     24  N   UNL     1      47.950   6.355  20.077  0.00  0.00    +0.000 NA
ATOM     25  C   UNL     1      48.241   5.152  19.704  0.00  0.00    +0.000 A 
ATOM     26  N   UNL     1      48.644   4.782  18.440  0.00  0.00    +0.000 N 
ATOM     27  C   UNL     1      48.969   3.404  18.138  0.00  0.00    +0.000 C 
ATOM     28  C   UNL     1      48.793   5.720  17.424  0.00  0.00    +0.000 A 
ATOM     29  O   UNL     1      49.193   5.416  16.303  0.00  0.00    +0.000 OA
ATOM     30  C   UNL     1      48.454   7.090  17.791  0.00  0.00    +0.000 A 
ENDBRANCH  17  20
ENDBRANCH   2  16
TORSDOF 5
ENDMDL
MODEL 8
REMARK VINA RESULT:    -6.899      3.022      8.917
REMARK INTER + INTRA:          -9.700
REMARK INTER:                  -8.989
REMARK INTRA:                  -0.712
REMARK UNBOUND:                -0.785
REMARK  Name = 
REMARK  7 active torsions:
REMARK  status: ('A' for Active; 'I' for Inactive)
REMARK    1  A    between atoms: C_1  and  C_2
REMARK    2  A    between atoms: C_2  and  N_3
REMARK    3  A    between atoms: C_2  and  C_17
REMARK    4  A    between atoms: C_4  and  C_6
REMARK    5  A    between atoms: N_12  and  C_13
REMARK    6  A    between atoms: C_20  and  O_21
REMARK    7  A    between atoms: O_21  and  C_22
REMARK                            x       y       z     vdW  Elec       q    Type
REMARK                         _______ _______ _______ _____ _____    ______ ____
ROOT
ATOM      1  C   UNL     1      48.661   7.571  12.315  0.00  0.00    +0.000 C 
ATOM      2  C   UNL     1      47.676   7.083  13.381  0.00  0.00    +0.000 C 
ENDROOT
BRANCH   2   3
ATOM      3  C   UNL     1      48.413   6.634  14.643  0.00  0.00    +0.000 A 
ATOM      4  C   UNL     1      49.663   7.173  14.961  0.00  0.00    +0.000 A 
ATOM      5  C   UNL     1      50.364   6.683  16.059  0.00  0.00    +0.000 A 
ATOM      6  C   UNL     1      49.784   5.709  16.863  0.00  0.00    +0.000 A 
ATOM      7  C   UNL     1      48.550   5.209  16.467  0.00  0.00    +0.000 A 
ATOM      8  N   UNL     1      47.856   5.643  15.384  0.00  0.00    +0.000 NA
BRANCH   6   9
ATOM      9  O   UNL     1      50.359   5.159  17.980  0.00  0.00    +0.000 OA
BRANCH   9  10
ATOM     10  C   UNL     1      51.050   3.970  17.882  0.00  0.00    +0.000 A 
ATOM     11  C   UNL     1      50.500   2.781  17.396  0.00  0.00    +0.000 A 
ATOM     12  C   UNL     1      51.267   1.615  17.365  0.00  0.00    +0.000 A 
ATOM     13  C   UNL     1      52.603   1.650  17.760  0.00  0.00    +0.000 A 
ATOM     14  C   UNL     1      53.175   2.850  18.179  0.00  0.00    +0.000 A 
ATOM     15  C   UNL     1      52.399   4.009  18.241  0.00  0.00    +0.000 A 
ENDBRANCH   9  10
ENDBRANCH   6   9
ENDBRANCH   2   3
BRANCH   2  16
ATOM     16  N   UNL     1      46.848   5.991  12.888  0.00  0.00    +0.000 N 
ATOM     17  C   UNL     1      45.625   6.150  12.302  0.00  0.00    +0.000 C 
ATOM     18  O   UNL     1      45.088   7.248  12.185  0.00  0.00    +0.000 OA
ATOM     19  H   UNL     1      47.259   5.065  12.920  0.00  0.00    +0.000 HD
BRANCH  17  20
ATOM     20  C   UNL     1      44.967   4.919  11.838  0.00  0.00    +0.000 A 
ATOM     21  C   UNL     1      44.104   4.243  12.690  0.00  0.00    +0.000 A 
ATOM     22  S   UNL     1      43.420   2.843  11.999  0.00  0.00    +0.000 S 
ATOM     23  C   UNL     1      44.226   3.110  10.523  0.00  0.00    +0.000 A 
ATOM     24  N   UNL     1      44.039   2.273   9.470  0.00  0.00    +0.000 NA
ATOM     25  C   UNL     1      44.691   2.600   8.403  0.00  0.00    +0.000 A 
ATOM     26  N   UNL     1      45.526   3.689   8.278  0.00  0.00    +0.000 N 
ATOM     27  C   UNL     1      46.227   3.948   7.038  0.00  0.00    +0.000 C 
ATOM     28  C   UNL     1      45.756   4.551   9.345  0.00  0.00    +0.000 A 
ATOM     29  O   UNL     1      46.531   5.501   9.265  0.00  0.00    +0.000 OA
ATOM     30  C   UNL     1      45.025   4.235  10.565  0.00  0.00    +0.000 A 
ENDBRANCH  17  20
ENDBRANCH   2  16
TORSDOF 5
ENDMDL
MODEL 9
REMARK VINA RESULT:    -6.797      4.272      9.274
REMARK INTER + INTRA:          -9.569
REMARK INTER:                  -9.196
REMARK INTRA:                  -0.372
REMARK UNBOUND:                -0.785
REMARK  Name = 
REMARK  7 active torsions:
REMARK  status: ('A' for Active; 'I' for Inactive)
REMARK    1  A    between atoms: C_1  and  C_2
REMARK    2  A    between atoms: C_2  and  N_3
REMARK    3  A    between atoms: C_2  and  C_17
REMARK    4  A    between atoms: C_4  and  C_6
REMARK    5  A    between atoms: N_12  and  C_13
REMARK    6  A    between atoms: C_20  and  O_21
REMARK    7  A    between atoms: O_21  and  C_22
REMARK                            x       y       z     vdW  Elec       q    Type
REMARK                         _______ _______ _______ _____ _____    ______ ____
ROOT
ATOM      1  C   UNL     1      47.111   5.038  18.571  0.00  0.00    +0.000 C 
ATOM      2  C   UNL     1      47.729   4.278  17.394  0.00  0.00    +0.000 C 
ENDROOT
BRANCH   2   3
ATOM      3  C   UNL     1      49.233   4.091  17.591  0.00  0.00    +0.000 A 
ATOM      4  C   UNL     1      49.839   2.868  17.288  0.00  0.00    +0.000 A 
ATOM      5  C   UNL     1      51.190   2.681  17.565  0.00  0.00    +0.000 A 
ATOM      6  C   UNL     1      51.934   3.736  18.080  0.00  0.00    +0.000 A 
ATOM      7  C   UNL     1      51.255   4.911  18.375  0.00  0.00    +0.000 A 
ATOM      8  N   UNL     1      49.932   5.113  18.147  0.00  0.00    +0.000 NA
BRANCH   6   9
ATOM      9  O   UNL     1      53.273   3.689  18.378  0.00  0.00    +0.000 OA
BRANCH   9  10
ATOM     10  C   UNL     1      54.039   2.635  17.930  0.00  0.00    +0.000 A 
ATOM     11  C   UNL     1      53.918   1.322  18.397  0.00  0.00    +0.000 A 
ATOM     12  C   UNL     1      54.763   0.325  17.908  0.00  0.00    +0.000 A 
ATOM     13  C   UNL     1      55.685   0.621  16.907  0.00  0.00    +0.000 A 
ATOM     14  C   UNL     1      55.760   1.913  16.389  0.00  0.00    +0.000 A 
ATOM     15  C   UNL     1      54.939   2.920  16.901  0.00  0.00    +0.000 A 
ENDBRANCH   9  10
ENDBRANCH   6   9
ENDBRANCH   2   3
BRANCH   2  16
ATOM     16  N   UNL     1      47.486   4.958  16.129  0.00  0.00    +0.000 N 
ATOM     17  C   UNL     1      47.358   4.328  14.924  0.00  0.00    +0.000 C 
ATOM     18  O   UNL     1      47.490   3.114  14.798  0.00  0.00    +0.000 OA
ATOM     19  H   UNL     1      47.327   5.957  16.179  0.00  0.00    +0.000 HD
BRANCH  17  20
ATOM     20  C   UNL     1      47.078   5.197  13.770  0.00  0.00    +0.000 A 
ATOM     21  C   UNL     1      47.699   6.435  13.680  0.00  0.00    +0.000 A 
ATOM     22  S   UNL     1      47.273   7.312  12.282  0.00  0.00    +0.000 S 
ATOM     23  C   UNL     1      46.270   6.052  11.728  0.00  0.00    +0.000 A 
ATOM     24  N   UNL     1      45.621   6.154  10.541  0.00  0.00    +0.000 NA
ATOM     25  C   UNL     1      44.910   5.121  10.227  0.00  0.00    +0.000 A 
ATOM     26  N   UNL     1      44.776   3.982  10.991  0.00  0.00    +0.000 N 
ATOM     27  C   UNL     1      43.932   2.890  10.552  0.00  0.00    +0.000 C 
ATOM     28  C   UNL     1      45.408   3.857  12.223  0.00  0.00    +0.000 A 
ATOM     29  O   UNL     1      45.265   2.867  12.937  0.00  0.00    +0.000 OA
ATOM     30  C   UNL     1      46.240   4.990  12.610  0.00  0.00    +0.000 A 
ENDBRANCH  17  20
ENDBRANCH   2  16
TORSDOF 5
ENDMDL
