MODEL 1
REMARK VINA RESULT:    -7.347      0.000      0.000
REMARK INTER + INTRA:         -11.600
REMARK INTER:                 -10.354
REMARK INTRA:                  -1.246
REMARK UNBOUND:                -1.246
REMARK  Name = 
REMARK  9 active torsions:
REMARK  status: ('A' for Active; 'I' for Inactive)
REMARK    1  A    between atoms: C_1  and  O_2
REMARK    2  A    between atoms: O_2  and  C_3
REMARK    3  A    between atoms: C_10  and  C_11
REMARK    4  A    between atoms: N_13  and  C_14
REMARK    5  A    between atoms: C_14  and  C_15
REMARK    6  A    between atoms: C_18  and  N_19
REMARK    7  A    between atoms: N_19  and  C_20
REMARK    8  A    between atoms: C_20  and  C_21
REMARK    9  A    between atoms: N_25  and  C_26
REMARK                            x       y       z     vdW  Elec       q    Type
REMARK                         _______ _______ _______ _____ _____    ______ ____
ROOT
ATOM      1  C   UNL     1      48.320   7.751  13.744  0.00  0.00    +0.000 C 
ENDROOT
BRANCH   1   2
ATOM      2  C   UNL     1      47.439   6.718  13.090  0.00  0.00    +0.000 A 
ATOM      3  C   UNL     1      47.146   5.519  13.744  0.00  0.00    +0.000 A 
ATOM      4  C   UNL     1      46.205   4.629  13.212  0.00  0.00    +0.000 A 
ATOM      5  C   UNL     1      45.522   4.921  12.026  0.00  0.00    +0.000 A 
ATOM      6  C   UNL     1      45.941   6.038  11.295  0.00  0.00    +0.000 A 
ATOM      7  C   UNL     1      46.877   6.938  11.826  0.00  0.00    +0.000 A 
BRANCH   5   8
ATOM      8  N   UNL     1      44.515   4.098  11.478  0.00  0.00    +0.000 N 
ATOM      9  H   UNL     1      43.908   4.676  10.899  0.00  0.00    +0.000 HD
BRANCH   8  10
ATOM     10  C   UNL     1      45.011   2.925  10.738  0.00  0.00    +0.000 C 
BRANCH  10  11
ATOM     11  C   UNL     1      44.317   2.750   9.370  0.00  0.00    +0.000 C 
ATOM     12  C   UNL     1      44.545   3.921   8.404  0.00  0.00    +0.000 C 
ATOM     13  C   UNL     1      46.014   4.023   8.003  0.00  0.00    +0.000 C 
ATOM     14  C   UNL     1      46.518   2.695   7.431  0.00  0.00    +0.000 C 
ATOM     15  N   UNL     1      46.260   1.563   8.336  0.00  0.00    +0.000 NA
ATOM     16  C   UNL     1      46.730   0.316   7.726  0.00  0.00    +0.000 C 
ATOM     17  C   UNL     1      44.833   1.461   8.692  0.00  0.00    +0.000 C 
ENDBRANCH  10  11
ENDBRANCH   8  10
ENDBRANCH   5   8
ENDBRANCH   1   2
BRANCH   1  20
ATOM     18  C   UNL     1      49.367   7.193  15.895  0.00  0.00    +0.000 C 
ATOM     19  O   UNL     1      50.402   6.839  15.340  0.00  0.00    +0.000 OA
ATOM     20  N   UNL     1      48.297   7.655  15.179  0.00  0.00    +0.000 N 
ATOM     21  H   UNL     1      47.448   7.934  15.648  0.00  0.00    +0.000 HD
BRANCH  18  29
ATOM     22  C   UNL     1      48.882   4.615  18.120  0.00  0.00    +0.000 A 
ATOM     23  N   UNL     1      48.743   3.806  19.188  0.00  0.00    +0.000 NA
ATOM     24  C   UNL     1      48.721   4.370  20.401  0.00  0.00    +0.000 A 
ATOM     25  N   UNL     1      48.816   5.667  20.683  0.00  0.00    +0.000 NA
ATOM     26  C   UNL     1      48.969   6.432  19.590  0.00  0.00    +0.000 A 
ATOM     27  S   UNL     1      49.101   8.117  19.759  0.00  0.00    +0.000 S 
ATOM     28  C   UNL     1      49.262   8.325  18.080  0.00  0.00    +0.000 A 
ATOM     29  C   UNL     1      49.223   7.134  17.361  0.00  0.00    +0.000 A 
ATOM     30  C   UNL     1      49.030   6.008  18.269  0.00  0.00    +0.000 A 
BRANCH  22  32
ATOM     31  C   UNL     1      47.768   3.223  16.602  0.00  0.00    +0.000 C 
ATOM     32  O   UNL     1      48.907   4.036  16.869  0.00  0.00    +0.000 OA
ENDBRANCH  22  32
ENDBRANCH  18  29
ENDBRANCH   1  20
TORSDOF 7
ENDMDL
MODEL 2
REMARK VINA RESULT:    -6.866      4.812      9.273
REMARK INTER + INTRA:         -10.922
REMARK INTER:                 -10.051
REMARK INTRA:                  -0.871
REMARK UNBOUND:                -1.246
REMARK  Name = 
REMARK  9 active torsions:
REMARK  status: ('A' for Active; 'I' for Inactive)
REMARK    1  A    between atoms: C_1  and  O_2
REMARK    2  A    between atoms: O_2  and  C_3
REMARK    3  A    between atoms: C_10  and  C_11
REMARK    4  A    between atoms: N_13  and  C_14
REMARK    5  A    between atoms: C_14  and  C_15
REMARK    6  A    between atoms: C_18  and  N_19
REMARK    7  A    between atoms: N_19  and  C_20
REMARK    8  A    between atoms: C_20  and  C_21
REMARK    9  A    between atoms: N_25  and  C_26
REMARK                            x       y       z     vdW  Elec       q    Type
REMARK                         _______ _______ _______ _____ _____    ______ ____
ROOT
ATOM      1  C   UNL     1      47.167   3.467  16.822  0.00  0.00    +0.000 C 
ENDROOT
BRANCH   1   2
ATOM      2  C   UNL     1      48.655   3.313  17.004  0.00  0.00    +0.000 A 
ATOM      3  C   UNL     1      49.435   4.400  17.407  0.00  0.00    +0.000 A 
ATOM      4  C   UNL     1      50.786   4.224  17.729  0.00  0.00    +0.000 A 
ATOM      5  C   UNL     1      51.386   2.961  17.673  0.00  0.00    +0.000 A 
ATOM      6  C   UNL     1      50.645   1.916  17.111  0.00  0.00    +0.000 A 
ATOM      7  C   UNL     1      49.289   2.083  16.794  0.00  0.00    +0.000 A 
BRANCH   5   8
ATOM      8  N   UNL     1      52.723   2.709  18.052  0.00  0.00    +0.000 N 
ATOM      9  H   UNL     1      52.816   2.902  19.047  0.00  0.00    +0.000 HD
BRANCH   8  10
ATOM     10  C   UNL     1      53.217   1.364  17.713  0.00  0.00    +0.000 C 
BRANCH  10  11
ATOM     11  C   UNL     1      54.729   1.349  17.403  0.00  0.00    +0.000 C 
ATOM     12  C   UNL     1      55.612   1.090  18.633  0.00  0.00    +0.000 C 
ATOM     13  C   UNL     1      55.388  -0.315  19.183  0.00  0.00    +0.000 C 
ATOM     14  C   UNL     1      55.593  -1.369  18.092  0.00  0.00    +0.000 C 
ATOM     15  N   UNL     1      54.783  -1.099  16.894  0.00  0.00    +0.000 NA
ATOM     16  C   UNL     1      55.043  -2.116  15.872  0.00  0.00    +0.000 C 
ATOM     17  C   UNL     1      55.031   0.251  16.358  0.00  0.00    +0.000 C 
ENDBRANCH  10  11
ENDBRANCH   8  10
ENDBRANCH   5   8
ENDBRANCH   1   2
BRANCH   1  20
ATOM     18  C   UNL     1      46.896   4.228  14.503  0.00  0.00    +0.000 C 
ATOM     19  O   UNL     1      47.232   3.133  14.066  0.00  0.00    +0.000 OA
ATOM     20  N   UNL     1      46.838   4.472  15.848  0.00  0.00    +0.000 N 
ATOM     21  H   UNL     1      46.569   5.381  16.193  0.00  0.00    +0.000 HD
BRANCH  18  29
ATOM     22  C   UNL     1      44.087   4.975  12.663  0.00  0.00    +0.000 A 
ATOM     23  N   UNL     1      43.117   5.517  11.901  0.00  0.00    +0.000 NA
ATOM     24  C   UNL     1      43.376   6.682  11.297  0.00  0.00    +0.000 A 
ATOM     25  N   UNL     1      44.506   7.381  11.355  0.00  0.00    +0.000 NA
ATOM     26  C   UNL     1      45.437   6.811  12.138  0.00  0.00    +0.000 A 
ATOM     27  S   UNL     1      46.948   7.563  12.326  0.00  0.00    +0.000 S 
ATOM     28  C   UNL     1      47.487   6.334  13.370  0.00  0.00    +0.000 A 
ATOM     29  C   UNL     1      46.542   5.339  13.601  0.00  0.00    +0.000 A 
ATOM     30  C   UNL     1      45.325   5.622  12.846  0.00  0.00    +0.000 A 
BRANCH  22  32
ATOM     31  C   UNL     1      43.673   2.687  12.380  0.00  0.00    +0.000 C 
ATOM     32  O   UNL     1      43.823   3.775  13.288  0.00  0.00    +0.000 OA
ENDBRANCH  22  32
ENDBRANCH  18  29
ENDBRANCH   1  20
TORSDOF 7
ENDMDL
MODEL 3
REMARK VINA RESULT:    -6.671      3.872      9.520
REMARK INTER + INTRA:         -10.647
REMARK INTER:                  -9.521
REMARK INTRA:                  -1.126
REMARK UNBOUND:                -1.246
REMARK  Name = 
REMARK  9 active torsions:
REMARK  status: ('A' for Active; 'I' for Inactive)
REMARK    1  A    between atoms: C_1  and  O_2
REMARK    2  A    between atoms: O_2  and  C_3
REMARK    3  A    between atoms: C_10  and  C_11
REMARK    4  A    between atoms: N_13  and  C_14
REMARK    5  A    between atoms: C_14  and  C_15
REMARK    6  A    between atoms: C_18  and  N_19
REMARK    7  A    between atoms: N_19  and  C_20
REMARK    8  A    between atoms: C_20  and  C_21
REMARK    9  A    between atoms: N_25  and  C_26
REMARK                            x       y       z     vdW  Elec       q    Type
REMARK                         _______ _______ _______ _____ _____    ______ ____
ROOT
ATOM      1  C   UNL     1      47.143   3.472  16.851  0.00  0.00    +0.000 C 
ENDROOT
BRANCH   1   2
ATOM      2  C   UNL     1      48.620   3.281  17.080  0.00  0.00    +0.000 A 
ATOM      3  C   UNL     1      49.385   4.298  17.656  0.00  0.00    +0.000 A 
ATOM      4  C   UNL     1      50.718   4.070  18.015  0.00  0.00    +0.000 A 
ATOM      5  C   UNL     1      51.315   2.818  17.824  0.00  0.00    +0.000 A 
ATOM      6  C   UNL     1      50.598   1.862  17.097  0.00  0.00    +0.000 A 
ATOM      7  C   UNL     1      49.259   2.082  16.742  0.00  0.00    +0.000 A 
BRANCH   5   8
ATOM      8  N   UNL     1      52.632   2.507  18.229  0.00  0.00    +0.000 N 
ATOM      9  H   UNL     1      53.211   2.420  17.396  0.00  0.00    +0.000 HD
BRANCH   8  10
ATOM     10  C   UNL     1      53.218   3.448  19.199  0.00  0.00    +0.000 C 
BRANCH  10  11
ATOM     11  C   UNL     1      54.644   3.892  18.806  0.00  0.00    +0.000 C 
ATOM     12  C   UNL     1      54.787   4.283  17.328  0.00  0.00    +0.000 C 
ATOM     13  C   UNL     1      53.969   5.531  17.011  0.00  0.00    +0.000 C 
ATOM     14  C   UNL     1      54.336   6.681  17.952  0.00  0.00    +0.000 C 
ATOM     15  N   UNL     1      54.244   6.295  19.369  0.00  0.00    +0.000 NA
ATOM     16  C   UNL     1      54.638   7.419  20.222  0.00  0.00    +0.000 C 
ATOM     17  C   UNL     1      55.061   5.106  19.667  0.00  0.00    +0.000 C 
ENDBRANCH  10  11
ENDBRANCH   8  10
ENDBRANCH   5   8
ENDBRANCH   1   2
BRANCH   1  20
ATOM     18  C   UNL     1      46.927   4.233  14.525  0.00  0.00    +0.000 C 
ATOM     19  O   UNL     1      47.212   3.120  14.096  0.00  0.00    +0.000 OA
ATOM     20  N   UNL     1      46.871   4.486  15.868  0.00  0.00    +0.000 N 
ATOM     21  H   UNL     1      46.644   5.409  16.207  0.00  0.00    +0.000 HD
BRANCH  18  29
ATOM     22  C   UNL     1      44.171   5.104  12.660  0.00  0.00    +0.000 A 
ATOM     23  N   UNL     1      43.235   5.689  11.887  0.00  0.00    +0.000 NA
ATOM     24  C   UNL     1      43.554   6.837  11.279  0.00  0.00    +0.000 A 
ATOM     25  N   UNL     1      44.717   7.481  11.343  0.00  0.00    +0.000 NA
ATOM     26  C   UNL     1      45.613   6.871  12.136  0.00  0.00    +0.000 A 
ATOM     27  S   UNL     1      47.157   7.549  12.333  0.00  0.00    +0.000 S 
ATOM     28  C   UNL     1      47.627   6.302  13.387  0.00  0.00    +0.000 A 
ATOM     29  C   UNL     1      46.634   5.355  13.615  0.00  0.00    +0.000 A 
ATOM     30  C   UNL     1      45.438   5.692  12.849  0.00  0.00    +0.000 A 
BRANCH  22  32
ATOM     31  C   UNL     1      43.623   2.845  12.383  0.00  0.00    +0.000 C 
ATOM     32  O   UNL     1      43.845   3.922  13.288  0.00  0.00    +0.000 OA
ENDBRANCH  22  32
ENDBRANCH  18  29
ENDBRANCH   1  20
TORSDOF 7
ENDMDL
MODEL 4
REMARK VINA RESULT:    -6.566      3.012      4.208
REMARK INTER + INTRA:         -10.499
REMARK INTER:                  -9.123
REMARK INTRA:                  -1.376
REMARK UNBOUND:                -1.246
REMARK  Name = 
REMARK  9 active torsions:
REMARK  status: ('A' for Active; 'I' for Inactive)
REMARK    1  A    between atoms: C_1  and  O_2
REMARK    2  A    between atoms: O_2  and  C_3
REMARK    3  A    between atoms: C_10  and  C_11
REMARK    4  A    between atoms: N_13  and  C_14
REMARK    5  A    between atoms: C_14  and  C_15
REMARK    6  A    between atoms: C_18  and  N_19
REMARK    7  A    between atoms: N_19  and  C_20
REMARK    8  A    between atoms: C_20  and  C_21
REMARK    9  A    between atoms: N_25  and  C_26
REMARK                            x       y       z     vdW  Elec       q    Type
REMARK                         _______ _______ _______ _____ _____    ______ ____
ROOT
ATOM      1  C   UNL     1      51.154   7.680  15.627  0.00  0.00    +0.000 C 
ENDROOT
BRANCH   1   2
ATOM      2  C   UNL     1      49.946   7.348  14.790  0.00  0.00    +0.000 A 
ATOM      3  C   UNL     1      49.906   7.691  13.436  0.00  0.00    +0.000 A 
ATOM      4  C   UNL     1      48.860   7.247  12.620  0.00  0.00    +0.000 A 
ATOM      5  C   UNL     1      47.838   6.436  13.129  0.00  0.00    +0.000 A 
ATOM      6  C   UNL     1      47.797   6.239  14.513  0.00  0.00    +0.000 A 
ATOM      7  C   UNL     1      48.846   6.675  15.335  0.00  0.00    +0.000 A 
BRANCH   5   8
ATOM      8  N   UNL     1      46.796   5.901  12.342  0.00  0.00    +0.000 N 
ATOM      9  H   UNL     1      46.966   4.905  12.218  0.00  0.00    +0.000 HD
BRANCH   8  10
ATOM     10  C   UNL     1      45.439   6.157  12.857  0.00  0.00    +0.000 C 
BRANCH  10  11
ATOM     11  C   UNL     1      44.690   4.858  13.223  0.00  0.00    +0.000 C 
ATOM     12  C   UNL     1      43.161   4.981  13.144  0.00  0.00    +0.000 C 
ATOM     13  C   UNL     1      42.704   5.216  11.708  0.00  0.00    +0.000 C 
ATOM     14  C   UNL     1      43.246   4.129  10.776  0.00  0.00    +0.000 C 
ATOM     15  N   UNL     1      44.706   3.977  10.883  0.00  0.00    +0.000 NA
ATOM     16  C   UNL     1      45.165   2.904   9.998  0.00  0.00    +0.000 C 
ATOM     17  C   UNL     1      45.130   3.723  12.271  0.00  0.00    +0.000 C 
ENDBRANCH  10  11
ENDBRANCH   8  10
ENDBRANCH   5   8
ENDBRANCH   1   2
BRANCH   1  20
ATOM     18  C   UNL     1      51.623   6.025  17.380  0.00  0.00    +0.000 C 
ATOM     19  O   UNL     1      50.862   6.584  18.163  0.00  0.00    +0.000 OA
ATOM     20  N   UNL     1      51.820   6.502  16.114  0.00  0.00    +0.000 N 
ATOM     21  H   UNL     1      52.456   6.037  15.484  0.00  0.00    +0.000 HD
BRANCH  18  29
ATOM     22  C   UNL     1      50.875   2.668  17.303  0.00  0.00    +0.000 A 
ATOM     23  N   UNL     1      50.858   1.322  17.337  0.00  0.00    +0.000 NA
ATOM     24  C   UNL     1      51.948   0.694  17.793  0.00  0.00    +0.000 A 
ATOM     25  N   UNL     1      53.071   1.257  18.233  0.00  0.00    +0.000 NA
ATOM     26  C   UNL     1      53.048   2.597  18.166  0.00  0.00    +0.000 A 
ATOM     27  S   UNL     1      54.397   3.486  18.692  0.00  0.00    +0.000 S 
ATOM     28  C   UNL     1      53.643   4.959  18.303  0.00  0.00    +0.000 A 
ATOM     29  C   UNL     1      52.367   4.812  17.768  0.00  0.00    +0.000 A 
ATOM     30  C   UNL     1      52.011   3.398  17.705  0.00  0.00    +0.000 A 
BRANCH  22  32
ATOM     31  C   UNL     1      48.727   3.449  17.812  0.00  0.00    +0.000 C 
ATOM     32  O   UNL     1      49.753   3.317  16.833  0.00  0.00    +0.000 OA
ENDBRANCH  22  32
ENDBRANCH  18  29
ENDBRANCH   1  20
TORSDOF 7
ENDMDL
MODEL 5
REMARK VINA RESULT:    -6.336      3.364      8.404
REMARK INTER + INTRA:         -10.174
REMARK INTER:                  -8.551
REMARK INTRA:                  -1.623
REMARK UNBOUND:                -1.246
REMARK  Name = 
REMARK  9 active torsions:
REMARK  status: ('A' for Active; 'I' for Inactive)
REMARK    1  A    between atoms: C_1  and  O_2
REMARK    2  A    between atoms: O_2  and  C_3
REMARK    3  A    between atoms: C_10  and  C_11
REMARK    4  A    between atoms: N_13  and  C_14
REMARK    5  A    between atoms: C_14  and  C_15
REMARK    6  A    between atoms: C_18  and  N_19
REMARK    7  A    between atoms: N_19  and  C_20
REMARK    8  A    between atoms: C_20  and  C_21
REMARK    9  A    between atoms: N_25  and  C_26
REMARK                            x       y       z     vdW  Elec       q    Type
REMARK                         _______ _______ _______ _____ _____    ______ ____
ROOT
ATOM      1  C   UNL     1      48.108   8.158  12.045  0.00  0.00    +0.000 C 
ENDROOT
BRANCH   1   2
ATOM      2  C   UNL     1      48.465   7.934  13.492  0.00  0.00    +0.000 A 
ATOM      3  C   UNL     1      48.174   8.906  14.452  0.00  0.00    +0.000 A 
ATOM      4  C   UNL     1      48.358   8.638  15.814  0.00  0.00    +0.000 A 
ATOM      5  C   UNL     1      48.820   7.391  16.250  0.00  0.00    +0.000 A 
ATOM      6  C   UNL     1      49.266   6.489  15.279  0.00  0.00    +0.000 A 
ATOM      7  C   UNL     1      49.077   6.748  13.913  0.00  0.00    +0.000 A 
BRANCH   5   8
ATOM      8  N   UNL     1      48.961   7.039  17.610  0.00  0.00    +0.000 N 
ATOM      9  H   UNL     1      48.783   7.867  18.176  0.00  0.00    +0.000 HD
BRANCH   8  10
ATOM     10  C   UNL     1      48.130   5.902  18.042  0.00  0.00    +0.000 C 
BRANCH  10  11
ATOM     11  C   UNL     1      48.845   5.003  19.073  0.00  0.00    +0.000 C 
ATOM     12  C   UNL     1      48.576   3.503  18.882  0.00  0.00    +0.000 C 
ATOM     13  C   UNL     1      49.164   3.005  17.566  0.00  0.00    +0.000 C 
ATOM     14  C   UNL     1      50.654   3.341  17.469  0.00  0.00    +0.000 C 
ATOM     15  N   UNL     1      50.920   4.771  17.697  0.00  0.00    +0.000 NA
ATOM     16  C   UNL     1      52.361   5.030  17.628  0.00  0.00    +0.000 C 
ATOM     17  C   UNL     1      50.371   5.231  18.985  0.00  0.00    +0.000 C 
ENDBRANCH  10  11
ENDBRANCH   8  10
ENDBRANCH   5   8
ENDBRANCH   1   2
BRANCH   1  20
ATOM     18  C   UNL     1      46.090   6.938  11.358  0.00  0.00    +0.000 C 
ATOM     19  O   UNL     1      45.364   7.842  11.755  0.00  0.00    +0.000 OA
ATOM     20  N   UNL     1      47.452   7.018  11.463  0.00  0.00    +0.000 N 
ATOM     21  H   UNL     1      48.037   6.262  11.141  0.00  0.00    +0.000 HD
BRANCH  18  29
ATOM     22  C   UNL     1      44.444   4.201  12.636  0.00  0.00    +0.000 A 
ATOM     23  N   UNL     1      43.754   3.067  12.862  0.00  0.00    +0.000 NA
ATOM     24  C   UNL     1      43.464   2.292  11.812  0.00  0.00    +0.000 A 
ATOM     25  N   UNL     1      43.791   2.510  10.540  0.00  0.00    +0.000 NA
ATOM     26  C   UNL     1      44.464   3.658  10.361  0.00  0.00    +0.000 A 
ATOM     27  S   UNL     1      44.969   4.099   8.800  0.00  0.00    +0.000 S 
ATOM     28  C   UNL     1      45.668   5.536   9.376  0.00  0.00    +0.000 A 
ATOM     29  C   UNL     1      45.533   5.716  10.749  0.00  0.00    +0.000 A 
ATOM     30  C   UNL     1      44.827   4.580  11.334  0.00  0.00    +0.000 A 
BRANCH  22  32
ATOM     31  C   UNL     1      46.059   4.799  14.223  0.00  0.00    +0.000 C 
ATOM     32  O   UNL     1      44.743   5.003  13.717  0.00  0.00    +0.000 OA
ENDBRANCH  22  32
ENDBRANCH  18  29
ENDBRANCH   1  20
TORSDOF 7
ENDMDL
MODEL 6
REMARK VINA RESULT:    -6.129      3.828      9.008
REMARK INTER + INTRA:          -9.883
REMARK INTER:                  -7.988
REMARK INTRA:                  -1.895
REMARK UNBOUND:                -1.246
REMARK  Name = 
REMARK  9 active torsions:
REMARK  status: ('A' for Active; 'I' for Inactive)
REMARK    1  A    between atoms: C_1  and  O_2
REMARK    2  A    between atoms: O_2  and  C_3
REMARK    3  A    between atoms: C_10  and  C_11
REMARK    4  A    between atoms: N_13  and  C_14
REMARK    5  A    between atoms: C_14  and  C_15
REMARK    6  A    between atoms: C_18  and  N_19
REMARK    7  A    between atoms: N_19  and  C_20
REMARK    8  A    between atoms: C_20  and  C_21
REMARK    9  A    between atoms: N_25  and  C_26
REMARK                            x       y       z     vdW  Elec       q    Type
REMARK                         _______ _______ _______ _____ _____    ______ ____
ROOT
ATOM      1  C   UNL     1      47.237   3.599  17.048  0.00  0.00    +0.000 C 
ENDROOT
BRANCH   1   2
ATOM      2  C   UNL     1      48.636   3.569  17.607  0.00  0.00    +0.000 A 
ATOM      3  C   UNL     1      49.555   2.613  17.167  0.00  0.00    +0.000 A 
ATOM      4  C   UNL     1      50.896   2.679  17.564  0.00  0.00    +0.000 A 
ATOM      5  C   UNL     1      51.355   3.709  18.393  0.00  0.00    +0.000 A 
ATOM      6  C   UNL     1      50.400   4.559  18.961  0.00  0.00    +0.000 A 
ATOM      7  C   UNL     1      49.057   4.503  18.561  0.00  0.00    +0.000 A 
BRANCH   5   8
ATOM      8  N   UNL     1      52.707   3.868  18.770  0.00  0.00    +0.000 N 
ATOM      9  H   UNL     1      52.894   3.252  19.559  0.00  0.00    +0.000 HD
BRANCH   8  10
ATOM     10  C   UNL     1      53.679   3.664  17.682  0.00  0.00    +0.000 C 
BRANCH  10  11
ATOM     11  C   UNL     1      54.885   4.622  17.778  0.00  0.00    +0.000 C 
ATOM     12  C   UNL     1      55.298   5.238  16.433  0.00  0.00    +0.000 C 
ATOM     13  C   UNL     1      54.206   6.156  15.893  0.00  0.00    +0.000 C 
ATOM     14  C   UNL     1      53.827   7.222  16.925  0.00  0.00    +0.000 C 
ATOM     15  N   UNL     1      53.475   6.638  18.229  0.00  0.00    +0.000 NA
ATOM     16  C   UNL     1      53.156   7.701  19.185  0.00  0.00    +0.000 C 
ATOM     17  C   UNL     1      54.551   5.776  18.751  0.00  0.00    +0.000 C 
ENDBRANCH  10  11
ENDBRANCH   8  10
ENDBRANCH   5   8
ENDBRANCH   1   2
BRANCH   1  20
ATOM     18  C   UNL     1      47.156   4.191  14.666  0.00  0.00    +0.000 C 
ATOM     19  O   UNL     1      47.331   3.024  14.332  0.00  0.00    +0.000 OA
ATOM     20  N   UNL     1      47.096   4.555  15.983  0.00  0.00    +0.000 N 
ATOM     21  H   UNL     1      46.962   5.520  16.243  0.00  0.00    +0.000 HD
BRANCH  18  29
ATOM     22  C   UNL     1      48.921   7.067  13.996  0.00  0.00    +0.000 A 
ATOM     23  N   UNL     1      49.449   8.203  13.500  0.00  0.00    +0.000 NA
ATOM     24  C   UNL     1      48.849   8.761  12.442  0.00  0.00    +0.000 A 
ATOM     25  N   UNL     1      47.763   8.321  11.813  0.00  0.00    +0.000 NA
ATOM     26  C   UNL     1      47.281   7.179  12.331  0.00  0.00    +0.000 A 
ATOM     27  S   UNL     1      45.892   6.473  11.657  0.00  0.00    +0.000 S 
ATOM     28  C   UNL     1      45.943   5.188  12.768  0.00  0.00    +0.000 A 
ATOM     29  C   UNL     1      47.005   5.262  13.664  0.00  0.00    +0.000 A 
ATOM     30  C   UNL     1      47.791   6.465  13.408  0.00  0.00    +0.000 A 
BRANCH  22  32
ATOM     31  C   UNL     1      50.377   7.390  15.801  0.00  0.00    +0.000 C 
ATOM     32  O   UNL     1      49.537   6.489  15.085  0.00  0.00    +0.000 OA
ENDBRANCH  22  32
ENDBRANCH  18  29
ENDBRANCH   1  20
TORSDOF 7
ENDMDL
MODEL 7
REMARK VINA RESULT:    -6.018      2.302      2.606
REMARK INTER + INTRA:          -9.727
REMARK INTER:                  -8.621
REMARK INTRA:                  -1.105
REMARK UNBOUND:                -1.246
REMARK  Name = 
REMARK  9 active torsions:
REMARK  status: ('A' for Active; 'I' for Inactive)
REMARK    1  A    between atoms: C_1  and  O_2
REMARK    2  A    between atoms: O_2  and  C_3
REMARK    3  A    between atoms: C_10  and  C_11
REMARK    4  A    between atoms: N_13  and  C_14
REMARK    5  A    between atoms: C_14  and  C_15
REMARK    6  A    between atoms: C_18  and  N_19
REMARK    7  A    between atoms: N_19  and  C_20
REMARK    8  A    between atoms: C_20  and  C_21
REMARK    9  A    between atoms: N_25  and  C_26
REMARK                            x       y       z     vdW  Elec       q    Type
REMARK                         _______ _______ _______ _____ _____    ______ ____
ROOT
ATOM      1  C   UNL     1      46.899   8.857  13.315  0.00  0.00    +0.000 C 
ENDROOT
BRANCH   1   2
ATOM      2  C   UNL     1      46.284   7.575  12.817  0.00  0.00    +0.000 A 
ATOM      3  C   UNL     1      47.011   6.383  12.843  0.00  0.00    +0.000 A 
ATOM      4  C   UNL     1      46.394   5.165  12.531  0.00  0.00    +0.000 A 
ATOM      5  C   UNL     1      45.035   5.106  12.203  0.00  0.00    +0.000 A 
ATOM      6  C   UNL     1      44.359   6.317  12.017  0.00  0.00    +0.000 A 
ATOM      7  C   UNL     1      44.969   7.539  12.336  0.00  0.00    +0.000 A 
BRANCH   5   8
ATOM      8  N   UNL     1      44.341   3.903  11.947  0.00  0.00    +0.000 N 
ATOM      9  H   UNL     1      43.397   4.135  11.645  0.00  0.00    +0.000 HD
BRANCH   8  10
ATOM     10  C   UNL     1      45.006   2.999  10.993  0.00  0.00    +0.000 C 
BRANCH  10  11
ATOM     11  C   UNL     1      44.256   2.902   9.647  0.00  0.00    +0.000 C 
ATOM     12  C   UNL     1      44.375   4.162   8.779  0.00  0.00    +0.000 C 
ATOM     13  C   UNL     1      45.815   4.381   8.324  0.00  0.00    +0.000 C 
ATOM     14  C   UNL     1      46.360   3.137   7.616  0.00  0.00    +0.000 C 
ATOM     15  N   UNL     1      46.206   1.919   8.428  0.00  0.00    +0.000 NA
ATOM     16  C   UNL     1      46.711   0.758   7.690  0.00  0.00    +0.000 C 
ATOM     17  C   UNL     1      44.806   1.707   8.836  0.00  0.00    +0.000 C 
ENDBRANCH  10  11
ENDBRANCH   8  10
ENDBRANCH   5   8
ENDBRANCH   1   2
BRANCH   1  20
ATOM     18  C   UNL     1      48.369   9.404  15.206  0.00  0.00    +0.000 C 
ATOM     19  O   UNL     1      49.116  10.055  14.483  0.00  0.00    +0.000 OA
ATOM     20  N   UNL     1      47.256   8.785  14.707  0.00  0.00    +0.000 N 
ATOM     21  H   UNL     1      46.655   8.244  15.311  0.00  0.00    +0.000 HD
BRANCH  18  29
ATOM     22  C   UNL     1      50.964   8.032  16.998  0.00  0.00    +0.000 A 
ATOM     23  N   UNL     1      51.850   7.614  17.924  0.00  0.00    +0.000 NA
ATOM     24  C   UNL     1      51.542   7.799  19.212  0.00  0.00    +0.000 A 
ATOM     25  N   UNL     1      50.434   8.354  19.699  0.00  0.00    +0.000 NA
ATOM     26  C   UNL     1      49.590   8.769  18.741  0.00  0.00    +0.000 A 
ATOM     27  S   UNL     1      48.119   9.498  19.179  0.00  0.00    +0.000 S 
ATOM     28  C   UNL     1      47.684   9.717  17.551  0.00  0.00    +0.000 A 
ATOM     29  C   UNL     1      48.635   9.252  16.648  0.00  0.00    +0.000 A 
ATOM     30  C   UNL     1      49.764   8.670  17.367  0.00  0.00    +0.000 A 
BRANCH  22  32
ATOM     31  C   UNL     1      52.543   7.215  15.475  0.00  0.00    +0.000 C 
ATOM     32  O   UNL     1      51.280   7.843  15.670  0.00  0.00    +0.000 OA
ENDBRANCH  22  32
ENDBRANCH  18  29
ENDBRANCH   1  20
TORSDOF 7
ENDMDL
MODEL 8
REMARK VINA RESULT:    -5.870      3.685      9.495
REMARK INTER + INTRA:          -9.518
REMARK INTER:                  -7.961
REMARK INTRA:                  -1.558
REMARK UNBOUND:                -1.246
REMARK  Name = 
REMARK  9 active torsions:
REMARK  status: ('A' for Active; 'I' for Inactive)
REMARK    1  A    between atoms: C_1  and  O_2
REMARK    2  A    between atoms: O_2  and  C_3
REMARK    3  A    between atoms: C_10  and  C_11
REMARK    4  A    between atoms: N_13  and  C_14
REMARK    5  A    between atoms: C_14  and  C_15
REMARK    6  A    between atoms: C_18  and  N_19
REMARK    7  A    between atoms: N_19  and  C_20
REMARK    8  A    between atoms: C_20  and  C_21
REMARK    9  A    between atoms: N_25  and  C_26
REMARK                            x       y       z     vdW  Elec       q    Type
REMARK                         _______ _______ _______ _____ _____    ______ ____
ROOT
ATOM      1  C   UNL     1      47.527   3.552  16.406  0.00  0.00    +0.000 C 
ENDROOT
BRANCH   1   2
ATOM      2  C   UNL     1      47.921   4.279  17.666  0.00  0.00    +0.000 A 
ATOM      3  C   UNL     1      49.178   4.072  18.239  0.00  0.00    +0.000 A 
ATOM      4  C   UNL     1      49.608   4.859  19.314  0.00  0.00    +0.000 A 
ATOM      5  C   UNL     1      48.804   5.882  19.830  0.00  0.00    +0.000 A 
ATOM      6  C   UNL     1      47.489   5.971  19.362  0.00  0.00    +0.000 A 
ATOM      7  C   UNL     1      47.054   5.190  18.280  0.00  0.00    +0.000 A 
BRANCH   5   8
ATOM      8  N   UNL     1      49.210   6.753  20.864  0.00  0.00    +0.000 N 
ATOM      9  H   UNL     1      50.162   7.058  20.671  0.00  0.00    +0.000 HD
BRANCH   8  10
ATOM     10  C   UNL     1      48.312   7.898  21.095  0.00  0.00    +0.000 C 
BRANCH  10  11
ATOM     11  C   UNL     1      49.010   9.255  20.864  0.00  0.00    +0.000 C 
ATOM     12  C   UNL     1      49.702   9.372  19.497  0.00  0.00    +0.000 C 
ATOM     13  C   UNL     1      48.683   9.342  18.363  0.00  0.00    +0.000 C 
ATOM     14  C   UNL     1      47.611  10.417  18.562  0.00  0.00    +0.000 C 
ATOM     15  N   UNL     1      46.978  10.336  19.888  0.00  0.00    +0.000 NA
ATOM     16  C   UNL     1      45.987  11.406  20.037  0.00  0.00    +0.000 C 
ATOM     17  C   UNL     1      47.972  10.394  20.974  0.00  0.00    +0.000 C 
ENDBRANCH  10  11
ENDBRANCH   8  10
ENDBRANCH   5   8
ENDBRANCH   1   2
BRANCH   1  20
ATOM     18  C   UNL     1      46.694   4.117  14.166  0.00  0.00    +0.000 C 
ATOM     19  O   UNL     1      47.243   3.136  13.675  0.00  0.00    +0.000 OA
ATOM     20  N   UNL     1      46.786   4.390  15.503  0.00  0.00    +0.000 N 
ATOM     21  H   UNL     1      46.338   5.206  15.891  0.00  0.00    +0.000 HD
BRANCH  18  29
ATOM     22  C   UNL     1      46.997   7.471  13.466  0.00  0.00    +0.000 A 
ATOM     23  N   UNL     1      46.912   8.732  12.999  0.00  0.00    +0.000 NA
ATOM     24  C   UNL     1      45.916   9.020  12.154  0.00  0.00    +0.000 A 
ATOM     25  N   UNL     1      44.973   8.190  11.715  0.00  0.00    +0.000 NA
ATOM     26  C   UNL     1      45.106   6.943  12.194  0.00  0.00    +0.000 A 
ATOM     27  S   UNL     1      43.986   5.748  11.745  0.00  0.00    +0.000 S 
ATOM     28  C   UNL     1      44.786   4.573  12.676  0.00  0.00    +0.000 A 
ATOM     29  C   UNL     1      45.912   5.053  13.338  0.00  0.00    +0.000 A 
ATOM     30  C   UNL     1      46.087   6.475  13.060  0.00  0.00    +0.000 A 
BRANCH  22  32
ATOM     31  C   UNL     1      48.976   8.222  14.467  0.00  0.00    +0.000 C 
ATOM     32  O   UNL     1      48.023   7.171  14.336  0.00  0.00    +0.000 OA
ENDBRANCH  22  32
ENDBRANCH  18  29
ENDBRANCH   1  20
TORSDOF 7
ENDMDL
MODEL 9
REMARK VINA RESULT:    -5.846      3.475      7.995
REMARK INTER + INTRA:          -9.484
REMARK INTER:                  -7.655
REMARK INTRA:                  -1.829
REMARK UNBOUND:                -1.246
REMARK  Name = 
REMARK  9 active torsions:
REMARK  status: ('A' for Active; 'I' for Inactive)
REMARK    1  A    between atoms: C_1  and  O_2
REMARK    2  A    between atoms: O_2  and  C_3
REMARK    3  A    between atoms: C_10  and  C_11
REMARK    4  A    between atoms: N_13  and  C_14
REMARK    5  A    between atoms: C_14  and  C_15
REMARK    6  A    between atoms: C_18  and  N_19
REMARK    7  A    between atoms: N_19  and  C_20
REMARK    8  A    between atoms: C_20  and  C_21
REMARK    9  A    between atoms: N_25  and  C_26
REMARK                            x       y       z     vdW  Elec       q    Type
REMARK                         _______ _______ _______ _____ _____    ______ ____
ROOT
ATOM      1  C   UNL     1      48.187   8.896  12.418  0.00  0.00    +0.000 C 
ENDROOT
BRANCH   1   2
ATOM      2  C   UNL     1      48.961   8.656  13.689  0.00  0.00    +0.000 A 
ATOM      3  C   UNL     1      48.378   8.913  14.932  0.00  0.00    +0.000 A 
ATOM      4  C   UNL     1      49.031   8.545  16.114  0.00  0.00    +0.000 A 
ATOM      5  C   UNL     1      50.272   7.897  16.083  0.00  0.00    +0.000 A 
ATOM      6  C   UNL     1      50.920   7.796  14.848  0.00  0.00    +0.000 A 
ATOM      7  C   UNL     1      50.268   8.156  13.660  0.00  0.00    +0.000 A 
BRANCH   5   8
ATOM      8  N   UNL     1      50.946   7.440  17.236  0.00  0.00    +0.000 N 
ATOM      9  H   UNL     1      50.332   7.566  18.039  0.00  0.00    +0.000 HD
BRANCH   8  10
ATOM     10  C   UNL     1      51.446   6.057  17.151  0.00  0.00    +0.000 C 
BRANCH  10  11
ATOM     11  C   UNL     1      51.211   5.260  18.453  0.00  0.00    +0.000 C 
ATOM     12  C   UNL     1      49.810   5.451  19.052  0.00  0.00    +0.000 C 
ATOM     13  C   UNL     1      48.738   4.878  18.132  0.00  0.00    +0.000 C 
ATOM     14  C   UNL     1      49.029   3.412  17.798  0.00  0.00    +0.000 C 
ATOM     15  N   UNL     1      50.387   3.219  17.265  0.00  0.00    +0.000 NA
ATOM     16  C   UNL     1      50.623   1.798  16.997  0.00  0.00    +0.000 C 
ATOM     17  C   UNL     1      51.414   3.753  18.178  0.00  0.00    +0.000 C 
ENDBRANCH  10  11
ENDBRANCH   8  10
ENDBRANCH   5   8
ENDBRANCH   1   2
BRANCH   1  20
ATOM     18  C   UNL     1      45.904   7.989  12.436  0.00  0.00    +0.000 C 
ATOM     19  O   UNL     1      45.459   9.021  12.927  0.00  0.00    +0.000 OA
ATOM     20  N   UNL     1      47.235   7.850  12.155  0.00  0.00    +0.000 N 
ATOM     21  H   UNL     1      47.589   6.991  11.760  0.00  0.00    +0.000 HD
BRANCH  18  29
ATOM     22  C   UNL     1      46.219   4.590  12.854  0.00  0.00    +0.000 A 
ATOM     23  N   UNL     1      46.067   3.254  12.945  0.00  0.00    +0.000 NA
ATOM     24  C   UNL     1      44.922   2.724  12.500  0.00  0.00    +0.000 A 
ATOM     25  N   UNL     1      43.895   3.375  11.960  0.00  0.00    +0.000 NA
ATOM     26  C   UNL     1      44.084   4.703  11.905  0.00  0.00    +0.000 A 
ATOM     27  S   UNL     1      42.877   5.695  11.239  0.00  0.00    +0.000 S 
ATOM     28  C   UNL     1      43.798   7.095  11.524  0.00  0.00    +0.000 A 
ATOM     29  C   UNL     1      45.026   6.845  12.128  0.00  0.00    +0.000 A 
ATOM     30  C   UNL     1      45.199   5.411  12.336  0.00  0.00    +0.000 A 
BRANCH  22  32
ATOM     31  C   UNL     1      47.458   5.236  14.733  0.00  0.00    +0.000 C 
ATOM     32  O   UNL     1      47.397   5.139  13.313  0.00  0.00    +0.000 OA
ENDBRANCH  22  32
ENDBRANCH  18  29
ENDBRANCH   1  20
TORSDOF 7
ENDMDL
