MODEL 1
REMARK VINA RESULT:    -8.295      0.000      0.000
REMARK INTER + INTRA:         -10.810
REMARK INTER:                 -10.477
REMARK INTRA:                  -0.334
REMARK UNBOUND:                -0.334
REMARK  Name = 
REMARK  5 active torsions:
REMARK  status: ('A' for Active; 'I' for Inactive)
REMARK    1  A    between atoms: C_2  and  C_4
REMARK    2  A    between atoms: C_7  and  C_8
REMARK    3  A    between atoms: C_12  and  C_13
REMARK    4  A    between atoms: C_13  and  N_14
REMARK    5  A    between atoms: C_18  and  O_19
REMARK                            x       y       z     vdW  Elec       q    Type
REMARK                         _______ _______ _______ _____ _____    ______ ____
ROOT
ATOM      1  C   UNL     1      47.019   5.485  13.432  0.00  0.00    +0.000 A 
ATOM      2  N   UNL     1      47.706   6.409  12.736  0.00  0.00    +0.000 NA
ATOM      3  C   UNL     1      47.166   6.801  11.570  0.00  0.00    +0.000 A 
ATOM      4  C   UNL     1      45.969   6.325  11.085  0.00  0.00    +0.000 A 
ATOM      5  C   UNL     1      45.312   5.387  11.859  0.00  0.00    +0.000 A 
ATOM      6  N   UNL     1      45.851   4.951  13.019  0.00  0.00    +0.000 NA
ENDROOT
BRANCH   1  10
ATOM      7  C   UNL     1      48.439   4.250  17.252  0.00  0.00    +0.000 A 
ATOM      8  C   UNL     1      47.570   3.414  16.557  0.00  0.00    +0.000 A 
ATOM      9  C   UNL     1      47.109   3.810  15.302  0.00  0.00    +0.000 A 
ATOM     10  C   UNL     1      47.520   5.036  14.756  0.00  0.00    +0.000 A 
ATOM     11  N   UNL     1      48.358   5.860  15.445  0.00  0.00    +0.000 NA
ATOM     12  C   UNL     1      48.787   5.458  16.669  0.00  0.00    +0.000 A 
BRANCH   7  14
ATOM     13  N   UNL     1      48.251   3.049  19.352  0.00  0.00    +0.000 N 
ATOM     14  C   UNL     1      48.985   3.905  18.577  0.00  0.00    +0.000 C 
ATOM     15  O   UNL     1      50.068   4.334  18.957  0.00  0.00    +0.000 OA
ATOM     16  H   UNL     1      48.690   2.731  20.207  0.00  0.00    +0.000 HD
ATOM     17  H   UNL     1      47.500   2.489  18.976  0.00  0.00    +0.000 HD
ENDBRANCH   7  14
ENDBRANCH   1  10
BRANCH   5  18
ATOM     18  C   UNL     1      43.937   4.828  11.470  0.00  0.00    +0.000 C 
ATOM     19  C   UNL     1      42.777   5.801  11.369  0.00  0.00    +0.000 C 
ATOM     20  C   UNL     1      42.858   4.901  12.553  0.00  0.00    +0.000 C 
BRANCH  18  21
ATOM     21  N   UNL     1      43.987   3.540  10.752  0.00  0.00    +0.000 N 
ATOM     22  C   UNL     1      44.796   3.292   9.642  0.00  0.00    +0.000 A 
ATOM     23  C   UNL     1      44.990   4.220   8.623  0.00  0.00    +0.000 A 
ATOM     24  C   UNL     1      45.698   3.853   7.478  0.00  0.00    +0.000 A 
ATOM     25  C   UNL     1      46.202   2.568   7.389  0.00  0.00    +0.000 A 
ATOM     26  C   UNL     1      46.002   1.710   8.456  0.00  0.00    +0.000 A 
ATOM     27  N   UNL     1      45.307   2.046   9.570  0.00  0.00    +0.000 NA
ATOM     28  H   UNL     1      44.065   2.713  11.345  0.00  0.00    +0.000 HD
BRANCH  25  29
ATOM     29  O   UNL     1      46.867   2.131   6.288  0.00  0.00    +0.000 OA
ATOM     30  H   UNL     1      46.626   2.694   5.533  0.00  0.00    +0.000 HD
ENDBRANCH  25  29
ENDBRANCH  18  21
ENDBRANCH   5  18
TORSDOF 5
ENDMDL
MODEL 2
REMARK VINA RESULT:    -8.135      2.889      4.413
REMARK INTER + INTRA:         -10.609
REMARK INTER:                  -9.803
REMARK INTRA:                  -0.806
REMARK UNBOUND:                -0.334
REMARK  Name = 
REMARK  5 active torsions:
REMARK  status: ('A' for Active; 'I' for Inactive)
REMARK    1  A    between atoms: C_2  and  C_4
REMARK    2  A    between atoms: C_7  and  C_8
REMARK    3  A    between atoms: C_12  and  C_13
REMARK    4  A    between atoms: C_13  and  N_14
REMARK    5  A    between atoms: C_18  and  O_19
REMARK                            x       y       z     vdW  Elec       q    Type
REMARK                         _______ _______ _______ _____ _____    ______ ____
ROOT
ATOM      1  C   UNL     1      47.115   5.708  12.765  0.00  0.00    +0.000 A 
ATOM      2  N   UNL     1      47.502   4.731  13.605  0.00  0.00    +0.000 NA
ATOM      3  C   UNL     1      46.744   3.623  13.622  0.00  0.00    +0.000 A 
ATOM      4  C   UNL     1      45.634   3.446  12.827  0.00  0.00    +0.000 A 
ATOM      5  C   UNL     1      45.302   4.486  11.980  0.00  0.00    +0.000 A 
ATOM      6  N   UNL     1      46.029   5.625  11.969  0.00  0.00    +0.000 NA
ENDROOT
BRANCH   1  10
ATOM      7  C   UNL     1      49.490   9.223  12.399  0.00  0.00    +0.000 A 
ATOM      8  C   UNL     1      48.159   9.268  11.993  0.00  0.00    +0.000 A 
ATOM      9  C   UNL     1      47.375   8.122  12.120  0.00  0.00    +0.000 A 
ATOM     10  C   UNL     1      47.929   6.945  12.647  0.00  0.00    +0.000 A 
ATOM     11  N   UNL     1      49.235   6.899  13.029  0.00  0.00    +0.000 NA
ATOM     12  C   UNL     1      49.983   8.024  12.889  0.00  0.00    +0.000 A 
BRANCH   7  14
ATOM     13  N   UNL     1      50.809  10.763  11.067  0.00  0.00    +0.000 N 
ATOM     14  C   UNL     1      50.387  10.390  12.314  0.00  0.00    +0.000 C 
ATOM     15  O   UNL     1      50.712  11.025  13.310  0.00  0.00    +0.000 OA
ATOM     16  H   UNL     1      51.328  11.630  11.011  0.00  0.00    +0.000 HD
ATOM     17  H   UNL     1      50.366  10.429  10.223  0.00  0.00    +0.000 HD
ENDBRANCH   7  14
ENDBRANCH   1  10
BRANCH   5  18
ATOM     18  C   UNL     1      44.132   4.391  10.991  0.00  0.00    +0.000 C 
ATOM     19  C   UNL     1      43.408   5.671  10.621  0.00  0.00    +0.000 C 
ATOM     20  C   UNL     1      42.750   4.720  11.560  0.00  0.00    +0.000 C 
BRANCH  18  21
ATOM     21  N   UNL     1      44.161   3.192  10.131  0.00  0.00    +0.000 N 
ATOM     22  C   UNL     1      45.136   2.946   9.162  0.00  0.00    +0.000 A 
ATOM     23  C   UNL     1      45.641   3.937   8.326  0.00  0.00    +0.000 A 
ATOM     24  C   UNL     1      46.509   3.592   7.289  0.00  0.00    +0.000 A 
ATOM     25  C   UNL     1      46.857   2.264   7.125  0.00  0.00    +0.000 A 
ATOM     26  C   UNL     1      46.346   1.337   8.016  0.00  0.00    +0.000 A 
ATOM     27  N   UNL     1      45.492   1.652   9.020  0.00  0.00    +0.000 NA
ATOM     28  H   UNL     1      44.017   2.305  10.614  0.00  0.00    +0.000 HD
BRANCH  25  29
ATOM     29  O   UNL     1      47.666   1.852   6.115  0.00  0.00    +0.000 OA
ATOM     30  H   UNL     1      47.280   1.057   5.709  0.00  0.00    +0.000 HD
ENDBRANCH  25  29
ENDBRANCH  18  21
ENDBRANCH   5  18
TORSDOF 5
ENDMDL
MODEL 3
REMARK VINA RESULT:    -7.501      2.529      8.044
REMARK INTER + INTRA:          -9.808
REMARK INTER:                  -9.042
REMARK INTRA:                  -0.766
REMARK UNBOUND:                -0.334
REMARK  Name = 
REMARK  5 active torsions:
REMARK  status: ('A' for Active; 'I' for Inactive)
REMARK    1  A    between atoms: C_2  and  C_4
REMARK    2  A    between atoms: C_7  and  C_8
REMARK    3  A    between atoms: C_12  and  C_13
REMARK    4  A    between atoms: C_13  and  N_14
REMARK    5  A    between atoms: C_18  and  O_19
REMARK                            x       y       z     vdW  Elec       q    Type
REMARK                         _______ _______ _______ _____ _____    ______ ____
ROOT
ATOM      1  C   UNL     1      47.939   5.849  14.365  0.00  0.00    +0.000 A 
ATOM      2  N   UNL     1      48.915   6.632  13.871  0.00  0.00    +0.000 NA
ATOM      3  C   UNL     1      49.765   7.164  14.765  0.00  0.00    +0.000 A 
ATOM      4  C   UNL     1      49.690   6.932  16.120  0.00  0.00    +0.000 A 
ATOM      5  C   UNL     1      48.669   6.108  16.555  0.00  0.00    +0.000 A 
ATOM      6  N   UNL     1      47.781   5.588  15.678  0.00  0.00    +0.000 NA
ENDROOT
BRANCH   1  10
ATOM      7  C   UNL     1      45.187   3.912  11.756  0.00  0.00    +0.000 A 
ATOM      8  C   UNL     1      45.497   5.251  11.530  0.00  0.00    +0.000 A 
ATOM      9  C   UNL     1      46.404   5.886  12.377  0.00  0.00    +0.000 A 
ATOM     10  C   UNL     1      46.990   5.180  13.439  0.00  0.00    +0.000 A 
ATOM     11  N   UNL     1      46.674   3.875  13.667  0.00  0.00    +0.000 NA
ATOM     12  C   UNL     1      45.781   3.278  12.836  0.00  0.00    +0.000 A 
BRANCH   7  14
ATOM     13  N   UNL     1      44.791   2.297   9.989  0.00  0.00    +0.000 N 
ATOM     14  C   UNL     1      44.249   3.158  10.905  0.00  0.00    +0.000 C 
ATOM     15  O   UNL     1      43.036   3.264  11.035  0.00  0.00    +0.000 OA
ATOM     16  H   UNL     1      44.139   1.703   9.493  0.00  0.00    +0.000 HD
ATOM     17  H   UNL     1      45.755   2.001  10.030  0.00  0.00    +0.000 HD
ENDBRANCH   7  14
ENDBRANCH   1  10
BRANCH   5  18
ATOM     18  C   UNL     1      48.514   5.710  18.030  0.00  0.00    +0.000 C 
ATOM     19  C   UNL     1      47.110   5.527  18.573  0.00  0.00    +0.000 C 
ATOM     20  C   UNL     1      47.865   6.758  18.937  0.00  0.00    +0.000 C 
BRANCH  18  21
ATOM     21  N   UNL     1      49.706   5.062  18.611  0.00  0.00    +0.000 N 
ATOM     22  C   UNL     1      50.289   3.898  18.107  0.00  0.00    +0.000 A 
ATOM     23  C   UNL     1      49.546   2.817  17.643  0.00  0.00    +0.000 A 
ATOM     24  C   UNL     1      50.193   1.634  17.284  0.00  0.00    +0.000 A 
ATOM     25  C   UNL     1      51.571   1.570  17.389  0.00  0.00    +0.000 A 
ATOM     26  C   UNL     1      52.248   2.695  17.824  0.00  0.00    +0.000 A 
ATOM     27  N   UNL     1      51.635   3.848  18.187  0.00  0.00    +0.000 NA
ATOM     28  H   UNL     1      50.479   5.689  18.831  0.00  0.00    +0.000 HD
BRANCH  25  29
ATOM     29  O   UNL     1      52.263   0.439  17.095  0.00  0.00    +0.000 OA
ATOM     30  H   UNL     1      51.775  -0.326  17.446  0.00  0.00    +0.000 HD
ENDBRANCH  25  29
ENDBRANCH  18  21
ENDBRANCH   5  18
TORSDOF 5
ENDMDL
MODEL 4
REMARK VINA RESULT:    -7.306      3.364      7.716
REMARK INTER + INTRA:          -9.562
REMARK INTER:                  -9.968
REMARK INTRA:                   0.405
REMARK UNBOUND:                -0.334
REMARK  Name = 
REMARK  5 active torsions:
REMARK  status: ('A' for Active; 'I' for Inactive)
REMARK    1  A    between atoms: C_2  and  C_4
REMARK    2  A    between atoms: C_7  and  C_8
REMARK    3  A    between atoms: C_12  and  C_13
REMARK    4  A    between atoms: C_13  and  N_14
REMARK    5  A    between atoms: C_18  and  O_19
REMARK                            x       y       z     vdW  Elec       q    Type
REMARK                         _______ _______ _______ _____ _____    ______ ____
ROOT
ATOM      1  C   UNL     1      44.553   4.838  10.369  0.00  0.00    +0.000 A 
ATOM      2  N   UNL     1      43.281   4.495  10.644  0.00  0.00    +0.000 NA
ATOM      3  C   UNL     1      42.657   5.222  11.586  0.00  0.00    +0.000 A 
ATOM      4  C   UNL     1      43.241   6.280  12.245  0.00  0.00    +0.000 A 
ATOM      5  C   UNL     1      44.545   6.583  11.903  0.00  0.00    +0.000 A 
ATOM      6  N   UNL     1      45.206   5.846  10.983  0.00  0.00    +0.000 NA
ENDROOT
BRANCH   1  10
ATOM      7  C   UNL     1      46.735   2.807   7.329  0.00  0.00    +0.000 A 
ATOM      8  C   UNL     1      45.997   2.057   8.240  0.00  0.00    +0.000 A 
ATOM      9  C   UNL     1      45.273   2.718   9.231  0.00  0.00    +0.000 A 
ATOM     10  C   UNL     1      45.297   4.119   9.304  0.00  0.00    +0.000 A 
ATOM     11  N   UNL     1      46.033   4.851   8.422  0.00  0.00    +0.000 NA
ATOM     12  C   UNL     1      46.737   4.186   7.470  0.00  0.00    +0.000 A 
BRANCH   7  14
ATOM     13  N   UNL     1      47.757   2.960   5.134  0.00  0.00    +0.000 N 
ATOM     14  C   UNL     1      47.519   2.193   6.242  0.00  0.00    +0.000 C 
ATOM     15  O   UNL     1      47.973   1.060   6.338  0.00  0.00    +0.000 OA
ATOM     16  H   UNL     1      48.390   2.570   4.447  0.00  0.00    +0.000 HD
ATOM     17  H   UNL     1      47.621   3.961   5.129  0.00  0.00    +0.000 HD
ENDBRANCH   7  14
ENDBRANCH   1  10
BRANCH   5  18
ATOM     18  C   UNL     1      45.289   7.781  12.509  0.00  0.00    +0.000 C 
ATOM     19  C   UNL     1      44.562   9.110  12.575  0.00  0.00    +0.000 C 
ATOM     20  C   UNL     1      45.617   8.920  11.541  0.00  0.00    +0.000 C 
BRANCH  18  21
ATOM     21  N   UNL     1      46.400   7.413  13.408  0.00  0.00    +0.000 N 
ATOM     22  C   UNL     1      47.746   7.665  13.135  0.00  0.00    +0.000 A 
ATOM     23  C   UNL     1      48.306   7.504  11.871  0.00  0.00    +0.000 A 
ATOM     24  C   UNL     1      49.685   7.639  11.702  0.00  0.00    +0.000 A 
ATOM     25  C   UNL     1      50.464   7.943  12.803  0.00  0.00    +0.000 A 
ATOM     26  C   UNL     1      49.836   8.125  14.022  0.00  0.00    +0.000 A 
ATOM     27  N   UNL     1      48.500   7.985  14.206  0.00  0.00    +0.000 NA
ATOM     28  H   UNL     1      46.265   7.654  14.390  0.00  0.00    +0.000 HD
BRANCH  25  29
ATOM     29  O   UNL     1      51.816   8.051  12.719  0.00  0.00    +0.000 OA
ATOM     30  H   UNL     1      52.209   7.692  13.532  0.00  0.00    +0.000 HD
ENDBRANCH  25  29
ENDBRANCH  18  21
ENDBRANCH   5  18
TORSDOF 5
ENDMDL
MODEL 5
REMARK VINA RESULT:    -7.252      2.521      3.357
REMARK INTER + INTRA:          -9.493
REMARK INTER:                  -8.783
REMARK INTRA:                  -0.709
REMARK UNBOUND:                -0.334
REMARK  Name = 
REMARK  5 active torsions:
REMARK  status: ('A' for Active; 'I' for Inactive)
REMARK    1  A    between atoms: C_2  and  C_4
REMARK    2  A    between atoms: C_7  and  C_8
REMARK    3  A    between atoms: C_12  and  C_13
REMARK    4  A    between atoms: C_13  and  N_14
REMARK    5  A    between atoms: C_18  and  O_19
REMARK                            x       y       z     vdW  Elec       q    Type
REMARK                         _______ _______ _______ _____ _____    ______ ____
ROOT
ATOM      1  C   UNL     1      48.252   6.555  14.203  0.00  0.00    +0.000 A 
ATOM      2  N   UNL     1      49.340   6.744  13.434  0.00  0.00    +0.000 NA
ATOM      3  C   UNL     1      49.129   7.292  12.226  0.00  0.00    +0.000 A 
ATOM      4  C   UNL     1      47.889   7.671  11.765  0.00  0.00    +0.000 A 
ATOM      5  C   UNL     1      46.818   7.458  12.613  0.00  0.00    +0.000 A 
ATOM      6  N   UNL     1      46.999   6.877  13.820  0.00  0.00    +0.000 NA
ENDROOT
BRANCH   1  10
ATOM      7  C   UNL     1      48.706   4.924  18.109  0.00  0.00    +0.000 A 
ATOM      8  C   UNL     1      49.261   6.170  17.834  0.00  0.00    +0.000 A 
ATOM      9  C   UNL     1      49.107   6.712  16.559  0.00  0.00    +0.000 A 
ATOM     10  C   UNL     1      48.404   6.004  15.573  0.00  0.00    +0.000 A 
ATOM     11  N   UNL     1      47.874   4.777  15.840  0.00  0.00    +0.000 NA
ATOM     12  C   UNL     1      48.044   4.264  17.086  0.00  0.00    +0.000 A 
BRANCH   7  14
ATOM     13  N   UNL     1      48.341   3.000  19.542  0.00  0.00    +0.000 N 
ATOM     14  C   UNL     1      48.809   4.281  19.432  0.00  0.00    +0.000 C 
ATOM     15  O   UNL     1      49.327   4.851  20.385  0.00  0.00    +0.000 OA
ATOM     16  H   UNL     1      48.522   2.531  20.421  0.00  0.00    +0.000 HD
ATOM     17  H   UNL     1      48.149   2.423  18.736  0.00  0.00    +0.000 HD
ENDBRANCH   7  14
ENDBRANCH   1  10
BRANCH   5  18
ATOM     18  C   UNL     1      45.393   7.899  12.253  0.00  0.00    +0.000 C 
ATOM     19  C   UNL     1      45.211   8.800  11.046  0.00  0.00    +0.000 C 
ATOM     20  C   UNL     1      45.099   9.393  12.408  0.00  0.00    +0.000 C 
BRANCH  18  21
ATOM     21  N   UNL     1      44.334   7.017  12.781  0.00  0.00    +0.000 N 
ATOM     22  C   UNL     1      44.143   5.694  12.378  0.00  0.00    +0.000 A 
ATOM     23  C   UNL     1      44.257   5.280  11.054  0.00  0.00    +0.000 A 
ATOM     24  C   UNL     1      43.916   3.974  10.705  0.00  0.00    +0.000 A 
ATOM     25  C   UNL     1      43.480   3.111  11.695  0.00  0.00    +0.000 A 
ATOM     26  C   UNL     1      43.425   3.580  12.995  0.00  0.00    +0.000 A 
ATOM     27  N   UNL     1      43.741   4.849  13.350  0.00  0.00    +0.000 NA
ATOM     28  H   UNL     1      44.231   7.018  13.796  0.00  0.00    +0.000 HD
BRANCH  25  29
ATOM     29  O   UNL     1      43.095   1.838  11.421  0.00  0.00    +0.000 OA
ATOM     30  H   UNL     1      43.247   1.661  10.477  0.00  0.00    +0.000 HD
ENDBRANCH  25  29
ENDBRANCH  18  21
ENDBRANCH   5  18
TORSDOF 5
ENDMDL
MODEL 6
REMARK VINA RESULT:    -7.106      3.260      9.223
REMARK INTER + INTRA:          -9.309
REMARK INTER:                  -8.560
REMARK INTRA:                  -0.750
REMARK UNBOUND:                -0.334
REMARK  Name = 
REMARK  5 active torsions:
REMARK  status: ('A' for Active; 'I' for Inactive)
REMARK    1  A    between atoms: C_2  and  C_4
REMARK    2  A    between atoms: C_7  and  C_8
REMARK    3  A    between atoms: C_12  and  C_13
REMARK    4  A    between atoms: C_13  and  N_14
REMARK    5  A    between atoms: C_18  and  O_19
REMARK                            x       y       z     vdW  Elec       q    Type
REMARK                         _______ _______ _______ _____ _____    ______ ____
ROOT
ATOM      1  C   UNL     1      47.251   4.508  15.327  0.00  0.00    +0.000 A 
ATOM      2  N   UNL     1      46.801   3.593  16.205  0.00  0.00    +0.000 NA
ATOM      3  C   UNL     1      47.410   3.563  17.401  0.00  0.00    +0.000 A 
ATOM      4  C   UNL     1      48.430   4.415  17.760  0.00  0.00    +0.000 A 
ATOM      5  C   UNL     1      48.833   5.338  16.813  0.00  0.00    +0.000 A 
ATOM      6  N   UNL     1      48.259   5.365  15.590  0.00  0.00    +0.000 NA
ENDROOT
BRANCH   1  10
ATOM      7  C   UNL     1      45.327   4.875  11.547  0.00  0.00    +0.000 A 
ATOM      8  C   UNL     1      46.052   5.957  12.038  0.00  0.00    +0.000 A 
ATOM      9  C   UNL     1      46.691   5.838  13.271  0.00  0.00    +0.000 A 
ATOM     10  C   UNL     1      46.598   4.643  14.001  0.00  0.00    +0.000 A 
ATOM     11  N   UNL     1      45.874   3.590  13.526  0.00  0.00    +0.000 NA
ATOM     12  C   UNL     1      45.252   3.731  12.327  0.00  0.00    +0.000 A 
BRANCH   7  14
ATOM     13  N   UNL     1      45.403   5.053   9.129  0.00  0.00    +0.000 N 
ATOM     14  C   UNL     1      44.630   4.907  10.248  0.00  0.00    +0.000 C 
ATOM     15  O   UNL     1      43.415   4.771  10.167  0.00  0.00    +0.000 OA
ATOM     16  H   UNL     1      44.927   4.958   8.240  0.00  0.00    +0.000 HD
ATOM     17  H   UNL     1      46.403   4.913   9.140  0.00  0.00    +0.000 HD
ENDBRANCH   7  14
ENDBRANCH   1  10
BRANCH   5  18
ATOM     18  C   UNL     1      49.908   6.392  17.108  0.00  0.00    +0.000 C 
ATOM     19  C   UNL     1      50.593   7.058  15.930  0.00  0.00    +0.000 C 
ATOM     20  C   UNL     1      51.335   6.020  16.698  0.00  0.00    +0.000 C 
BRANCH  18  21
ATOM     21  N   UNL     1      49.805   7.006  18.446  0.00  0.00    +0.000 N 
ATOM     22  C   UNL     1      48.802   7.901  18.823  0.00  0.00    +0.000 A 
ATOM     23  C   UNL     1      48.330   8.907  17.985  0.00  0.00    +0.000 A 
ATOM     24  C   UNL     1      47.428   9.851  18.476  0.00  0.00    +0.000 A 
ATOM     25  C   UNL     1      47.013   9.754  19.792  0.00  0.00    +0.000 A 
ATOM     26  C   UNL     1      47.494   8.707  20.556  0.00  0.00    +0.000 A 
ATOM     27  N   UNL     1      48.380   7.789  20.099  0.00  0.00    +0.000 NA
ATOM     28  H   UNL     1      49.914   6.362  19.231  0.00  0.00    +0.000 HD
BRANCH  25  29
ATOM     29  O   UNL     1      46.166  10.660  20.347  0.00  0.00    +0.000 OA
ATOM     30  H   UNL     1      46.375  10.745  21.293  0.00  0.00    +0.000 HD
ENDBRANCH  25  29
ENDBRANCH  18  21
ENDBRANCH   5  18
TORSDOF 5
ENDMDL
MODEL 7
REMARK VINA RESULT:    -7.005      2.834      8.080
REMARK INTER + INTRA:          -9.181
REMARK INTER:                  -8.590
REMARK INTRA:                  -0.591
REMARK UNBOUND:                -0.334
REMARK  Name = 
REMARK  5 active torsions:
REMARK  status: ('A' for Active; 'I' for Inactive)
REMARK    1  A    between atoms: C_2  and  C_4
REMARK    2  A    between atoms: C_7  and  C_8
REMARK    3  A    between atoms: C_12  and  C_13
REMARK    4  A    between atoms: C_13  and  N_14
REMARK    5  A    between atoms: C_18  and  O_19
REMARK                            x       y       z     vdW  Elec       q    Type
REMARK                         _______ _______ _______ _____ _____    ______ ____
ROOT
ATOM      1  C   UNL     1      47.385   3.962  15.066  0.00  0.00    +0.000 A 
ATOM      2  N   UNL     1      47.844   2.722  15.314  0.00  0.00    +0.000 NA
ATOM      3  C   UNL     1      48.483   2.544  16.482  0.00  0.00    +0.000 A 
ATOM      4  C   UNL     1      48.664   3.543  17.412  0.00  0.00    +0.000 A 
ATOM      5  C   UNL     1      48.155   4.789  17.096  0.00  0.00    +0.000 A 
ATOM      6  N   UNL     1      47.538   5.001  15.912  0.00  0.00    +0.000 NA
ENDROOT
BRANCH   1  10
ATOM      7  C   UNL     1      45.150   4.701  11.518  0.00  0.00    +0.000 A 
ATOM      8  C   UNL     1      45.750   5.775  12.169  0.00  0.00    +0.000 A 
ATOM      9  C   UNL     1      46.490   5.537  13.326  0.00  0.00    +0.000 A 
ATOM     10  C   UNL     1      46.621   4.230  13.821  0.00  0.00    +0.000 A 
ATOM     11  N   UNL     1      46.021   3.182  13.191  0.00  0.00    +0.000 NA
ATOM     12  C   UNL     1      45.297   3.439  12.071  0.00  0.00    +0.000 A 
BRANCH   7  14
ATOM     13  N   UNL     1      45.029   4.737   9.095  0.00  0.00    +0.000 N 
ATOM     14  C   UNL     1      44.361   4.859  10.282  0.00  0.00    +0.000 C 
ATOM     15  O   UNL     1      43.151   5.051  10.313  0.00  0.00    +0.000 OA
ATOM     16  H   UNL     1      44.458   4.732   8.259  0.00  0.00    +0.000 HD
ATOM     17  H   UNL     1      45.952   4.333   9.032  0.00  0.00    +0.000 HD
ENDBRANCH   7  14
ENDBRANCH   1  10
BRANCH   5  18
ATOM     18  C   UNL     1      48.226   5.970  18.073  0.00  0.00    +0.000 C 
ATOM     19  C   UNL     1      48.519   5.671  19.531  0.00  0.00    +0.000 C 
ATOM     20  C   UNL     1      47.126   6.021  19.136  0.00  0.00    +0.000 C 
BRANCH  18  21
ATOM     21  N   UNL     1      48.508   7.270  17.433  0.00  0.00    +0.000 N 
ATOM     22  C   UNL     1      49.533   7.482  16.509  0.00  0.00    +0.000 A 
ATOM     23  C   UNL     1      50.800   6.921  16.640  0.00  0.00    +0.000 A 
ATOM     24  C   UNL     1      51.815   7.288  15.755  0.00  0.00    +0.000 A 
ATOM     25  C   UNL     1      51.529   8.201  14.755  0.00  0.00    +0.000 A 
ATOM     26  C   UNL     1      50.239   8.690  14.663  0.00  0.00    +0.000 A 
ATOM     27  N   UNL     1      49.244   8.353  15.520  0.00  0.00    +0.000 NA
ATOM     28  H   UNL     1      47.693   7.760  17.065  0.00  0.00    +0.000 HD
BRANCH  25  29
ATOM     29  O   UNL     1      52.477   8.632  13.884  0.00  0.00    +0.000 OA
ATOM     30  H   UNL     1      52.314   8.225  13.016  0.00  0.00    +0.000 HD
ENDBRANCH  25  29
ENDBRANCH  18  21
ENDBRANCH   5  18
TORSDOF 5
ENDMDL
MODEL 8
REMARK VINA RESULT:    -6.948      2.954      7.832
REMARK INTER + INTRA:          -9.109
REMARK INTER:                  -8.384
REMARK INTRA:                  -0.726
REMARK UNBOUND:                -0.334
REMARK  Name = 
REMARK  5 active torsions:
REMARK  status: ('A' for Active; 'I' for Inactive)
REMARK    1  A    between atoms: C_2  and  C_4
REMARK    2  A    between atoms: C_7  and  C_8
REMARK    3  A    between atoms: C_12  and  C_13
REMARK    4  A    between atoms: C_13  and  N_14
REMARK    5  A    between atoms: C_18  and  O_19
REMARK                            x       y       z     vdW  Elec       q    Type
REMARK                         _______ _______ _______ _____ _____    ______ ____
ROOT
ATOM      1  C   UNL     1      44.950   4.349  10.612  0.00  0.00    +0.000 A 
ATOM      2  N   UNL     1      43.646   4.662  10.712  0.00  0.00    +0.000 NA
ATOM      3  C   UNL     1      43.237   5.145  11.897  0.00  0.00    +0.000 A 
ATOM      4  C   UNL     1      44.075   5.342  12.971  0.00  0.00    +0.000 A 
ATOM      5  C   UNL     1      45.405   5.010  12.793  0.00  0.00    +0.000 A 
ATOM      6  N   UNL     1      45.834   4.490  11.621  0.00  0.00    +0.000 NA
ENDROOT
BRANCH   1  10
ATOM      7  C   UNL     1      46.559   2.975   6.917  0.00  0.00    +0.000 A 
ATOM      8  C   UNL     1      46.076   2.039   7.827  0.00  0.00    +0.000 A 
ATOM      9  C   UNL     1      45.541   2.485   9.035  0.00  0.00    +0.000 A 
ATOM     10  C   UNL     1      45.495   3.858   9.320  0.00  0.00    +0.000 A 
ATOM     11  N   UNL     1      45.981   4.772   8.435  0.00  0.00    +0.000 NA
ATOM     12  C   UNL     1      46.507   4.315   7.269  0.00  0.00    +0.000 A 
BRANCH   7  14
ATOM     13  N   UNL     1      48.451   2.243   5.587  0.00  0.00    +0.000 N 
ATOM     14  C   UNL     1      47.130   2.595   5.611  0.00  0.00    +0.000 C 
ATOM     15  O   UNL     1      46.444   2.557   4.597  0.00  0.00    +0.000 OA
ATOM     16  H   UNL     1      48.800   1.875   4.712  0.00  0.00    +0.000 HD
ATOM     17  H   UNL     1      48.968   2.020   6.426  0.00  0.00    +0.000 HD
ENDBRANCH   7  14
ENDBRANCH   1  10
BRANCH   5  18
ATOM     18  C   UNL     1      46.458   5.246  13.884  0.00  0.00    +0.000 C 
ATOM     19  C   UNL     1      47.421   4.118  14.199  0.00  0.00    +0.000 C 
ATOM     20  C   UNL     1      46.308   4.398  15.149  0.00  0.00    +0.000 C 
BRANCH  18  21
ATOM     21  N   UNL     1      46.755   6.669  14.141  0.00  0.00    +0.000 N 
ATOM     22  C   UNL     1      47.375   7.518  13.224  0.00  0.00    +0.000 A 
ATOM     23  C   UNL     1      48.443   7.121  12.424  0.00  0.00    +0.000 A 
ATOM     24  C   UNL     1      49.103   8.062  11.633  0.00  0.00    +0.000 A 
ATOM     25  C   UNL     1      48.668   9.375  11.655  0.00  0.00    +0.000 A 
ATOM     26  C   UNL     1      47.579   9.691  12.446  0.00  0.00    +0.000 A 
ATOM     27  N   UNL     1      46.933   8.793  13.230  0.00  0.00    +0.000 NA
ATOM     28  H   UNL     1      45.989   7.207  14.547  0.00  0.00    +0.000 HD
BRANCH  25  29
ATOM     29  O   UNL     1      49.288  10.350  10.940  0.00  0.00    +0.000 OA
ATOM     30  H   UNL     1      50.223  10.383  11.203  0.00  0.00    +0.000 HD
ENDBRANCH  25  29
ENDBRANCH  18  21
ENDBRANCH   5  18
TORSDOF 5
ENDMDL
MODEL 9
REMARK VINA RESULT:    -6.698      2.677      7.948
REMARK INTER + INTRA:          -8.794
REMARK INTER:                  -8.186
REMARK INTRA:                  -0.608
REMARK UNBOUND:                -0.334
REMARK  Name = 
REMARK  5 active torsions:
REMARK  status: ('A' for Active; 'I' for Inactive)
REMARK    1  A    between atoms: C_2  and  C_4
REMARK    2  A    between atoms: C_7  and  C_8
REMARK    3  A    between atoms: C_12  and  C_13
REMARK    4  A    between atoms: C_13  and  N_14
REMARK    5  A    between atoms: C_18  and  O_19
REMARK                            x       y       z     vdW  Elec       q    Type
REMARK                         _______ _______ _______ _____ _____    ______ ____
ROOT
ATOM      1  C   UNL     1      46.877   7.574  12.486  0.00  0.00    +0.000 A 
ATOM      2  N   UNL     1      46.429   8.794  12.136  0.00  0.00    +0.000 NA
ATOM      3  C   UNL     1      47.162   9.841  12.549  0.00  0.00    +0.000 A 
ATOM      4  C   UNL     1      48.325   9.718  13.275  0.00  0.00    +0.000 A 
ATOM      5  C   UNL     1      48.733   8.435  13.589  0.00  0.00    +0.000 A 
ATOM      6  N   UNL     1      47.994   7.367  13.214  0.00  0.00    +0.000 NA
ENDROOT
BRANCH   1  10
ATOM      7  C   UNL     1      44.759   4.111  11.203  0.00  0.00    +0.000 A 
ATOM      8  C   UNL     1      45.225   5.006  10.244  0.00  0.00    +0.000 A 
ATOM      9  C   UNL     1      45.927   6.136  10.659  0.00  0.00    +0.000 A 
ATOM     10  C   UNL     1      46.153   6.362  12.025  0.00  0.00    +0.000 A 
ATOM     11  N   UNL     1      45.684   5.493  12.964  0.00  0.00    +0.000 NA
ATOM     12  C   UNL     1      44.995   4.403  12.537  0.00  0.00    +0.000 A 
BRANCH   7  14
ATOM     13  N   UNL     1      44.521   2.121   9.836  0.00  0.00    +0.000 N 
ATOM     14  C   UNL     1      44.019   2.884  10.854  0.00  0.00    +0.000 C 
ATOM     15  O   UNL     1      43.021   2.538  11.474  0.00  0.00    +0.000 OA
ATOM     16  H   UNL     1      44.072   1.226   9.684  0.00  0.00    +0.000 HD
ATOM     17  H   UNL     1      45.460   2.238   9.484  0.00  0.00    +0.000 HD
ENDBRANCH   7  14
ENDBRANCH   1  10
BRANCH   5  18
ATOM     18  C   UNL     1      50.046   8.154  14.331  0.00  0.00    +0.000 C 
ATOM     19  C   UNL     1      50.921   9.338  14.699  0.00  0.00    +0.000 C 
ATOM     20  C   UNL     1      51.328   8.471  13.558  0.00  0.00    +0.000 C 
BRANCH  18  21
ATOM     21  N   UNL     1      50.075   6.864  15.046  0.00  0.00    +0.000 N 
ATOM     22  C   UNL     1      49.263   6.555  16.139  0.00  0.00    +0.000 A 
ATOM     23  C   UNL     1      48.981   7.464  17.155  0.00  0.00    +0.000 A 
ATOM     24  C   UNL     1      48.278   7.045  18.285  0.00  0.00    +0.000 A 
ATOM     25  C   UNL     1      47.866   5.726  18.361  0.00  0.00    +0.000 A 
ATOM     26  C   UNL     1      48.149   4.888  17.299  0.00  0.00    +0.000 A 
ATOM     27  N   UNL     1      48.841   5.275  16.200  0.00  0.00    +0.000 NA
ATOM     28  H   UNL     1      50.068   6.035  14.451  0.00  0.00    +0.000 HD
BRANCH  25  29
ATOM     29  O   UNL     1      47.212   5.240  19.448  0.00  0.00    +0.000 OA
ATOM     30  H   UNL     1      47.442   4.302  19.557  0.00  0.00    +0.000 HD
ENDBRANCH  25  29
ENDBRANCH  18  21
ENDBRANCH   5  18
TORSDOF 5
ENDMDL
