MODEL 1
REMARK VINA RESULT:    -7.568      0.000      0.000
REMARK INTER + INTRA:         -11.971
REMARK INTER:                 -10.886
REMARK INTRA:                  -1.084
REMARK UNBOUND:                -1.084
REMARK  Name = 
REMARK  8 active torsions:
REMARK  status: ('A' for Active; 'I' for Inactive)
REMARK    1  A    between atoms: N_1  and  C_2
REMARK    2  A    between atoms: C_2  and  C_3
REMARK    3  A    between atoms: C_3  and  N_4
REMARK    4  A    between atoms: C_3  and  C_19
REMARK    5  A    between atoms: N_4  and  C_5
REMARK    6  A    between atoms: C_8  and  C_9
REMARK    7  A    between atoms: C_9  and  O_10
REMARK    8  A    between atoms: O_10  and  C_11
REMARK                            x       y       z     vdW  Elec       q    Type
REMARK                         _______ _______ _______ _____ _____    ______ ____
ROOT
ATOM      1  C   UNL     1      48.050   4.569  15.799  0.00  0.00    +0.000 C 
ENDROOT
BRANCH   1   2
ATOM      2  C   UNL     1      48.733   5.780  16.407  0.00  0.00    +0.000 A 
ATOM      3  C   UNL     1      49.013   5.928  17.758  0.00  0.00    +0.000 A 
ATOM      4  S   UNL     1      49.065   7.577  18.222  0.00  0.00    +0.000 S 
ATOM      5  C   UNL     1      48.857   8.089  16.610  0.00  0.00    +0.000 A 
ATOM      6  N   UNL     1      48.637   9.389  16.283  0.00  0.00    +0.000 NA
ATOM      7  C   UNL     1      48.557   9.603  15.010  0.00  0.00    +0.000 A 
ATOM      8  N   UNL     1      48.742   8.652  14.035  0.00  0.00    +0.000 N 
ATOM      9  C   UNL     1      48.958   7.325  14.320  0.00  0.00    +0.000 A 
ATOM     10  O   UNL     1      49.188   6.487  13.455  0.00  0.00    +0.000 OA
ATOM     11  C   UNL     1      48.924   7.026  15.733  0.00  0.00    +0.000 A 
ATOM     12  H   UNL     1      48.760   8.909  13.059  0.00  0.00    +0.000 HD
ENDBRANCH   1   2
BRANCH   1  13
ATOM     13  N   UNL     1      46.725   4.990  15.308  0.00  0.00    +0.000 N 
ATOM     14  H   UNL     1      46.003   4.745  15.987  0.00  0.00    +0.000 HD
BRANCH  13  15
ATOM     15  C   UNL     1      46.327   4.691  14.008  0.00  0.00    +0.000 A 
ATOM     16  C   UNL     1      45.659   5.679  13.283  0.00  0.00    +0.000 A 
ATOM     17  C   UNL     1      44.934   5.354  12.143  0.00  0.00    +0.000 A 
ATOM     18  C   UNL     1      44.866   4.020  11.781  0.00  0.00    +0.000 A 
ATOM     19  N   UNL     1      45.595   3.048  12.382  0.00  0.00    +0.000 NA
ATOM     20  C   UNL     1      46.304   3.407  13.473  0.00  0.00    +0.000 A 
BRANCH  18  21
ATOM     21  C   UNL     1      43.818   3.558  10.784  0.00  0.00    +0.000 C 
BRANCH  21  22
ATOM     22  O   UNL     1      43.992   4.162   9.509  0.00  0.00    +0.000 OA
BRANCH  22  23
ATOM     23  C   UNL     1      44.970   3.499   8.795  0.00  0.00    +0.000 A 
ATOM     24  N   UNL     1      45.696   4.271   7.977  0.00  0.00    +0.000 NA
ATOM     25  C   UNL     1      46.638   3.635   7.249  0.00  0.00    +0.000 A 
ATOM     26  C   UNL     1      46.890   2.289   7.333  0.00  0.00    +0.000 A 
ATOM     27  C   UNL     1      46.097   1.593   8.222  0.00  0.00    +0.000 A 
ATOM     28  N   UNL     1      45.132   2.174   8.958  0.00  0.00    +0.000 NA
ENDBRANCH  22  23
ENDBRANCH  21  22
ENDBRANCH  18  21
ENDBRANCH  13  15
ENDBRANCH   1  13
BRANCH   1  29
ATOM     29  C   UNL     1      47.890   3.346  16.749  0.00  0.00    +0.000 C 
BRANCH  29  30
ATOM     30  N   UNL     1      46.596   3.268  17.450  0.00  0.00    +0.000 NA
ATOM     31  H   UNL     1      46.655   3.828  18.302  0.00  0.00    +0.000 HD
ATOM     32  H   UNL     1      45.881   3.714  16.876  0.00  0.00    +0.000 HD
ENDBRANCH  29  30
ENDBRANCH   1  29
TORSDOF 8
ENDMDL
MODEL 2
REMARK VINA RESULT:    -7.490      2.314      2.997
REMARK INTER + INTRA:         -11.858
REMARK INTER:                 -10.902
REMARK INTRA:                  -0.956
REMARK UNBOUND:                -1.084
REMARK  Name = 
REMARK  8 active torsions:
REMARK  status: ('A' for Active; 'I' for Inactive)
REMARK    1  A    between atoms: N_1  and  C_2
REMARK    2  A    between atoms: C_2  and  C_3
REMARK    3  A    between atoms: C_3  and  N_4
REMARK    4  A    between atoms: C_3  and  C_19
REMARK    5  A    between atoms: N_4  and  C_5
REMARK    6  A    between atoms: C_8  and  C_9
REMARK    7  A    between atoms: C_9  and  O_10
REMARK    8  A    between atoms: O_10  and  C_11
REMARK                            x       y       z     vdW  Elec       q    Type
REMARK                         _______ _______ _______ _____ _____    ______ ____
ROOT
ATOM      1  C   UNL     1      47.985   4.703  16.265  0.00  0.00    +0.000 C 
ENDROOT
BRANCH   1   2
ATOM      2  C   UNL     1      49.125   5.410  16.976  0.00  0.00    +0.000 A 
ATOM      3  C   UNL     1      49.288   6.787  17.020  0.00  0.00    +0.000 A 
ATOM      4  S   UNL     1      50.933   7.230  17.198  0.00  0.00    +0.000 S 
ATOM      5  C   UNL     1      51.406   5.600  17.356  0.00  0.00    +0.000 A 
ATOM      6  N   UNL     1      52.711   5.219  17.369  0.00  0.00    +0.000 NA
ATOM      7  C   UNL     1      52.884   3.951  17.551  0.00  0.00    +0.000 A 
ATOM      8  N   UNL     1      51.882   3.041  17.787  0.00  0.00    +0.000 N 
ATOM      9  C   UNL     1      50.550   3.380  17.775  0.00  0.00    +0.000 A 
ATOM     10  O   UNL     1      49.658   2.584  18.049  0.00  0.00    +0.000 OA
ATOM     11  C   UNL     1      50.311   4.766  17.445  0.00  0.00    +0.000 A 
ATOM     12  H   UNL     1      52.097   2.082  18.016  0.00  0.00    +0.000 HD
ENDBRANCH   1   2
BRANCH   1  13
ATOM     13  N   UNL     1      47.508   5.580  15.181  0.00  0.00    +0.000 N 
ATOM     14  H   UNL     1      46.900   6.309  15.558  0.00  0.00    +0.000 HD
BRANCH  13  15
ATOM     15  C   UNL     1      46.986   5.037  14.011  0.00  0.00    +0.000 A 
ATOM     16  C   UNL     1      46.373   5.901  13.102  0.00  0.00    +0.000 A 
ATOM     17  C   UNL     1      45.536   5.407  12.108  0.00  0.00    +0.000 A 
ATOM     18  C   UNL     1      45.304   4.043  12.080  0.00  0.00    +0.000 A 
ATOM     19  N   UNL     1      45.971   3.158  12.861  0.00  0.00    +0.000 NA
ATOM     20  C   UNL     1      46.791   3.675  13.800  0.00  0.00    +0.000 A 
BRANCH  18  21
ATOM     21  C   UNL     1      44.144   3.488  11.272  0.00  0.00    +0.000 C 
BRANCH  21  22
ATOM     22  O   UNL     1      44.057   4.085   9.985  0.00  0.00    +0.000 OA
BRANCH  22  23
ATOM     23  C   UNL     1      44.937   3.474   9.115  0.00  0.00    +0.000 A 
ATOM     24  N   UNL     1      45.516   4.292   8.227  0.00  0.00    +0.000 NA
ATOM     25  C   UNL     1      46.358   3.708   7.349  0.00  0.00    +0.000 A 
ATOM     26  C   UNL     1      46.656   2.368   7.350  0.00  0.00    +0.000 A 
ATOM     27  C   UNL     1      46.019   1.622   8.320  0.00  0.00    +0.000 A 
ATOM     28  N   UNL     1      45.157   2.150   9.208  0.00  0.00    +0.000 NA
ENDBRANCH  22  23
ENDBRANCH  21  22
ENDBRANCH  18  21
ENDBRANCH  13  15
ENDBRANCH   1  13
BRANCH   1  29
ATOM     29  C   UNL     1      46.787   4.291  17.169  0.00  0.00    +0.000 C 
BRANCH  29  30
ATOM     30  N   UNL     1      46.800   2.887  17.618  0.00  0.00    +0.000 NA
ATOM     31  H   UNL     1      47.507   2.382  17.083  0.00  0.00    +0.000 HD
ATOM     32  H   UNL     1      47.111   2.853  18.589  0.00  0.00    +0.000 HD
ENDBRANCH  29  30
ENDBRANCH   1  29
TORSDOF 8
ENDMDL
MODEL 3
REMARK VINA RESULT:    -7.364      1.832      3.445
REMARK INTER + INTRA:         -11.677
REMARK INTER:                 -10.863
REMARK INTRA:                  -0.814
REMARK UNBOUND:                -1.084
REMARK  Name = 
REMARK  8 active torsions:
REMARK  status: ('A' for Active; 'I' for Inactive)
REMARK    1  A    between atoms: N_1  and  C_2
REMARK    2  A    between atoms: C_2  and  C_3
REMARK    3  A    between atoms: C_3  and  N_4
REMARK    4  A    between atoms: C_3  and  C_19
REMARK    5  A    between atoms: N_4  and  C_5
REMARK    6  A    between atoms: C_8  and  C_9
REMARK    7  A    between atoms: C_9  and  O_10
REMARK    8  A    between atoms: O_10  and  C_11
REMARK                            x       y       z     vdW  Elec       q    Type
REMARK                         _______ _______ _______ _____ _____    ______ ____
ROOT
ATOM      1  C   UNL     1      47.709   6.519  14.880  0.00  0.00    +0.000 C 
ENDROOT
BRANCH   1   2
ATOM      2  C   UNL     1      48.677   6.167  15.995  0.00  0.00    +0.000 A 
ATOM      3  C   UNL     1      49.778   6.933  16.349  0.00  0.00    +0.000 A 
ATOM      4  S   UNL     1      51.020   5.981  17.047  0.00  0.00    +0.000 S 
ATOM      5  C   UNL     1      50.043   4.586  17.004  0.00  0.00    +0.000 A 
ATOM      6  N   UNL     1      50.528   3.349  17.292  0.00  0.00    +0.000 NA
ATOM      7  C   UNL     1      49.634   2.416  17.262  0.00  0.00    +0.000 A 
ATOM      8  N   UNL     1      48.292   2.612  17.038  0.00  0.00    +0.000 N 
ATOM      9  C   UNL     1      47.760   3.843  16.735  0.00  0.00    +0.000 A 
ATOM     10  O   UNL     1      46.556   4.032  16.598  0.00  0.00    +0.000 OA
ATOM     11  C   UNL     1      48.750   4.889  16.631  0.00  0.00    +0.000 A 
ATOM     12  H   UNL     1      47.637   1.850  17.124  0.00  0.00    +0.000 HD
ENDBRANCH   1   2
BRANCH   1  13
ATOM     13  N   UNL     1      47.707   5.410  13.909  0.00  0.00    +0.000 N 
ATOM     14  H   UNL     1      48.573   5.410  13.369  0.00  0.00    +0.000 HD
BRANCH  13  15
ATOM     15  C   UNL     1      46.599   5.186  13.096  0.00  0.00    +0.000 A 
ATOM     16  C   UNL     1      45.944   3.958  13.202  0.00  0.00    +0.000 A 
ATOM     17  C   UNL     1      45.076   3.529  12.206  0.00  0.00    +0.000 A 
ATOM     18  C   UNL     1      44.918   4.340  11.095  0.00  0.00    +0.000 A 
ATOM     19  N   UNL     1      45.436   5.590  11.007  0.00  0.00    +0.000 NA
ATOM     20  C   UNL     1      46.257   5.979  12.005  0.00  0.00    +0.000 A 
BRANCH  18  21
ATOM     21  C   UNL     1      44.286   3.782   9.833  0.00  0.00    +0.000 C 
BRANCH  21  22
ATOM     22  O   UNL     1      44.646   2.424   9.611  0.00  0.00    +0.000 OA
BRANCH  22  23
ATOM     23  C   UNL     1      45.546   2.333   8.569  0.00  0.00    +0.000 A 
ATOM     24  N   UNL     1      45.709   3.457   7.861  0.00  0.00    +0.000 NA
ATOM     25  C   UNL     1      46.564   3.379   6.819  0.00  0.00    +0.000 A 
ATOM     26  C   UNL     1      47.267   2.247   6.491  0.00  0.00    +0.000 A 
ATOM     27  C   UNL     1      47.039   1.153   7.299  0.00  0.00    +0.000 A 
ATOM     28  N   UNL     1      46.183   1.171   8.338  0.00  0.00    +0.000 NA
ENDBRANCH  22  23
ENDBRANCH  21  22
ENDBRANCH  18  21
ENDBRANCH  13  15
ENDBRANCH   1  13
BRANCH   1  29
ATOM     29  C   UNL     1      48.001   7.858  14.140  0.00  0.00    +0.000 C 
BRANCH  29  30
ATOM     30  N   UNL     1      47.030   8.936  14.401  0.00  0.00    +0.000 NA
ATOM     31  H   UNL     1      47.100   9.205  15.383  0.00  0.00    +0.000 HD
ATOM     32  H   UNL     1      47.302   9.762  13.868  0.00  0.00    +0.000 HD
ENDBRANCH  29  30
ENDBRANCH   1  29
TORSDOF 8
ENDMDL
MODEL 4
REMARK VINA RESULT:    -7.282      1.592      2.166
REMARK INTER + INTRA:         -11.559
REMARK INTER:                 -10.504
REMARK INTRA:                  -1.055
REMARK UNBOUND:                -1.084
REMARK  Name = 
REMARK  8 active torsions:
REMARK  status: ('A' for Active; 'I' for Inactive)
REMARK    1  A    between atoms: N_1  and  C_2
REMARK    2  A    between atoms: C_2  and  C_3
REMARK    3  A    between atoms: C_3  and  N_4
REMARK    4  A    between atoms: C_3  and  C_19
REMARK    5  A    between atoms: N_4  and  C_5
REMARK    6  A    between atoms: C_8  and  C_9
REMARK    7  A    between atoms: C_9  and  O_10
REMARK    8  A    between atoms: O_10  and  C_11
REMARK                            x       y       z     vdW  Elec       q    Type
REMARK                         _______ _______ _______ _____ _____    ______ ____
ROOT
ATOM      1  C   UNL     1      47.550   5.716  14.033  0.00  0.00    +0.000 C 
ENDROOT
BRANCH   1   2
ATOM      2  C   UNL     1      48.492   6.659  14.759  0.00  0.00    +0.000 A 
ATOM      3  C   UNL     1      48.714   6.647  16.128  0.00  0.00    +0.000 A 
ATOM      4  S   UNL     1      49.175   8.190  16.714  0.00  0.00    +0.000 S 
ATOM      5  C   UNL     1      49.214   8.832  15.136  0.00  0.00    +0.000 A 
ATOM      6  N   UNL     1      49.371  10.160  14.895  0.00  0.00    +0.000 NA
ATOM      7  C   UNL     1      49.431  10.462  13.639  0.00  0.00    +0.000 A 
ATOM      8  N   UNL     1      49.417   9.555  12.606  0.00  0.00    +0.000 N 
ATOM      9  C   UNL     1      49.253   8.204  12.803  0.00  0.00    +0.000 A 
ATOM     10  O   UNL     1      49.305   7.387  11.890  0.00  0.00    +0.000 OA
ATOM     11  C   UNL     1      49.051   7.844  14.187  0.00  0.00    +0.000 A 
ATOM     12  H   UNL     1      49.565   9.853  11.654  0.00  0.00    +0.000 HD
ENDBRANCH   1   2
BRANCH   1  13
ATOM     13  N   UNL     1      46.334   6.469  13.676  0.00  0.00    +0.000 N 
ATOM     14  H   UNL     1      45.719   6.552  14.486  0.00  0.00    +0.000 HD
BRANCH  13  15
ATOM     15  C   UNL     1      45.621   6.151  12.524  0.00  0.00    +0.000 A 
ATOM     16  C   UNL     1      44.433   5.430  12.665  0.00  0.00    +0.000 A 
ATOM     17  C   UNL     1      43.863   4.783  11.576  0.00  0.00    +0.000 A 
ATOM     18  C   UNL     1      44.532   4.845  10.366  0.00  0.00    +0.000 A 
ATOM     19  N   UNL     1      45.617   5.631  10.155  0.00  0.00    +0.000 NA
ATOM     20  C   UNL     1      46.129   6.261  11.233  0.00  0.00    +0.000 A 
BRANCH  18  21
ATOM     21  C   UNL     1      44.170   3.883   9.249  0.00  0.00    +0.000 C 
BRANCH  21  22
ATOM     22  O   UNL     1      44.814   2.624   9.400  0.00  0.00    +0.000 OA
BRANCH  22  23
ATOM     23  C   UNL     1      45.670   2.395   8.342  0.00  0.00    +0.000 A 
ATOM     24  N   UNL     1      46.258   1.192   8.339  0.00  0.00    +0.000 NA
ATOM     25  C   UNL     1      47.121   0.960   7.328  0.00  0.00    +0.000 A 
ATOM     26  C   UNL     1      47.385   1.861   6.326  0.00  0.00    +0.000 A 
ATOM     27  C   UNL     1      46.710   3.060   6.416  0.00  0.00    +0.000 A 
ATOM     28  N   UNL     1      45.853   3.350   7.413  0.00  0.00    +0.000 NA
ENDBRANCH  22  23
ENDBRANCH  21  22
ENDBRANCH  18  21
ENDBRANCH  13  15
ENDBRANCH   1  13
BRANCH   1  29
ATOM     29  C   UNL     1      47.155   4.431  14.819  0.00  0.00    +0.000 C 
BRANCH  29  30
ATOM     30  N   UNL     1      47.128   3.195  14.017  0.00  0.00    +0.000 NA
ATOM     31  H   UNL     1      46.362   3.261  13.345  0.00  0.00    +0.000 HD
ATOM     32  H   UNL     1      47.981   3.143  13.461  0.00  0.00    +0.000 HD
ENDBRANCH  29  30
ENDBRANCH   1  29
TORSDOF 8
ENDMDL
MODEL 5
REMARK VINA RESULT:    -6.735      2.018      3.937
REMARK INTER + INTRA:         -10.773
REMARK INTER:                  -9.674
REMARK INTRA:                  -1.099
REMARK UNBOUND:                -1.084
REMARK  Name = 
REMARK  8 active torsions:
REMARK  status: ('A' for Active; 'I' for Inactive)
REMARK    1  A    between atoms: N_1  and  C_2
REMARK    2  A    between atoms: C_2  and  C_3
REMARK    3  A    between atoms: C_3  and  N_4
REMARK    4  A    between atoms: C_3  and  C_19
REMARK    5  A    between atoms: N_4  and  C_5
REMARK    6  A    between atoms: C_8  and  C_9
REMARK    7  A    between atoms: C_9  and  O_10
REMARK    8  A    between atoms: O_10  and  C_11
REMARK                            x       y       z     vdW  Elec       q    Type
REMARK                         _______ _______ _______ _____ _____    ______ ____
ROOT
ATOM      1  C   UNL     1      48.722   7.077  16.463  0.00  0.00    +0.000 C 
ENDROOT
BRANCH   1   2
ATOM      2  C   UNL     1      49.622   6.124  17.230  0.00  0.00    +0.000 A 
ATOM      3  C   UNL     1      50.896   6.439  17.679  0.00  0.00    +0.000 A 
ATOM      4  S   UNL     1      51.890   5.049  17.806  0.00  0.00    +0.000 S 
ATOM      5  C   UNL     1      50.591   4.023  17.400  0.00  0.00    +0.000 A 
ATOM      6  N   UNL     1      50.762   2.697  17.153  0.00  0.00    +0.000 NA
ATOM      7  C   UNL     1      49.661   2.063  16.914  0.00  0.00    +0.000 A 
ATOM      8  N   UNL     1      48.402   2.614  16.965  0.00  0.00    +0.000 N 
ATOM      9  C   UNL     1      48.184   3.951  17.203  0.00  0.00    +0.000 A 
ATOM     10  O   UNL     1      47.062   4.433  17.313  0.00  0.00    +0.000 OA
ATOM     11  C   UNL     1      49.400   4.717  17.345  0.00  0.00    +0.000 A 
ATOM     12  H   UNL     1      47.581   2.039  16.861  0.00  0.00    +0.000 HD
ENDBRANCH   1   2
BRANCH   1  13
ATOM     13  N   UNL     1      48.904   6.818  15.023  0.00  0.00    +0.000 N 
ATOM     14  H   UNL     1      49.625   7.432  14.642  0.00  0.00    +0.000 HD
BRANCH  13  15
ATOM     15  C   UNL     1      47.801   6.737  14.177  0.00  0.00    +0.000 A 
ATOM     16  C   UNL     1      47.282   5.473  13.893  0.00  0.00    +0.000 A 
ATOM     17  C   UNL     1      46.434   5.281  12.809  0.00  0.00    +0.000 A 
ATOM     18  C   UNL     1      46.159   6.374  12.005  0.00  0.00    +0.000 A 
ATOM     19  N   UNL     1      46.540   7.638  12.312  0.00  0.00    +0.000 NA
ATOM     20  C   UNL     1      47.345   7.787  13.385  0.00  0.00    +0.000 A 
BRANCH  18  21
ATOM     21  C   UNL     1      45.551   6.168  10.629  0.00  0.00    +0.000 C 
BRANCH  21  22
ATOM     22  O   UNL     1      44.715   5.019  10.582  0.00  0.00    +0.000 OA
BRANCH  22  23
ATOM     23  C   UNL     1      45.150   4.152   9.600  0.00  0.00    +0.000 A 
ATOM     24  N   UNL     1      44.944   2.855   9.858  0.00  0.00    +0.000 NA
ATOM     25  C   UNL     1      45.389   1.990   8.922  0.00  0.00    +0.000 A 
ATOM     26  C   UNL     1      45.990   2.375   7.750  0.00  0.00    +0.000 A 
ATOM     27  C   UNL     1      46.133   3.736   7.577  0.00  0.00    +0.000 A 
ATOM     28  N   UNL     1      45.725   4.640   8.486  0.00  0.00    +0.000 NA
ENDBRANCH  22  23
ENDBRANCH  21  22
ENDBRANCH  18  21
ENDBRANCH  13  15
ENDBRANCH   1  13
BRANCH   1  29
ATOM     29  C   UNL     1      48.949   8.589  16.754  0.00  0.00    +0.000 C 
BRANCH  29  30
ATOM     30  N   UNL     1      47.756   9.439  16.593  0.00  0.00    +0.000 NA
ATOM     31  H   UNL     1      46.952   8.838  16.405  0.00  0.00    +0.000 HD
ATOM     32  H   UNL     1      47.555   9.899  17.481  0.00  0.00    +0.000 HD
ENDBRANCH  29  30
ENDBRANCH   1  29
TORSDOF 8
ENDMDL
MODEL 6
REMARK VINA RESULT:    -6.673      1.731      2.873
REMARK INTER + INTRA:         -10.683
REMARK INTER:                 -10.083
REMARK INTRA:                  -0.600
REMARK UNBOUND:                -1.084
REMARK  Name = 
REMARK  8 active torsions:
REMARK  status: ('A' for Active; 'I' for Inactive)
REMARK    1  A    between atoms: N_1  and  C_2
REMARK    2  A    between atoms: C_2  and  C_3
REMARK    3  A    between atoms: C_3  and  N_4
REMARK    4  A    between atoms: C_3  and  C_19
REMARK    5  A    between atoms: N_4  and  C_5
REMARK    6  A    between atoms: C_8  and  C_9
REMARK    7  A    between atoms: C_9  and  O_10
REMARK    8  A    between atoms: O_10  and  C_11
REMARK                            x       y       z     vdW  Elec       q    Type
REMARK                         _______ _______ _______ _____ _____    ______ ____
ROOT
ATOM      1  C   UNL     1      48.050   7.695  13.821  0.00  0.00    +0.000 C 
ENDROOT
BRANCH   1   2
ATOM      2  C   UNL     1      48.387   8.128  15.236  0.00  0.00    +0.000 A 
ATOM      3  C   UNL     1      48.456   9.449  15.656  0.00  0.00    +0.000 A 
ATOM      4  S   UNL     1      49.530   9.643  16.977  0.00  0.00    +0.000 S 
ATOM      5  C   UNL     1      49.791   7.962  17.076  0.00  0.00    +0.000 A 
ATOM      6  N   UNL     1      50.741   7.420  17.883  0.00  0.00    +0.000 NA
ATOM      7  C   UNL     1      50.763   6.127  17.871  0.00  0.00    +0.000 A 
ATOM      8  N   UNL     1      49.882   5.327  17.183  0.00  0.00    +0.000 N 
ATOM      9  C   UNL     1      48.912   5.832  16.349  0.00  0.00    +0.000 A 
ATOM     10  O   UNL     1      48.085   5.124  15.786  0.00  0.00    +0.000 OA
ATOM     11  C   UNL     1      48.943   7.271  16.236  0.00  0.00    +0.000 A 
ATOM     12  H   UNL     1      49.897   4.324  17.296  0.00  0.00    +0.000 HD
ENDBRANCH   1   2
BRANCH   1  13
ATOM     13  N   UNL     1      46.836   6.861  13.875  0.00  0.00    +0.000 N 
ATOM     14  H   UNL     1      46.791   6.359  14.763  0.00  0.00    +0.000 HD
BRANCH  13  15
ATOM     15  C   UNL     1      46.496   6.038  12.805  0.00  0.00    +0.000 A 
ATOM     16  C   UNL     1      46.363   6.621  11.544  0.00  0.00    +0.000 A 
ATOM     17  C   UNL     1      45.698   5.956  10.522  0.00  0.00    +0.000 A 
ATOM     18  C   UNL     1      45.143   4.721  10.810  0.00  0.00    +0.000 A 
ATOM     19  N   UNL     1      45.353   4.065  11.978  0.00  0.00    +0.000 NA
ATOM     20  C   UNL     1      46.021   4.737  12.940  0.00  0.00    +0.000 A 
BRANCH  18  21
ATOM     21  C   UNL     1      44.115   4.114   9.873  0.00  0.00    +0.000 C 
BRANCH  21  22
ATOM     22  O   UNL     1      44.333   2.724   9.669  0.00  0.00    +0.000 OA
BRANCH  22  23
ATOM     23  C   UNL     1      45.257   2.528   8.662  0.00  0.00    +0.000 A 
ATOM     24  N   UNL     1      45.395   3.553   7.812  0.00  0.00    +0.000 NA
ATOM     25  C   UNL     1      46.272   3.369   6.804  0.00  0.00    +0.000 A 
ATOM     26  C   UNL     1      47.022   2.231   6.641  0.00  0.00    +0.000 A 
ATOM     27  C   UNL     1      46.816   1.247   7.585  0.00  0.00    +0.000 A 
ATOM     28  N   UNL     1      45.940   1.371   8.599  0.00  0.00    +0.000 NA
ENDBRANCH  22  23
ENDBRANCH  21  22
ENDBRANCH  18  21
ENDBRANCH  13  15
ENDBRANCH   1  13
BRANCH   1  29
ATOM     29  C   UNL     1      49.177   6.925  13.072  0.00  0.00    +0.000 C 
BRANCH  29  30
ATOM     30  N   UNL     1      50.449   7.658  12.939  0.00  0.00    +0.000 NA
ATOM     31  H   UNL     1      50.739   7.630  11.961  0.00  0.00    +0.000 HD
ATOM     32  H   UNL     1      50.287   8.643  13.151  0.00  0.00    +0.000 HD
ENDBRANCH  29  30
ENDBRANCH   1  29
TORSDOF 8
ENDMDL
MODEL 7
REMARK VINA RESULT:    -6.534      2.503      3.229
REMARK INTER + INTRA:         -10.483
REMARK INTER:                 -10.116
REMARK INTRA:                  -0.368
REMARK UNBOUND:                -1.084
REMARK  Name = 
REMARK  8 active torsions:
REMARK  status: ('A' for Active; 'I' for Inactive)
REMARK    1  A    between atoms: N_1  and  C_2
REMARK    2  A    between atoms: C_2  and  C_3
REMARK    3  A    between atoms: C_3  and  N_4
REMARK    4  A    between atoms: C_3  and  C_19
REMARK    5  A    between atoms: N_4  and  C_5
REMARK    6  A    between atoms: C_8  and  C_9
REMARK    7  A    between atoms: C_9  and  O_10
REMARK    8  A    between atoms: O_10  and  C_11
REMARK                            x       y       z     vdW  Elec       q    Type
REMARK                         _______ _______ _______ _____ _____    ______ ____
ROOT
ATOM      1  C   UNL     1      46.697   6.133  13.414  0.00  0.00    +0.000 C 
ENDROOT
BRANCH   1   2
ATOM      2  C   UNL     1      47.052   7.602  13.268  0.00  0.00    +0.000 A 
ATOM      3  C   UNL     1      46.138   8.605  12.979  0.00  0.00    +0.000 A 
ATOM      4  S   UNL     1      46.872   9.924  12.168  0.00  0.00    +0.000 S 
ATOM      5  C   UNL     1      48.418   9.225  12.328  0.00  0.00    +0.000 A 
ATOM      6  N   UNL     1      49.514   9.734  11.705  0.00  0.00    +0.000 NA
ATOM      7  C   UNL     1      50.611   9.109  11.982  0.00  0.00    +0.000 A 
ATOM      8  N   UNL     1      50.726   8.067  12.872  0.00  0.00    +0.000 N 
ATOM      9  C   UNL     1      49.644   7.516  13.517  0.00  0.00    +0.000 A 
ATOM     10  O   UNL     1      49.751   6.632  14.359  0.00  0.00    +0.000 OA
ATOM     11  C   UNL     1      48.383   8.105  13.132  0.00  0.00    +0.000 A 
ATOM     12  H   UNL     1      51.630   7.689  13.112  0.00  0.00    +0.000 HD
ENDBRANCH   1   2
BRANCH   1  13
ATOM     13  N   UNL     1      45.235   6.001  13.287  0.00  0.00    +0.000 N 
ATOM     14  H   UNL     1      44.823   5.748  14.187  0.00  0.00    +0.000 HD
BRANCH  13  15
ATOM     15  C   UNL     1      44.680   5.262  12.247  0.00  0.00    +0.000 A 
ATOM     16  C   UNL     1      44.172   3.995  12.540  0.00  0.00    +0.000 A 
ATOM     17  C   UNL     1      43.934   3.074  11.526  0.00  0.00    +0.000 A 
ATOM     18  C   UNL     1      44.254   3.444  10.232  0.00  0.00    +0.000 A 
ATOM     19  N   UNL     1      44.632   4.700   9.888  0.00  0.00    +0.000 NA
ATOM     20  C   UNL     1      44.832   5.572  10.899  0.00  0.00    +0.000 A 
BRANCH  18  21
ATOM     21  C   UNL     1      44.361   2.388   9.146  0.00  0.00    +0.000 C 
BRANCH  21  22
ATOM     22  O   UNL     1      45.635   1.756   9.141  0.00  0.00    +0.000 OA
BRANCH  22  23
ATOM     23  C   UNL     1      46.295   2.023   7.959  0.00  0.00    +0.000 A 
ATOM     24  N   UNL     1      45.871   3.112   7.305  0.00  0.00    +0.000 NA
ATOM     25  C   UNL     1      46.486   3.373   6.133  0.00  0.00    +0.000 A 
ATOM     26  C   UNL     1      47.508   2.615   5.620  0.00  0.00    +0.000 A 
ATOM     27  C   UNL     1      47.879   1.528   6.384  0.00  0.00    +0.000 A 
ATOM     28  N   UNL     1      47.288   1.212   7.551  0.00  0.00    +0.000 NA
ENDBRANCH  22  23
ENDBRANCH  21  22
ENDBRANCH  18  21
ENDBRANCH  13  15
ENDBRANCH   1  13
BRANCH   1  29
ATOM     29  C   UNL     1      47.170   5.460  14.735  0.00  0.00    +0.000 C 
BRANCH  29  30
ATOM     30  N   UNL     1      47.602   4.057  14.599  0.00  0.00    +0.000 NA
ATOM     31  H   UNL     1      48.363   4.017  13.921  0.00  0.00    +0.000 HD
ATOM     32  H   UNL     1      48.003   3.747  15.484  0.00  0.00    +0.000 HD
ENDBRANCH  29  30
ENDBRANCH   1  29
TORSDOF 8
ENDMDL
MODEL 8
REMARK VINA RESULT:    -6.259      2.921      4.039
REMARK INTER + INTRA:         -10.088
REMARK INTER:                  -9.643
REMARK INTRA:                  -0.445
REMARK UNBOUND:                -1.084
REMARK  Name = 
REMARK  8 active torsions:
REMARK  status: ('A' for Active; 'I' for Inactive)
REMARK    1  A    between atoms: N_1  and  C_2
REMARK    2  A    between atoms: C_2  and  C_3
REMARK    3  A    between atoms: C_3  and  N_4
REMARK    4  A    between atoms: C_3  and  C_19
REMARK    5  A    between atoms: N_4  and  C_5
REMARK    6  A    between atoms: C_8  and  C_9
REMARK    7  A    between atoms: C_9  and  O_10
REMARK    8  A    between atoms: O_10  and  C_11
REMARK                            x       y       z     vdW  Elec       q    Type
REMARK                         _______ _______ _______ _____ _____    ______ ____
ROOT
ATOM      1  C   UNL     1      46.079   9.051  13.185  0.00  0.00    +0.000 C 
ENDROOT
BRANCH   1   2
ATOM      2  C   UNL     1      47.453   9.601  12.845  0.00  0.00    +0.000 A 
ATOM      3  C   UNL     1      47.777  10.218  11.646  0.00  0.00    +0.000 A 
ATOM      4  S   UNL     1      49.439  10.043  11.267  0.00  0.00    +0.000 S 
ATOM      5  C   UNL     1      49.749   9.275  12.756  0.00  0.00    +0.000 A 
ATOM      6  N   UNL     1      50.944   8.694  13.040  0.00  0.00    +0.000 NA
ATOM      7  C   UNL     1      51.019   8.207  14.235  0.00  0.00    +0.000 A 
ATOM      8  N   UNL     1      50.038   8.305  15.193  0.00  0.00    +0.000 N 
ATOM      9  C   UNL     1      48.812   8.877  14.947  0.00  0.00    +0.000 A 
ATOM     10  O   UNL     1      47.961   9.024  15.817  0.00  0.00    +0.000 OA
ATOM     11  C   UNL     1      48.644   9.316  13.582  0.00  0.00    +0.000 A 
ATOM     12  H   UNL     1      50.202   7.986  16.136  0.00  0.00    +0.000 HD
ENDBRANCH   1   2
BRANCH   1  13
ATOM     13  N   UNL     1      46.243   7.657  13.635  0.00  0.00    +0.000 N 
ATOM     14  H   UNL     1      47.175   7.520  14.028  0.00  0.00    +0.000 HD
BRANCH  13  15
ATOM     15  C   UNL     1      45.879   6.601  12.804  0.00  0.00    +0.000 A 
ATOM     16  C   UNL     1      46.595   6.419  11.620  0.00  0.00    +0.000 A 
ATOM     17  C   UNL     1      46.084   5.633  10.595  0.00  0.00    +0.000 A 
ATOM     18  C   UNL     1      44.830   5.075  10.775  0.00  0.00    +0.000 A 
ATOM     19  N   UNL     1      44.156   5.123  11.950  0.00  0.00    +0.000 NA
ATOM     20  C   UNL     1      44.696   5.879  12.930  0.00  0.00    +0.000 A 
BRANCH  18  21
ATOM     21  C   UNL     1      44.069   4.521   9.584  0.00  0.00    +0.000 C 
BRANCH  21  22
ATOM     22  O   UNL     1      44.250   3.118   9.442  0.00  0.00    +0.000 OA
BRANCH  22  23
ATOM     23  C   UNL     1      45.219   2.855   8.495  0.00  0.00    +0.000 A 
ATOM     24  N   UNL     1      45.784   1.644   8.583  0.00  0.00    +0.000 NA
ATOM     25  C   UNL     1      46.754   1.379   7.683  0.00  0.00    +0.000 A 
ATOM     26  C   UNL     1      47.147   2.256   6.702  0.00  0.00    +0.000 A 
ATOM     27  C   UNL     1      46.486   3.466   6.691  0.00  0.00    +0.000 A 
ATOM     28  N   UNL     1      45.524   3.788   7.575  0.00  0.00    +0.000 NA
ENDBRANCH  22  23
ENDBRANCH  21  22
ENDBRANCH  18  21
ENDBRANCH  13  15
ENDBRANCH   1  13
BRANCH   1  29
ATOM     29  C   UNL     1      45.034   9.108  12.033  0.00  0.00    +0.000 C 
BRANCH  29  30
ATOM     30  N   UNL     1      43.963  10.104  12.213  0.00  0.00    +0.000 NA
ATOM     31  H   UNL     1      43.498  10.247  11.316  0.00  0.00    +0.000 HD
ATOM     32  H   UNL     1      43.252   9.717  12.834  0.00  0.00    +0.000 HD
ENDBRANCH  29  30
ENDBRANCH   1  29
TORSDOF 8
ENDMDL
MODEL 9
REMARK VINA RESULT:    -6.196      2.713      3.617
REMARK INTER + INTRA:          -9.996
REMARK INTER:                  -9.184
REMARK INTRA:                  -0.813
REMARK UNBOUND:                -1.084
REMARK  Name = 
REMARK  8 active torsions:
REMARK  status: ('A' for Active; 'I' for Inactive)
REMARK    1  A    between atoms: N_1  and  C_2
REMARK    2  A    between atoms: C_2  and  C_3
REMARK    3  A    between atoms: C_3  and  N_4
REMARK    4  A    between atoms: C_3  and  C_19
REMARK    5  A    between atoms: N_4  and  C_5
REMARK    6  A    between atoms: C_8  and  C_9
REMARK    7  A    between atoms: C_9  and  O_10
REMARK    8  A    between atoms: O_10  and  C_11
REMARK                            x       y       z     vdW  Elec       q    Type
REMARK                         _______ _______ _______ _____ _____    ______ ____
ROOT
ATOM      1  C   UNL     1      47.734   7.793  12.613  0.00  0.00    +0.000 C 
ENDROOT
BRANCH   1   2
ATOM      2  C   UNL     1      48.042   9.266  12.810  0.00  0.00    +0.000 A 
ATOM      3  C   UNL     1      48.047  10.210  11.793  0.00  0.00    +0.000 A 
ATOM      4  S   UNL     1      49.103  11.515  12.139  0.00  0.00    +0.000 S 
ATOM      5  C   UNL     1      49.441  10.896  13.690  0.00  0.00    +0.000 A 
ATOM      6  N   UNL     1      50.409  11.419  14.487  0.00  0.00    +0.000 NA
ATOM      7  C   UNL     1      50.490  10.859  15.650  0.00  0.00    +0.000 A 
ATOM      8  N   UNL     1      49.652   9.874  16.114  0.00  0.00    +0.000 N 
ATOM      9  C   UNL     1      48.665   9.310  15.340  0.00  0.00    +0.000 A 
ATOM     10  O   UNL     1      47.875   8.478  15.772  0.00  0.00    +0.000 OA
ATOM     11  C   UNL     1      48.630   9.820  13.989  0.00  0.00    +0.000 A 
ATOM     12  H   UNL     1      49.712   9.550  17.067  0.00  0.00    +0.000 HD
ENDBRANCH   1   2
BRANCH   1  13
ATOM     13  N   UNL     1      46.478   7.490  13.322  0.00  0.00    +0.000 N 
ATOM     14  H   UNL     1      46.655   7.373  14.321  0.00  0.00    +0.000 HD
BRANCH  13  15
ATOM     15  C   UNL     1      45.614   6.511  12.839  0.00  0.00    +0.000 A 
ATOM     16  C   UNL     1      45.745   5.215  13.340  0.00  0.00    +0.000 A 
ATOM     17  C   UNL     1      45.179   4.136  12.672  0.00  0.00    +0.000 A 
ATOM     18  C   UNL     1      44.521   4.388  11.481  0.00  0.00    +0.000 A 
ATOM     19  N   UNL     1      44.265   5.638  11.022  0.00  0.00    +0.000 NA
ATOM     20  C   UNL     1      44.814   6.662  11.710  0.00  0.00    +0.000 A 
BRANCH  18  21
ATOM     21  C   UNL     1      44.202   3.245  10.533  0.00  0.00    +0.000 C 
BRANCH  21  22
ATOM     22  O   UNL     1      44.135   3.677   9.180  0.00  0.00    +0.000 OA
BRANCH  22  23
ATOM     23  C   UNL     1      45.184   3.147   8.457  0.00  0.00    +0.000 A 
ATOM     24  N   UNL     1      45.431   1.850   8.684  0.00  0.00    +0.000 NA
ATOM     25  C   UNL     1      46.471   1.321   8.007  0.00  0.00    +0.000 A 
ATOM     26  C   UNL     1      47.236   2.022   7.109  0.00  0.00    +0.000 A 
ATOM     27  C   UNL     1      46.882   3.344   6.937  0.00  0.00    +0.000 A 
ATOM     28  N   UNL     1      45.866   3.927   7.600  0.00  0.00    +0.000 NA
ENDBRANCH  22  23
ENDBRANCH  21  22
ENDBRANCH  18  21
ENDBRANCH  13  15
ENDBRANCH   1  13
BRANCH   1  29
ATOM     29  C   UNL     1      48.847   6.810  13.079  0.00  0.00    +0.000 C 
BRANCH  29  30
ATOM     30  N   UNL     1      50.215   7.180  12.673  0.00  0.00    +0.000 NA
ATOM     31  H   UNL     1      50.487   6.597  11.881  0.00  0.00    +0.000 HD
ATOM     32  H   UNL     1      50.208   8.137  12.321  0.00  0.00    +0.000 HD
ENDBRANCH  29  30
ENDBRANCH   1  29
TORSDOF 8
ENDMDL
