MODEL 1
REMARK VINA RESULT:    -7.202      0.000      0.000
REMARK INTER + INTRA:         -12.353
REMARK INTER:                 -11.201
REMARK INTRA:                  -1.152
REMARK UNBOUND:                -1.152
REMARK  Name = 
REMARK  10 active torsions:
REMARK  status: ('A' for Active; 'I' for Inactive)
REMARK    1  A    between atoms: N_1  and  C_2
REMARK    2  A    between atoms: C_2  and  C_3
REMARK    3  A    between atoms: C_3  and  N_4
REMARK    4  A    between atoms: N_4  and  C_5
REMARK    5  A    between atoms: C_5  and  C_6
REMARK    6  A    between atoms: C_9  and  C_10
REMARK    7  A    between atoms: C_10  and  C_11
REMARK    8  A    between atoms: C_14  and  C_15
REMARK    9  A    between atoms: C_15  and  N_16
REMARK   10  A    between atoms: C_17  and  C_19
REMARK                            x       y       z     vdW  Elec       q    Type
REMARK                         _______ _______ _______ _____ _____    ______ ____
ROOT
ATOM      1  C   UNL     1      45.388   6.791  12.486  0.00  0.00    +0.000 A 
ATOM      2  C   UNL     1      45.630   8.170  12.561  0.00  0.00    +0.000 A 
ATOM      3  C   UNL     1      46.790   8.659  13.173  0.00  0.00    +0.000 A 
ATOM      4  C   UNL     1      47.738   7.777  13.708  0.00  0.00    +0.000 A 
ATOM      5  C   UNL     1      47.476   6.402  13.668  0.00  0.00    +0.000 A 
ATOM      6  C   UNL     1      46.319   5.913  13.054  0.00  0.00    +0.000 A 
ENDROOT
BRANCH   1   7
ATOM      7  C   UNL     1      44.147   6.263  11.804  0.00  0.00    +0.000 C 
BRANCH   7  11
ATOM      8  C   UNL     1      44.693   2.884   9.255  0.00  0.00    +0.000 A 
ATOM      9  C   UNL     1      45.401   4.049   8.974  0.00  0.00    +0.000 A 
ATOM     10  C   UNL     1      45.246   5.153   9.809  0.00  0.00    +0.000 A 
ATOM     11  C   UNL     1      44.378   5.082  10.901  0.00  0.00    +0.000 A 
ATOM     12  C   UNL     1      43.730   3.869  11.116  0.00  0.00    +0.000 A 
ATOM     13  N   UNL     1      43.864   2.780  10.324  0.00  0.00    +0.000 NA
BRANCH   8  14
ATOM     14  C   UNL     1      44.892   1.651   8.394  0.00  0.00    +0.000 C 
BRANCH  14  15
ATOM     15  N   UNL     1      46.241   1.054   8.482  0.00  0.00    +0.000 NA
ATOM     16  H   UNL     1      46.813   1.715   9.017  0.00  0.00    +0.000 HD
BRANCH  15  17
ATOM     17  C   UNL     1      46.887   0.950   7.160  0.00  0.00    +0.000 C 
BRANCH  17  18
ATOM     18  C   UNL     1      47.840   2.118   6.840  0.00  0.00    +0.000 C 
BRANCH  18  19
ATOM     19  N   UNL     1      48.543   1.894   5.571  0.00  0.00    +0.000 NA
ATOM     20  H   UNL     1      48.616   2.784   5.078  0.00  0.00    +0.000 HD
ATOM     21  H   UNL     1      47.969   1.292   4.981  0.00  0.00    +0.000 HD
ENDBRANCH  18  19
ENDBRANCH  17  18
ENDBRANCH  15  17
ENDBRANCH  14  15
ENDBRANCH   8  14
ENDBRANCH   7  11
ENDBRANCH   1   7
BRANCH   4  22
ATOM     22  C   UNL     1      48.995   8.294  14.360  0.00  0.00    +0.000 C 
BRANCH  22  23
ATOM     23  N   UNL     1      48.989   8.012  15.771  0.00  0.00    +0.000 N 
ATOM     24  C   UNL     1      49.869   7.131  16.340  0.00  0.00    +0.000 C 
ATOM     25  O   UNL     1      50.749   6.571  15.694  0.00  0.00    +0.000 OA
ATOM     26  H   UNL     1      48.142   8.259  16.270  0.00  0.00    +0.000 HD
BRANCH  24  27
ATOM     27  C   UNL     1      49.741   6.948  17.792  0.00  0.00    +0.000 A 
ATOM     28  C   UNL     1      50.057   7.991  18.652  0.00  0.00    +0.000 A 
ATOM     29  S   UNL     1      49.765   7.634  20.295  0.00  0.00    +0.000 S 
ATOM     30  C   UNL     1      49.256   6.054  19.918  0.00  0.00    +0.000 A 
ATOM     31  N   UNL     1      48.862   5.192  20.896  0.00  0.00    +0.000 NA
ATOM     32  C   UNL     1      48.527   4.020  20.470  0.00  0.00    +0.000 A 
ATOM     33  N   UNL     1      48.559   3.627  19.158  0.00  0.00    +0.000 N 
ATOM     34  C   UNL     1      48.942   4.464  18.139  0.00  0.00    +0.000 A 
ATOM     35  O   UNL     1      48.948   4.082  16.973  0.00  0.00    +0.000 OA
ATOM     36  C   UNL     1      49.312   5.801  18.561  0.00  0.00    +0.000 A 
ATOM     37  H   UNL     1      48.286   2.693  18.887  0.00  0.00    +0.000 HD
ENDBRANCH  24  27
ENDBRANCH  22  23
ENDBRANCH   4  22
TORSDOF 10
ENDMDL
MODEL 2
REMARK VINA RESULT:    -6.949      5.070      7.127
REMARK INTER + INTRA:         -11.960
REMARK INTER:                 -10.859
REMARK INTRA:                  -1.100
REMARK UNBOUND:                -1.152
REMARK  Name = 
REMARK  10 active torsions:
REMARK  status: ('A' for Active; 'I' for Inactive)
REMARK    1  A    between atoms: N_1  and  C_2
REMARK    2  A    between atoms: C_2  and  C_3
REMARK    3  A    between atoms: C_3  and  N_4
REMARK    4  A    between atoms: N_4  and  C_5
REMARK    5  A    between atoms: C_5  and  C_6
REMARK    6  A    between atoms: C_9  and  C_10
REMARK    7  A    between atoms: C_10  and  C_11
REMARK    8  A    between atoms: C_14  and  C_15
REMARK    9  A    between atoms: C_15  and  N_16
REMARK   10  A    between atoms: C_17  and  C_19
REMARK                            x       y       z     vdW  Elec       q    Type
REMARK                         _______ _______ _______ _____ _____    ______ ____
ROOT
ATOM      1  C   UNL     1      47.300   7.290  12.420  0.00  0.00    +0.000 A 
ATOM      2  C   UNL     1      47.329   8.619  11.977  0.00  0.00    +0.000 A 
ATOM      3  C   UNL     1      48.543   9.242  11.666  0.00  0.00    +0.000 A 
ATOM      4  C   UNL     1      49.751   8.542  11.776  0.00  0.00    +0.000 A 
ATOM      5  C   UNL     1      49.725   7.227  12.258  0.00  0.00    +0.000 A 
ATOM      6  C   UNL     1      48.512   6.603  12.566  0.00  0.00    +0.000 A 
ENDROOT
BRANCH   1   7
ATOM      7  C   UNL     1      45.987   6.610  12.734  0.00  0.00    +0.000 C 
BRANCH   7  11
ATOM      8  C   UNL     1      44.845   3.425  10.133  0.00  0.00    +0.000 A 
ATOM      9  C   UNL     1      45.177   4.655   9.571  0.00  0.00    +0.000 A 
ATOM     10  C   UNL     1      45.569   5.696  10.406  0.00  0.00    +0.000 A 
ATOM     11  C   UNL     1      45.611   5.500  11.789  0.00  0.00    +0.000 A 
ATOM     12  C   UNL     1      45.283   4.232  12.258  0.00  0.00    +0.000 A 
ATOM     13  N   UNL     1      44.902   3.200  11.470  0.00  0.00    +0.000 NA
BRANCH   8  14
ATOM     14  C   UNL     1      44.472   2.258   9.237  0.00  0.00    +0.000 C 
BRANCH  14  15
ATOM     15  N   UNL     1      45.614   1.418   8.820  0.00  0.00    +0.000 NA
ATOM     16  H   UNL     1      46.245   1.372   9.625  0.00  0.00    +0.000 HD
BRANCH  15  17
ATOM     17  C   UNL     1      46.395   2.045   7.737  0.00  0.00    +0.000 C 
BRANCH  17  18
ATOM     18  C   UNL     1      47.535   1.159   7.200  0.00  0.00    +0.000 C 
BRANCH  18  19
ATOM     19  N   UNL     1      48.289   1.847   6.145  0.00  0.00    +0.000 NA
ATOM     20  H   UNL     1      48.676   2.708   6.530  0.00  0.00    +0.000 HD
ATOM     21  H   UNL     1      47.638   2.133   5.413  0.00  0.00    +0.000 HD
ENDBRANCH  18  19
ENDBRANCH  17  18
ENDBRANCH  15  17
ENDBRANCH  14  15
ENDBRANCH   8  14
ENDBRANCH   7  11
ENDBRANCH   1   7
BRANCH   4  22
ATOM     22  C   UNL     1      51.062   9.201  11.434  0.00  0.00    +0.000 C 
BRANCH  22  23
ATOM     23  N   UNL     1      52.054   8.215  11.095  0.00  0.00    +0.000 N 
ATOM     24  C   UNL     1      52.742   8.254   9.912  0.00  0.00    +0.000 C 
ATOM     25  O   UNL     1      52.596   9.158   9.096  0.00  0.00    +0.000 OA
ATOM     26  H   UNL     1      52.017   7.347  11.619  0.00  0.00    +0.000 HD
BRANCH  24  27
ATOM     27  C   UNL     1      53.723   7.179   9.708  0.00  0.00    +0.000 A 
ATOM     28  C   UNL     1      54.782   7.030  10.594  0.00  0.00    +0.000 A 
ATOM     29  S   UNL     1      55.769   5.680  10.257  0.00  0.00    +0.000 S 
ATOM     30  C   UNL     1      54.847   5.279   8.884  0.00  0.00    +0.000 A 
ATOM     31  N   UNL     1      55.166   4.201   8.115  0.00  0.00    +0.000 NA
ATOM     32  C   UNL     1      54.398   4.030   7.092  0.00  0.00    +0.000 A 
ATOM     33  N   UNL     1      53.346   4.842   6.760  0.00  0.00    +0.000 N 
ATOM     34  C   UNL     1      52.984   5.935   7.509  0.00  0.00    +0.000 A 
ATOM     35  O   UNL     1      52.028   6.635   7.188  0.00  0.00    +0.000 OA
ATOM     36  C   UNL     1      53.805   6.163   8.683  0.00  0.00    +0.000 A 
ATOM     37  H   UNL     1      52.782   4.657   5.943  0.00  0.00    +0.000 HD
ENDBRANCH  24  27
ENDBRANCH  22  23
ENDBRANCH   4  22
TORSDOF 10
ENDMDL
MODEL 3
REMARK VINA RESULT:    -6.888      1.750      1.938
REMARK INTER + INTRA:         -11.864
REMARK INTER:                 -10.612
REMARK INTRA:                  -1.252
REMARK UNBOUND:                -1.152
REMARK  Name = 
REMARK  10 active torsions:
REMARK  status: ('A' for Active; 'I' for Inactive)
REMARK    1  A    between atoms: N_1  and  C_2
REMARK    2  A    between atoms: C_2  and  C_3
REMARK    3  A    between atoms: C_3  and  N_4
REMARK    4  A    between atoms: N_4  and  C_5
REMARK    5  A    between atoms: C_5  and  C_6
REMARK    6  A    between atoms: C_9  and  C_10
REMARK    7  A    between atoms: C_10  and  C_11
REMARK    8  A    between atoms: C_14  and  C_15
REMARK    9  A    between atoms: C_15  and  N_16
REMARK   10  A    between atoms: C_17  and  C_19
REMARK                            x       y       z     vdW  Elec       q    Type
REMARK                         _______ _______ _______ _____ _____    ______ ____
ROOT
ATOM      1  C   UNL     1      45.449   6.824  12.692  0.00  0.00    +0.000 A 
ATOM      2  C   UNL     1      45.546   8.220  12.603  0.00  0.00    +0.000 A 
ATOM      3  C   UNL     1      46.725   8.879  12.967  0.00  0.00    +0.000 A 
ATOM      4  C   UNL     1      47.837   8.154  13.413  0.00  0.00    +0.000 A 
ATOM      5  C   UNL     1      47.727   6.763  13.540  0.00  0.00    +0.000 A 
ATOM      6  C   UNL     1      46.550   6.104  13.173  0.00  0.00    +0.000 A 
ENDROOT
BRANCH   1   7
ATOM      7  C   UNL     1      44.184   6.110  12.276  0.00  0.00    +0.000 C 
BRANCH   7  11
ATOM      8  C   UNL     1      44.632   3.007   9.381  0.00  0.00    +0.000 A 
ATOM      9  C   UNL     1      45.264   4.225   9.151  0.00  0.00    +0.000 A 
ATOM     10  C   UNL     1      45.141   5.240  10.096  0.00  0.00    +0.000 A 
ATOM     11  C   UNL     1      44.380   5.028  11.249  0.00  0.00    +0.000 A 
ATOM     12  C   UNL     1      43.803   3.772  11.403  0.00  0.00    +0.000 A 
ATOM     13  N   UNL     1      43.908   2.766  10.503  0.00  0.00    +0.000 NA
BRANCH   8  14
ATOM     14  C   UNL     1      44.801   1.867   8.393  0.00  0.00    +0.000 C 
BRANCH  14  15
ATOM     15  N   UNL     1      46.094   1.160   8.491  0.00  0.00    +0.000 NA
ATOM     16  H   UNL     1      46.702   1.752   9.064  0.00  0.00    +0.000 HD
BRANCH  15  17
ATOM     17  C   UNL     1      46.765   1.051   7.182  0.00  0.00    +0.000 C 
BRANCH  17  18
ATOM     18  C   UNL     1      47.792   2.168   6.915  0.00  0.00    +0.000 C 
BRANCH  18  19
ATOM     19  N   UNL     1      48.605   1.867   5.730  0.00  0.00    +0.000 NA
ATOM     20  H   UNL     1      49.475   1.431   6.035  0.00  0.00    +0.000 HD
ATOM     21  H   UNL     1      48.870   2.746   5.285  0.00  0.00    +0.000 HD
ENDBRANCH  18  19
ENDBRANCH  17  18
ENDBRANCH  15  17
ENDBRANCH  14  15
ENDBRANCH   8  14
ENDBRANCH   7  11
ENDBRANCH   1   7
BRANCH   4  22
ATOM     22  C   UNL     1      49.115   8.855  13.798  0.00  0.00    +0.000 C 
BRANCH  22  23
ATOM     23  N   UNL     1      50.018   7.944  14.450  0.00  0.00    +0.000 N 
ATOM     24  C   UNL     1      50.252   7.993  15.799  0.00  0.00    +0.000 C 
ATOM     25  O   UNL     1      49.668   8.778  16.539  0.00  0.00    +0.000 OA
ATOM     26  H   UNL     1      50.680   7.466  13.849  0.00  0.00    +0.000 HD
BRANCH  24  27
ATOM     27  C   UNL     1      51.198   6.997  16.320  0.00  0.00    +0.000 A 
ATOM     28  C   UNL     1      52.562   7.257  16.296  0.00  0.00    +0.000 A 
ATOM     29  S   UNL     1      53.503   6.033  17.022  0.00  0.00    +0.000 S 
ATOM     30  C   UNL     1      52.124   5.088  17.345  0.00  0.00    +0.000 A 
ATOM     31  N   UNL     1      52.232   3.880  17.964  0.00  0.00    +0.000 NA
ATOM     32  C   UNL     1      51.110   3.261  18.123  0.00  0.00    +0.000 A 
ATOM     33  N   UNL     1      49.891   3.733  17.712  0.00  0.00    +0.000 N 
ATOM     34  C   UNL     1      49.735   4.949  17.090  0.00  0.00    +0.000 A 
ATOM     35  O   UNL     1      48.627   5.346  16.745  0.00  0.00    +0.000 OA
ATOM     36  C   UNL     1      50.965   5.695  16.904  0.00  0.00    +0.000 A 
ATOM     37  H   UNL     1      49.048   3.200  17.863  0.00  0.00    +0.000 HD
ENDBRANCH  24  27
ENDBRANCH  22  23
ENDBRANCH   4  22
TORSDOF 10
ENDMDL
MODEL 4
REMARK VINA RESULT:    -6.805      3.701      5.530
REMARK INTER + INTRA:         -11.736
REMARK INTER:                 -10.257
REMARK INTRA:                  -1.479
REMARK UNBOUND:                -1.152
REMARK  Name = 
REMARK  10 active torsions:
REMARK  status: ('A' for Active; 'I' for Inactive)
REMARK    1  A    between atoms: N_1  and  C_2
REMARK    2  A    between atoms: C_2  and  C_3
REMARK    3  A    between atoms: C_3  and  N_4
REMARK    4  A    between atoms: N_4  and  C_5
REMARK    5  A    between atoms: C_5  and  C_6
REMARK    6  A    between atoms: C_9  and  C_10
REMARK    7  A    between atoms: C_10  and  C_11
REMARK    8  A    between atoms: C_14  and  C_15
REMARK    9  A    between atoms: C_15  and  N_16
REMARK   10  A    between atoms: C_17  and  C_19
REMARK                            x       y       z     vdW  Elec       q    Type
REMARK                         _______ _______ _______ _____ _____    ______ ____
ROOT
ATOM      1  C   UNL     1      46.006   6.936  12.664  0.00  0.00    +0.000 A 
ATOM      2  C   UNL     1      46.784   5.890  13.180  0.00  0.00    +0.000 A 
ATOM      3  C   UNL     1      47.957   6.157  13.894  0.00  0.00    +0.000 A 
ATOM      4  C   UNL     1      48.368   7.477  14.121  0.00  0.00    +0.000 A 
ATOM      5  C   UNL     1      47.612   8.521  13.571  0.00  0.00    +0.000 A 
ATOM      6  C   UNL     1      46.438   8.254  12.859  0.00  0.00    +0.000 A 
ENDROOT
BRANCH   1   7
ATOM      7  C   UNL     1      44.727   6.648  11.913  0.00  0.00    +0.000 C 
BRANCH   7  11
ATOM      8  C   UNL     1      44.829   3.322   9.240  0.00  0.00    +0.000 A 
ATOM      9  C   UNL     1      45.626   4.427   8.955  0.00  0.00    +0.000 A 
ATOM     10  C   UNL     1      45.617   5.511   9.829  0.00  0.00    +0.000 A 
ATOM     11  C   UNL     1      44.803   5.482  10.964  0.00  0.00    +0.000 A 
ATOM     12  C   UNL     1      44.056   4.327  11.177  0.00  0.00    +0.000 A 
ATOM     13  N   UNL     1      44.049   3.257  10.348  0.00  0.00    +0.000 NA
BRANCH   8  14
ATOM     14  C   UNL     1      44.869   2.106   8.333  0.00  0.00    +0.000 C 
BRANCH  14  15
ATOM     15  N   UNL     1      46.066   1.256   8.502  0.00  0.00    +0.000 NA
ATOM     16  H   UNL     1      46.712   1.786   9.094  0.00  0.00    +0.000 HD
BRANCH  15  17
ATOM     17  C   UNL     1      46.778   1.045   7.227  0.00  0.00    +0.000 C 
BRANCH  17  18
ATOM     18  C   UNL     1      47.872   2.093   6.945  0.00  0.00    +0.000 C 
BRANCH  18  19
ATOM     19  N   UNL     1      48.544   1.826   5.667  0.00  0.00    +0.000 NA
ATOM     20  H   UNL     1      49.170   1.031   5.789  0.00  0.00    +0.000 HD
ATOM     21  H   UNL     1      49.139   2.623   5.439  0.00  0.00    +0.000 HD
ENDBRANCH  18  19
ENDBRANCH  17  18
ENDBRANCH  15  17
ENDBRANCH  14  15
ENDBRANCH   8  14
ENDBRANCH   7  11
ENDBRANCH   1   7
BRANCH   4  22
ATOM     22  C   UNL     1      49.624   7.775  14.897  0.00  0.00    +0.000 C 
BRANCH  22  23
ATOM     23  N   UNL     1      50.770   7.782  14.027  0.00  0.00    +0.000 N 
ATOM     24  C   UNL     1      51.446   8.935  13.726  0.00  0.00    +0.000 C 
ATOM     25  O   UNL     1      51.151  10.018  14.220  0.00  0.00    +0.000 OA
ATOM     26  H   UNL     1      50.879   6.972  13.427  0.00  0.00    +0.000 HD
BRANCH  24  27
ATOM     27  C   UNL     1      52.597   8.784  12.825  0.00  0.00    +0.000 A 
ATOM     28  C   UNL     1      53.843   9.264  13.205  0.00  0.00    +0.000 A 
ATOM     29  S   UNL     1      55.079   8.922  12.080  0.00  0.00    +0.000 S 
ATOM     30  C   UNL     1      53.981   8.169  11.019  0.00  0.00    +0.000 A 
ATOM     31  N   UNL     1      54.398   7.646   9.833  0.00  0.00    +0.000 NA
ATOM     32  C   UNL     1      53.456   7.128   9.118  0.00  0.00    +0.000 A 
ATOM     33  N   UNL     1      52.134   7.093   9.475  0.00  0.00    +0.000 N 
ATOM     34  C   UNL     1      51.669   7.602  10.664  0.00  0.00    +0.000 A 
ATOM     35  O   UNL     1      50.479   7.543  10.956  0.00  0.00    +0.000 OA
ATOM     36  C   UNL     1      52.691   8.180  11.514  0.00  0.00    +0.000 A 
ATOM     37  H   UNL     1      51.442   6.675   8.870  0.00  0.00    +0.000 HD
ENDBRANCH  24  27
ENDBRANCH  22  23
ENDBRANCH   4  22
TORSDOF 10
ENDMDL
MODEL 5
REMARK VINA RESULT:    -6.793      5.476      7.900
REMARK INTER + INTRA:         -11.717
REMARK INTER:                 -10.074
REMARK INTRA:                  -1.643
REMARK UNBOUND:                -1.152
REMARK  Name = 
REMARK  10 active torsions:
REMARK  status: ('A' for Active; 'I' for Inactive)
REMARK    1  A    between atoms: N_1  and  C_2
REMARK    2  A    between atoms: C_2  and  C_3
REMARK    3  A    between atoms: C_3  and  N_4
REMARK    4  A    between atoms: N_4  and  C_5
REMARK    5  A    between atoms: C_5  and  C_6
REMARK    6  A    between atoms: C_9  and  C_10
REMARK    7  A    between atoms: C_10  and  C_11
REMARK    8  A    between atoms: C_14  and  C_15
REMARK    9  A    between atoms: C_15  and  N_16
REMARK   10  A    between atoms: C_17  and  C_19
REMARK                            x       y       z     vdW  Elec       q    Type
REMARK                         _______ _______ _______ _____ _____    ______ ____
ROOT
ATOM      1  C   UNL     1      47.680   7.908  12.480  0.00  0.00    +0.000 A 
ATOM      2  C   UNL     1      48.740   6.991  12.502  0.00  0.00    +0.000 A 
ATOM      3  C   UNL     1      50.025   7.375  12.105  0.00  0.00    +0.000 A 
ATOM      4  C   UNL     1      50.280   8.689  11.692  0.00  0.00    +0.000 A 
ATOM      5  C   UNL     1      49.212   9.595  11.631  0.00  0.00    +0.000 A 
ATOM      6  C   UNL     1      47.928   9.212  12.031  0.00  0.00    +0.000 A 
ENDROOT
BRANCH   1   7
ATOM      7  C   UNL     1      46.297   7.500  12.932  0.00  0.00    +0.000 C 
BRANCH   7  11
ATOM      8  C   UNL     1      44.839   3.994  10.983  0.00  0.00    +0.000 A 
ATOM      9  C   UNL     1      45.164   3.916  12.334  0.00  0.00    +0.000 A 
ATOM     10  C   UNL     1      45.623   5.057  12.987  0.00  0.00    +0.000 A 
ATOM     11  C   UNL     1      45.764   6.253  12.279  0.00  0.00    +0.000 A 
ATOM     12  C   UNL     1      45.394   6.241  10.937  0.00  0.00    +0.000 A 
ATOM     13  N   UNL     1      44.941   5.149  10.278  0.00  0.00    +0.000 NA
BRANCH   8  14
ATOM     14  C   UNL     1      44.280   2.778  10.267  0.00  0.00    +0.000 C 
BRANCH  14  15
ATOM     15  N   UNL     1      44.441   2.806   8.799  0.00  0.00    +0.000 NA
ATOM     16  H   UNL     1      43.713   2.193   8.419  0.00  0.00    +0.000 HD
BRANCH  15  17
ATOM     17  C   UNL     1      45.722   2.213   8.371  0.00  0.00    +0.000 C 
BRANCH  17  18
ATOM     18  C   UNL     1      46.469   3.047   7.312  0.00  0.00    +0.000 C 
BRANCH  18  19
ATOM     19  N   UNL     1      46.442   4.475   7.647  0.00  0.00    +0.000 NA
ATOM     20  H   UNL     1      45.551   4.688   8.095  0.00  0.00    +0.000 HD
ATOM     21  H   UNL     1      46.459   5.014   6.782  0.00  0.00    +0.000 HD
ENDBRANCH  18  19
ENDBRANCH  17  18
ENDBRANCH  15  17
ENDBRANCH  14  15
ENDBRANCH   8  14
ENDBRANCH   7  11
ENDBRANCH   1   7
BRANCH   4  22
ATOM     22  C   UNL     1      51.663   9.115  11.271  0.00  0.00    +0.000 C 
BRANCH  22  23
ATOM     23  N   UNL     1      52.004   8.546   9.995  0.00  0.00    +0.000 N 
ATOM     24  C   UNL     1      53.173   8.855   9.350  0.00  0.00    +0.000 C 
ATOM     25  O   UNL     1      54.021   9.589   9.844  0.00  0.00    +0.000 OA
ATOM     26  H   UNL     1      51.237   8.146   9.466  0.00  0.00    +0.000 HD
BRANCH  24  27
ATOM     27  C   UNL     1      53.382   8.193   8.055  0.00  0.00    +0.000 A 
ATOM     28  C   UNL     1      53.406   8.945   6.888  0.00  0.00    +0.000 A 
ATOM     29  S   UNL     1      53.750   8.028   5.492  0.00  0.00    +0.000 S 
ATOM     30  C   UNL     1      53.826   6.585   6.391  0.00  0.00    +0.000 A 
ATOM     31  N   UNL     1      54.086   5.394   5.785  0.00  0.00    +0.000 NA
ATOM     32  C   UNL     1      54.088   4.379   6.583  0.00  0.00    +0.000 A 
ATOM     33  N   UNL     1      53.845   4.443   7.929  0.00  0.00    +0.000 N 
ATOM     34  C   UNL     1      53.585   5.623   8.583  0.00  0.00    +0.000 A 
ATOM     35  O   UNL     1      53.383   5.645   9.794  0.00  0.00    +0.000 OA
ATOM     36  C   UNL     1      53.589   6.799   7.735  0.00  0.00    +0.000 A 
ATOM     37  H   UNL     1      53.859   3.611   8.502  0.00  0.00    +0.000 HD
ENDBRANCH  24  27
ENDBRANCH  22  23
ENDBRANCH   4  22
TORSDOF 10
ENDMDL
MODEL 6
REMARK VINA RESULT:    -6.667      5.090      8.364
REMARK INTER + INTRA:         -11.521
REMARK INTER:                 -10.371
REMARK INTRA:                  -1.150
REMARK UNBOUND:                -1.152
REMARK  Name = 
REMARK  10 active torsions:
REMARK  status: ('A' for Active; 'I' for Inactive)
REMARK    1  A    between atoms: N_1  and  C_2
REMARK    2  A    between atoms: C_2  and  C_3
REMARK    3  A    between atoms: C_3  and  N_4
REMARK    4  A    between atoms: N_4  and  C_5
REMARK    5  A    between atoms: C_5  and  C_6
REMARK    6  A    between atoms: C_9  and  C_10
REMARK    7  A    between atoms: C_10  and  C_11
REMARK    8  A    between atoms: C_14  and  C_15
REMARK    9  A    between atoms: C_15  and  N_16
REMARK   10  A    between atoms: C_17  and  C_19
REMARK                            x       y       z     vdW  Elec       q    Type
REMARK                         _______ _______ _______ _____ _____    ______ ____
ROOT
ATOM      1  C   UNL     1      50.242   8.915  12.006  0.00  0.00    +0.000 A 
ATOM      2  C   UNL     1      49.235   9.771  11.538  0.00  0.00    +0.000 A 
ATOM      3  C   UNL     1      47.893   9.536  11.857  0.00  0.00    +0.000 A 
ATOM      4  C   UNL     1      47.533   8.448  12.663  0.00  0.00    +0.000 A 
ATOM      5  C   UNL     1      48.535   7.571  13.097  0.00  0.00    +0.000 A 
ATOM      6  C   UNL     1      49.877   7.808  12.781  0.00  0.00    +0.000 A 
ENDROOT
BRANCH   1   7
ATOM      7  C   UNL     1      51.693   9.183  11.681  0.00  0.00    +0.000 C 
BRANCH   7  11
ATOM      8  C   UNL     1      53.123   7.579   7.994  0.00  0.00    +0.000 A 
ATOM      9  C   UNL     1      52.646   6.698   8.961  0.00  0.00    +0.000 A 
ATOM     10  C   UNL     1      52.159   7.210  10.160  0.00  0.00    +0.000 A 
ATOM     11  C   UNL     1      52.169   8.589  10.383  0.00  0.00    +0.000 A 
ATOM     12  C   UNL     1      52.645   9.393   9.351  0.00  0.00    +0.000 A 
ATOM     13  N   UNL     1      53.120   8.924   8.174  0.00  0.00    +0.000 NA
BRANCH   8  14
ATOM     14  C   UNL     1      53.603   7.047   6.656  0.00  0.00    +0.000 C 
BRANCH  14  15
ATOM     15  N   UNL     1      53.279   5.626   6.411  0.00  0.00    +0.000 NA
ATOM     16  H   UNL     1      52.830   5.283   7.265  0.00  0.00    +0.000 HD
BRANCH  15  17
ATOM     17  C   UNL     1      54.493   4.804   6.242  0.00  0.00    +0.000 C 
BRANCH  17  18
ATOM     18  C   UNL     1      54.208   3.295   6.113  0.00  0.00    +0.000 C 
BRANCH  18  19
ATOM     19  N   UNL     1      52.993   2.922   6.847  0.00  0.00    +0.000 NA
ATOM     20  H   UNL     1      52.620   3.754   7.304  0.00  0.00    +0.000 HD
ATOM     21  H   UNL     1      53.249   2.279   7.596  0.00  0.00    +0.000 HD
ENDBRANCH  18  19
ENDBRANCH  17  18
ENDBRANCH  15  17
ENDBRANCH  14  15
ENDBRANCH   8  14
ENDBRANCH   7  11
ENDBRANCH   1   7
BRANCH   4  22
ATOM     22  C   UNL     1      46.091   8.192  13.020  0.00  0.00    +0.000 C 
BRANCH  22  23
ATOM     23  N   UNL     1      45.710   6.851  12.664  0.00  0.00    +0.000 N 
ATOM     24  C   UNL     1      44.711   6.595  11.762  0.00  0.00    +0.000 C 
ATOM     25  O   UNL     1      44.121   7.488  11.165  0.00  0.00    +0.000 OA
ATOM     26  H   UNL     1      45.998   6.120  13.306  0.00  0.00    +0.000 HD
BRANCH  24  27
ATOM     27  C   UNL     1      44.436   5.176  11.499  0.00  0.00    +0.000 A 
ATOM     28  C   UNL     1      43.721   4.425  12.423  0.00  0.00    +0.000 A 
ATOM     29  S   UNL     1      43.417   2.825  11.915  0.00  0.00    +0.000 S 
ATOM     30  C   UNL     1      44.278   3.064  10.466  0.00  0.00    +0.000 A 
ATOM     31  N   UNL     1      44.409   2.060   9.555  0.00  0.00    +0.000 NA
ATOM     32  C   UNL     1      45.108   2.372   8.515  0.00  0.00    +0.000 A 
ATOM     33  N   UNL     1      45.695   3.592   8.305  0.00  0.00    +0.000 N 
ATOM     34  C   UNL     1      45.583   4.635   9.193  0.00  0.00    +0.000 A 
ATOM     35  O   UNL     1      46.113   5.718   8.967  0.00  0.00    +0.000 OA
ATOM     36  C   UNL     1      44.791   4.343  10.373  0.00  0.00    +0.000 A 
ATOM     37  H   UNL     1      46.232   3.775   7.470  0.00  0.00    +0.000 HD
ENDBRANCH  24  27
ENDBRANCH  22  23
ENDBRANCH   4  22
TORSDOF 10
ENDMDL
MODEL 7
REMARK VINA RESULT:    -6.644      4.473      9.279
REMARK INTER + INTRA:         -11.485
REMARK INTER:                  -9.915
REMARK INTRA:                  -1.570
REMARK UNBOUND:                -1.152
REMARK  Name = 
REMARK  10 active torsions:
REMARK  status: ('A' for Active; 'I' for Inactive)
REMARK    1  A    between atoms: N_1  and  C_2
REMARK    2  A    between atoms: C_2  and  C_3
REMARK    3  A    between atoms: C_3  and  N_4
REMARK    4  A    between atoms: N_4  and  C_5
REMARK    5  A    between atoms: C_5  and  C_6
REMARK    6  A    between atoms: C_9  and  C_10
REMARK    7  A    between atoms: C_10  and  C_11
REMARK    8  A    between atoms: C_14  and  C_15
REMARK    9  A    between atoms: C_15  and  N_16
REMARK   10  A    between atoms: C_17  and  C_19
REMARK                            x       y       z     vdW  Elec       q    Type
REMARK                         _______ _______ _______ _____ _____    ______ ____
ROOT
ATOM      1  C   UNL     1      49.849   4.957  17.464  0.00  0.00    +0.000 A 
ATOM      2  C   UNL     1      48.605   4.680  16.880  0.00  0.00    +0.000 A 
ATOM      3  C   UNL     1      48.114   5.472  15.835  0.00  0.00    +0.000 A 
ATOM      4  C   UNL     1      48.865   6.548  15.344  0.00  0.00    +0.000 A 
ATOM      5  C   UNL     1      50.089   6.849  15.955  0.00  0.00    +0.000 A 
ATOM      6  C   UNL     1      50.581   6.056  16.997  0.00  0.00    +0.000 A 
ENDROOT
BRANCH   1   7
ATOM      7  C   UNL     1      50.389   4.088  18.576  0.00  0.00    +0.000 C 
BRANCH   7  11
ATOM      8  C   UNL     1      53.507   1.450  17.340  0.00  0.00    +0.000 A 
ATOM      9  C   UNL     1      53.855   2.706  17.829  0.00  0.00    +0.000 A 
ATOM     10  C   UNL     1      52.849   3.569  18.253  0.00  0.00    +0.000 A 
ATOM     11  C   UNL     1      51.512   3.172  18.170  0.00  0.00    +0.000 A 
ATOM     12  C   UNL     1      51.261   1.891  17.687  0.00  0.00    +0.000 A 
ATOM     13  N   UNL     1      52.219   1.030  17.272  0.00  0.00    +0.000 NA
BRANCH   8  14
ATOM     14  C   UNL     1      54.591   0.471  16.928  0.00  0.00    +0.000 C 
BRANCH  14  15
ATOM     15  N   UNL     1      54.172  -0.946  16.937  0.00  0.00    +0.000 NA
ATOM     16  H   UNL     1      53.191  -0.952  17.231  0.00  0.00    +0.000 HD
BRANCH  15  17
ATOM     17  C   UNL     1      54.897  -1.731  17.954  0.00  0.00    +0.000 C 
BRANCH  17  18
ATOM     18  C   UNL     1      54.043  -2.093  19.184  0.00  0.00    +0.000 C 
BRANCH  18  19
ATOM     19  N   UNL     1      52.654  -1.651  19.013  0.00  0.00    +0.000 NA
ATOM     20  H   UNL     1      52.196  -2.268  18.342  0.00  0.00    +0.000 HD
ATOM     21  H   UNL     1      52.657  -0.724  18.588  0.00  0.00    +0.000 HD
ENDBRANCH  18  19
ENDBRANCH  17  18
ENDBRANCH  15  17
ENDBRANCH  14  15
ENDBRANCH   8  14
ENDBRANCH   7  11
ENDBRANCH   1   7
BRANCH   4  22
ATOM     22  C   UNL     1      48.349   7.400  14.213  0.00  0.00    +0.000 C 
BRANCH  22  23
ATOM     23  N   UNL     1      47.095   6.892  13.725  0.00  0.00    +0.000 N 
ATOM     24  C   UNL     1      46.817   6.808  12.386  0.00  0.00    +0.000 C 
ATOM     25  O   UNL     1      47.637   7.106  11.525  0.00  0.00    +0.000 OA
ATOM     26  H   UNL     1      46.331   6.875  14.392  0.00  0.00    +0.000 HD
BRANCH  24  27
ATOM     27  C   UNL     1      45.495   6.267  12.041  0.00  0.00    +0.000 A 
ATOM     28  C   UNL     1      44.513   7.108  11.532  0.00  0.00    +0.000 A 
ATOM     29  S   UNL     1      43.075   6.297  11.103  0.00  0.00    +0.000 S 
ATOM     30  C   UNL     1      43.694   4.802  11.633  0.00  0.00    +0.000 A 
ATOM     31  N   UNL     1      42.949   3.666  11.551  0.00  0.00    +0.000 NA
ATOM     32  C   UNL     1      43.534   2.611  12.012  0.00  0.00    +0.000 A 
ATOM     33  N   UNL     1      44.790   2.589  12.557  0.00  0.00    +0.000 N 
ATOM     34  C   UNL     1      45.579   3.709  12.654  0.00  0.00    +0.000 A 
ATOM     35  O   UNL     1      46.706   3.651  13.138  0.00  0.00    +0.000 OA
ATOM     36  C   UNL     1      44.977   4.921  12.133  0.00  0.00    +0.000 A 
ATOM     37  H   UNL     1      45.193   1.730  12.903  0.00  0.00    +0.000 HD
ENDBRANCH  24  27
ENDBRANCH  22  23
ENDBRANCH   4  22
TORSDOF 10
ENDMDL
MODEL 8
REMARK VINA RESULT:    -6.463      2.597      3.822
REMARK INTER + INTRA:         -11.204
REMARK INTER:                  -9.843
REMARK INTRA:                  -1.362
REMARK UNBOUND:                -1.152
REMARK  Name = 
REMARK  10 active torsions:
REMARK  status: ('A' for Active; 'I' for Inactive)
REMARK    1  A    between atoms: N_1  and  C_2
REMARK    2  A    between atoms: C_2  and  C_3
REMARK    3  A    between atoms: C_3  and  N_4
REMARK    4  A    between atoms: N_4  and  C_5
REMARK    5  A    between atoms: C_5  and  C_6
REMARK    6  A    between atoms: C_9  and  C_10
REMARK    7  A    between atoms: C_10  and  C_11
REMARK    8  A    between atoms: C_14  and  C_15
REMARK    9  A    between atoms: C_15  and  N_16
REMARK   10  A    between atoms: C_17  and  C_19
REMARK                            x       y       z     vdW  Elec       q    Type
REMARK                         _______ _______ _______ _____ _____    ______ ____
ROOT
ATOM      1  C   UNL     1      48.264   8.074  13.763  0.00  0.00    +0.000 A 
ATOM      2  C   UNL     1      47.836   8.836  14.859  0.00  0.00    +0.000 A 
ATOM      3  C   UNL     1      48.607   8.906  16.025  0.00  0.00    +0.000 A 
ATOM      4  C   UNL     1      49.829   8.227  16.113  0.00  0.00    +0.000 A 
ATOM      5  C   UNL     1      50.236   7.433  15.033  0.00  0.00    +0.000 A 
ATOM      6  C   UNL     1      49.468   7.365  13.866  0.00  0.00    +0.000 A 
ENDROOT
BRANCH   1   7
ATOM      7  C   UNL     1      47.444   8.018  12.496  0.00  0.00    +0.000 C 
BRANCH   7  11
ATOM      8  C   UNL     1      44.873   4.639  12.063  0.00  0.00    +0.000 A 
ATOM      9  C   UNL     1      45.887   4.584  13.014  0.00  0.00    +0.000 A 
ATOM     10  C   UNL     1      46.721   5.686  13.179  0.00  0.00    +0.000 A 
ATOM     11  C   UNL     1      46.539   6.820  12.383  0.00  0.00    +0.000 A 
ATOM     12  C   UNL     1      45.487   6.792  11.473  0.00  0.00    +0.000 A 
ATOM     13  N   UNL     1      44.658   5.737  11.295  0.00  0.00    +0.000 NA
BRANCH   8  14
ATOM     14  C   UNL     1      43.915   3.472  11.908  0.00  0.00    +0.000 C 
BRANCH  14  15
ATOM     15  N   UNL     1      43.521   3.185  10.513  0.00  0.00    +0.000 NA
ATOM     16  H   UNL     1      42.961   2.327  10.544  0.00  0.00    +0.000 HD
BRANCH  15  17
ATOM     17  C   UNL     1      44.685   2.869   9.663  0.00  0.00    +0.000 C 
BRANCH  17  18
ATOM     18  C   UNL     1      44.715   3.652   8.336  0.00  0.00    +0.000 C 
BRANCH  18  19
ATOM     19  N   UNL     1      45.626   4.801   8.420  0.00  0.00    +0.000 NA
ATOM     20  H   UNL     1      46.276   4.644   9.190  0.00  0.00    +0.000 HD
ATOM     21  H   UNL     1      45.085   5.628   8.671  0.00  0.00    +0.000 HD
ENDBRANCH  18  19
ENDBRANCH  17  18
ENDBRANCH  15  17
ENDBRANCH  14  15
ENDBRANCH   8  14
ENDBRANCH   7  11
ENDBRANCH   1   7
BRANCH   4  22
ATOM     22  C   UNL     1      50.670   8.304  17.360  0.00  0.00    +0.000 C 
BRANCH  22  23
ATOM     23  N   UNL     1      51.417   7.088  17.546  0.00  0.00    +0.000 N 
ATOM     24  C   UNL     1      51.044   6.138  18.460  0.00  0.00    +0.000 C 
ATOM     25  O   UNL     1      50.024   6.240  19.134  0.00  0.00    +0.000 OA
ATOM     26  H   UNL     1      52.368   7.091  17.195  0.00  0.00    +0.000 HD
BRANCH  24  27
ATOM     27  C   UNL     1      51.904   4.950  18.534  0.00  0.00    +0.000 A 
ATOM     28  C   UNL     1      53.157   5.037  19.127  0.00  0.00    +0.000 A 
ATOM     29  S   UNL     1      53.980   3.544  19.206  0.00  0.00    +0.000 S 
ATOM     30  C   UNL     1      52.713   2.740  18.402  0.00  0.00    +0.000 A 
ATOM     31  N   UNL     1      52.785   1.406  18.138  0.00  0.00    +0.000 NA
ATOM     32  C   UNL     1      51.766   0.933  17.501  0.00  0.00    +0.000 A 
ATOM     33  N   UNL     1      50.687   1.672  17.094  0.00  0.00    +0.000 N 
ATOM     34  C   UNL     1      50.570   3.018  17.344  0.00  0.00    +0.000 A 
ATOM     35  O   UNL     1      49.583   3.647  16.975  0.00  0.00    +0.000 OA
ATOM     36  C   UNL     1      51.680   3.597  18.075  0.00  0.00    +0.000 A 
ATOM     37  H   UNL     1      49.920   1.244  16.596  0.00  0.00    +0.000 HD
ENDBRANCH  24  27
ENDBRANCH  22  23
ENDBRANCH   4  22
TORSDOF 10
ENDMDL
MODEL 9
REMARK VINA RESULT:    -5.935      5.325      7.911
REMARK INTER + INTRA:         -10.382
REMARK INTER:                  -9.196
REMARK INTRA:                  -1.186
REMARK UNBOUND:                -1.152
REMARK  Name = 
REMARK  10 active torsions:
REMARK  status: ('A' for Active; 'I' for Inactive)
REMARK    1  A    between atoms: N_1  and  C_2
REMARK    2  A    between atoms: C_2  and  C_3
REMARK    3  A    between atoms: C_3  and  N_4
REMARK    4  A    between atoms: N_4  and  C_5
REMARK    5  A    between atoms: C_5  and  C_6
REMARK    6  A    between atoms: C_9  and  C_10
REMARK    7  A    between atoms: C_10  and  C_11
REMARK    8  A    between atoms: C_14  and  C_15
REMARK    9  A    between atoms: C_15  and  N_16
REMARK   10  A    between atoms: C_17  and  C_19
REMARK                            x       y       z     vdW  Elec       q    Type
REMARK                         _______ _______ _______ _____ _____    ______ ____
ROOT
ATOM      1  C   UNL     1      47.577   7.519  12.977  0.00  0.00    +0.000 A 
ATOM      2  C   UNL     1      48.484   7.784  14.013  0.00  0.00    +0.000 A 
ATOM      3  C   UNL     1      49.823   8.079  13.732  0.00  0.00    +0.000 A 
ATOM      4  C   UNL     1      50.278   8.129  12.408  0.00  0.00    +0.000 A 
ATOM      5  C   UNL     1      49.381   7.824  11.376  0.00  0.00    +0.000 A 
ATOM      6  C   UNL     1      48.043   7.532  11.657  0.00  0.00    +0.000 A 
ENDROOT
BRANCH   1   7
ATOM      7  C   UNL     1      46.127   7.224  13.280  0.00  0.00    +0.000 C 
BRANCH   7  11
ATOM      8  C   UNL     1      44.475   3.894  11.183  0.00  0.00    +0.000 A 
ATOM      9  C   UNL     1      44.039   5.173  10.847  0.00  0.00    +0.000 A 
ATOM     10  C   UNL     1      44.584   6.269  11.510  0.00  0.00    +0.000 A 
ATOM     11  C   UNL     1      45.543   6.072  12.507  0.00  0.00    +0.000 A 
ATOM     12  C   UNL     1      45.932   4.760  12.760  0.00  0.00    +0.000 A 
ATOM     13  N   UNL     1      45.423   3.677  12.129  0.00  0.00    +0.000 NA
BRANCH   8  14
ATOM     14  C   UNL     1      43.939   2.689  10.432  0.00  0.00    +0.000 C 
BRANCH  14  15
ATOM     15  N   UNL     1      44.826   2.193   9.360  0.00  0.00    +0.000 NA
ATOM     16  H   UNL     1      45.780   2.248   9.728  0.00  0.00    +0.000 HD
BRANCH  15  17
ATOM     17  C   UNL     1      44.806   3.071   8.174  0.00  0.00    +0.000 C 
BRANCH  17  18
ATOM     18  C   UNL     1      46.081   3.921   8.009  0.00  0.00    +0.000 C 
BRANCH  18  19
ATOM     19  N   UNL     1      46.592   3.847   6.635  0.00  0.00    +0.000 NA
ATOM     20  H   UNL     1      45.865   4.175   5.999  0.00  0.00    +0.000 HD
ATOM     21  H   UNL     1      46.752   2.867   6.399  0.00  0.00    +0.000 HD
ENDBRANCH  18  19
ENDBRANCH  17  18
ENDBRANCH  15  17
ENDBRANCH  14  15
ENDBRANCH   8  14
ENDBRANCH   7  11
ENDBRANCH   1   7
BRANCH   4  22
ATOM     22  C   UNL     1      51.716   8.454  12.095  0.00  0.00    +0.000 C 
BRANCH  22  23
ATOM     23  N   UNL     1      52.079   7.955  10.795  0.00  0.00    +0.000 N 
ATOM     24  C   UNL     1      53.294   7.371  10.554  0.00  0.00    +0.000 C 
ATOM     25  O   UNL     1      54.123   7.189  11.440  0.00  0.00    +0.000 OA
ATOM     26  H   UNL     1      51.534   8.306  10.015  0.00  0.00    +0.000 HD
BRANCH  24  27
ATOM     27  C   UNL     1      53.520   6.909   9.178  0.00  0.00    +0.000 A 
ATOM     28  C   UNL     1      53.836   5.578   8.937  0.00  0.00    +0.000 A 
ATOM     29  S   UNL     1      53.974   5.199   7.279  0.00  0.00    +0.000 S 
ATOM     30  C   UNL     1      53.668   6.812   6.828  0.00  0.00    +0.000 A 
ATOM     31  N   UNL     1      53.648   7.182   5.518  0.00  0.00    +0.000 NA
ATOM     32  C   UNL     1      53.430   8.440   5.323  0.00  0.00    +0.000 A 
ATOM     33  N   UNL     1      53.240   9.363   6.316  0.00  0.00    +0.000 N 
ATOM     34  C   UNL     1      53.245   9.034   7.650  0.00  0.00    +0.000 A 
ATOM     35  O   UNL     1      53.060   9.886   8.513  0.00  0.00    +0.000 OA
ATOM     36  C   UNL     1      53.468   7.628   7.925  0.00  0.00    +0.000 A 
ATOM     37  H   UNL     1      53.075  10.335   6.099  0.00  0.00    +0.000 HD
ENDBRANCH  24  27
ENDBRANCH  22  23
ENDBRANCH   4  22
TORSDOF 10
ENDMDL
