MODEL 1
REMARK VINA RESULT:    -8.337      0.000      0.000
REMARK INTER + INTRA:         -12.954
REMARK INTER:                 -12.480
REMARK INTRA:                  -0.475
REMARK UNBOUND:                -0.475
REMARK  Name = 
REMARK  10 active torsions:
REMARK  status: ('A' for Active; 'I' for Inactive)
REMARK    1  A    between atoms: C_1  and  C_2
REMARK    2  A    between atoms: C_2  and  N_3
REMARK    3  A    between atoms: C_2  and  C_19
REMARK    4  A    between atoms: N_3  and  C_4
REMARK    5  A    between atoms: C_4  and  C_5
REMARK    6  A    between atoms: C_8  and  C_9
REMARK    7  A    between atoms: C_9  and  O_10
REMARK    8  A    between atoms: C_9  and  C_11
REMARK    9  A    between atoms: C_11  and  N_12
REMARK   10  A    between atoms: C_19  and  C_21
REMARK                            x       y       z     vdW  Elec       q    Type
REMARK                         _______ _______ _______ _____ _____    ______ ____
ROOT
ATOM      1  N   UNL     1      47.512   5.252  15.214  0.00  0.00    +0.000 NA
ATOM      2  H   UNL     1      46.568   5.075  15.557  0.00  0.00    +0.000 HD
ENDROOT
BRANCH   1   4
ATOM      3  C   UNL     1      49.576   6.521  15.816  0.00  0.00    +0.000 C 
ATOM      4  C   UNL     1      48.340   5.773  16.324  0.00  0.00    +0.000 C 
BRANCH   4   5
ATOM      5  C   UNL     1      48.704   4.694  17.375  0.00  0.00    +0.000 C 
ATOM      6  O   UNL     1      47.818   4.048  17.938  0.00  0.00    +0.000 OA
BRANCH   5   7
ATOM      7  C   UNL     1      50.122   4.452  17.717  0.00  0.00    +0.000 A 
ATOM      8  C   UNL     1      50.946   5.392  18.307  0.00  0.00    +0.000 A 
ATOM      9  S   UNL     1      52.472   4.773  18.766  0.00  0.00    +0.000 S 
ATOM     10  C   UNL     1      52.090   3.234  18.151  0.00  0.00    +0.000 A 
ATOM     11  N   UNL     1      52.964   2.199  18.262  0.00  0.00    +0.000 NA
ATOM     12  C   UNL     1      52.530   1.086  17.771  0.00  0.00    +0.000 A 
ATOM     13  N   UNL     1      51.317   0.921  17.152  0.00  0.00    +0.000 N 
ATOM     14  C   UNL     1      50.468   1.978  16.887  0.00  0.00    +0.000 A 
ATOM     15  O   UNL     1      49.558   1.865  16.075  0.00  0.00    +0.000 OA
ATOM     16  C   UNL     1      50.842   3.213  17.554  0.00  0.00    +0.000 A 
ATOM     17  H   UNL     1      51.086   0.050  16.701  0.00  0.00    +0.000 HD
ENDBRANCH   5   7
ENDBRANCH   4   5
ENDBRANCH   1   4
BRANCH   1  18
ATOM     18  C   UNL     1      47.417   6.115  14.035  0.00  0.00    +0.000 C 
BRANCH  18  19
ATOM     19  C   UNL     1      46.641   5.399  12.948  0.00  0.00    +0.000 A 
ATOM     20  C   UNL     1      46.324   6.064  11.757  0.00  0.00    +0.000 A 
ATOM     21  C   UNL     1      45.539   5.446  10.776  0.00  0.00    +0.000 A 
ATOM     22  C   UNL     1      45.038   4.151  10.964  0.00  0.00    +0.000 A 
ATOM     23  C   UNL     1      45.381   3.481  12.153  0.00  0.00    +0.000 A 
ATOM     24  C   UNL     1      46.166   4.097  13.135  0.00  0.00    +0.000 A 
BRANCH  22  25
ATOM     25  C   UNL     1      44.103   3.456   9.981  0.00  0.00    +0.000 C 
BRANCH  25  26
ATOM     26  O   UNL     1      43.728   2.190  10.528  0.00  0.00    +0.000 OA
ATOM     27  H   UNL     1      44.537   1.770  10.860  0.00  0.00    +0.000 HD
ENDBRANCH  25  26
BRANCH  25  28
ATOM     28  C   UNL     1      44.660   3.282   8.532  0.00  0.00    +0.000 C 
BRANCH  28  29
ATOM     29  N   UNL     1      46.112   3.005   8.412  0.00  0.00    +0.000 NA
ATOM     30  C   UNL     1      46.717   3.782   7.314  0.00  0.00    +0.000 C 
ATOM     31  C   UNL     1      46.548   2.910   6.085  0.00  0.00    +0.000 C 
ATOM     32  C   UNL     1      46.805   1.521   6.628  0.00  0.00    +0.000 C 
ATOM     33  C   UNL     1      46.403   1.595   8.098  0.00  0.00    +0.000 C 
ENDBRANCH  28  29
ENDBRANCH  25  28
ENDBRANCH  22  25
ENDBRANCH  18  19
ENDBRANCH   1  18
TORSDOF 9
ENDMDL
MODEL 2
REMARK VINA RESULT:    -8.010      2.733      3.559
REMARK INTER + INTRA:         -12.465
REMARK INTER:                 -10.758
REMARK INTRA:                  -1.707
REMARK UNBOUND:                -0.475
REMARK  Name = 
REMARK  10 active torsions:
REMARK  status: ('A' for Active; 'I' for Inactive)
REMARK    1  A    between atoms: C_1  and  C_2
REMARK    2  A    between atoms: C_2  and  N_3
REMARK    3  A    between atoms: C_2  and  C_19
REMARK    4  A    between atoms: N_3  and  C_4
REMARK    5  A    between atoms: C_4  and  C_5
REMARK    6  A    between atoms: C_8  and  C_9
REMARK    7  A    between atoms: C_9  and  O_10
REMARK    8  A    between atoms: C_9  and  C_11
REMARK    9  A    between atoms: C_11  and  N_12
REMARK   10  A    between atoms: C_19  and  C_21
REMARK                            x       y       z     vdW  Elec       q    Type
REMARK                         _______ _______ _______ _____ _____    ______ ____
ROOT
ATOM      1  N   UNL     1      46.657   8.395  13.997  0.00  0.00    +0.000 NA
ATOM      2  H   UNL     1      46.312   8.920  14.801  0.00  0.00    +0.000 HD
ENDROOT
BRANCH   1   4
ATOM      3  C   UNL     1      48.209   9.509  12.389  0.00  0.00    +0.000 C 
ATOM      4  C   UNL     1      48.059   8.786  13.730  0.00  0.00    +0.000 C 
BRANCH   4   5
ATOM      5  C   UNL     1      49.059   7.612  13.875  0.00  0.00    +0.000 C 
ATOM      6  O   UNL     1      49.706   7.219  12.902  0.00  0.00    +0.000 OA
BRANCH   5   7
ATOM      7  C   UNL     1      49.225   6.947  15.186  0.00  0.00    +0.000 A 
ATOM      8  C   UNL     1      50.123   7.360  16.153  0.00  0.00    +0.000 A 
ATOM      9  S   UNL     1      49.958   6.528  17.637  0.00  0.00    +0.000 S 
ATOM     10  C   UNL     1      48.705   5.561  17.016  0.00  0.00    +0.000 A 
ATOM     11  N   UNL     1      48.074   4.646  17.799  0.00  0.00    +0.000 NA
ATOM     12  C   UNL     1      47.128   4.001  17.200  0.00  0.00    +0.000 A 
ATOM     13  N   UNL     1      46.779   4.165  15.883  0.00  0.00    +0.000 N 
ATOM     14  C   UNL     1      47.492   4.973  15.019  0.00  0.00    +0.000 A 
ATOM     15  O   UNL     1      47.361   4.867  13.806  0.00  0.00    +0.000 OA
ATOM     16  C   UNL     1      48.460   5.829  15.682  0.00  0.00    +0.000 A 
ATOM     17  H   UNL     1      46.100   3.556  15.454  0.00  0.00    +0.000 HD
ENDBRANCH   5   7
ENDBRANCH   4   5
ENDBRANCH   1   4
BRANCH   1  18
ATOM     18  C   UNL     1      45.723   8.590  12.887  0.00  0.00    +0.000 C 
BRANCH  18  19
ATOM     19  C   UNL     1      45.307   7.241  12.337  0.00  0.00    +0.000 A 
ATOM     20  C   UNL     1      45.983   6.690  11.240  0.00  0.00    +0.000 A 
ATOM     21  C   UNL     1      45.562   5.484  10.668  0.00  0.00    +0.000 A 
ATOM     22  C   UNL     1      44.445   4.801  11.168  0.00  0.00    +0.000 A 
ATOM     23  C   UNL     1      43.786   5.348  12.283  0.00  0.00    +0.000 A 
ATOM     24  C   UNL     1      44.206   6.554  12.857  0.00  0.00    +0.000 A 
BRANCH  22  25
ATOM     25  C   UNL     1      43.878   3.535  10.536  0.00  0.00    +0.000 C 
BRANCH  25  26
ATOM     26  O   UNL     1      43.022   2.897  11.487  0.00  0.00    +0.000 OA
ATOM     27  H   UNL     1      43.394   3.068  12.367  0.00  0.00    +0.000 HD
ENDBRANCH  25  26
BRANCH  25  28
ATOM     28  C   UNL     1      44.935   2.524   9.989  0.00  0.00    +0.000 C 
BRANCH  28  29
ATOM     29  N   UNL     1      44.821   2.158   8.557  0.00  0.00    +0.000 NA
ATOM     30  C   UNL     1      45.960   1.329   8.122  0.00  0.00    +0.000 C 
ATOM     31  C   UNL     1      47.018   2.323   7.684  0.00  0.00    +0.000 C 
ATOM     32  C   UNL     1      46.198   3.392   6.993  0.00  0.00    +0.000 C 
ATOM     33  C   UNL     1      44.829   3.331   7.664  0.00  0.00    +0.000 C 
ENDBRANCH  28  29
ENDBRANCH  25  28
ENDBRANCH  22  25
ENDBRANCH  18  19
ENDBRANCH   1  18
TORSDOF 9
ENDMDL
MODEL 3
REMARK VINA RESULT:    -7.892      1.197      1.759
REMARK INTER + INTRA:         -12.289
REMARK INTER:                 -11.130
REMARK INTRA:                  -1.159
REMARK UNBOUND:                -0.475
REMARK  Name = 
REMARK  10 active torsions:
REMARK  status: ('A' for Active; 'I' for Inactive)
REMARK    1  A    between atoms: C_1  and  C_2
REMARK    2  A    between atoms: C_2  and  N_3
REMARK    3  A    between atoms: C_2  and  C_19
REMARK    4  A    between atoms: N_3  and  C_4
REMARK    5  A    between atoms: C_4  and  C_5
REMARK    6  A    between atoms: C_8  and  C_9
REMARK    7  A    between atoms: C_9  and  O_10
REMARK    8  A    between atoms: C_9  and  C_11
REMARK    9  A    between atoms: C_11  and  N_12
REMARK   10  A    between atoms: C_19  and  C_21
REMARK                            x       y       z     vdW  Elec       q    Type
REMARK                         _______ _______ _______ _____ _____    ______ ____
ROOT
ATOM      1  N   UNL     1      48.967   5.541  15.980  0.00  0.00    +0.000 NA
ATOM      2  H   UNL     1      48.527   4.701  15.606  0.00  0.00    +0.000 HD
ENDROOT
BRANCH   1   4
ATOM      3  C   UNL     1      48.652   7.247  17.776  0.00  0.00    +0.000 C 
ATOM      4  C   UNL     1      48.449   5.792  17.343  0.00  0.00    +0.000 C 
BRANCH   4   5
ATOM      5  C   UNL     1      48.986   4.790  18.397  0.00  0.00    +0.000 C 
ATOM      6  O   UNL     1      48.230   4.307  19.241  0.00  0.00    +0.000 OA
BRANCH   5   7
ATOM      7  C   UNL     1      50.420   4.426  18.398  0.00  0.00    +0.000 A 
ATOM      8  C   UNL     1      51.416   5.214  18.945  0.00  0.00    +0.000 A 
ATOM      9  S   UNL     1      52.947   4.454  18.979  0.00  0.00    +0.000 S 
ATOM     10  C   UNL     1      52.330   3.060  18.225  0.00  0.00    +0.000 A 
ATOM     11  N   UNL     1      53.123   1.981  17.993  0.00  0.00    +0.000 NA
ATOM     12  C   UNL     1      52.513   0.988  17.435  0.00  0.00    +0.000 A 
ATOM     13  N   UNL     1      51.193   0.988  17.061  0.00  0.00    +0.000 N 
ATOM     14  C   UNL     1      50.397   2.113  17.143  0.00  0.00    +0.000 A 
ATOM     15  O   UNL     1      49.340   2.182  16.527  0.00  0.00    +0.000 OA
ATOM     16  C   UNL     1      50.992   3.199  17.901  0.00  0.00    +0.000 A 
ATOM     17  H   UNL     1      50.810   0.216  16.538  0.00  0.00    +0.000 HD
ENDBRANCH   5   7
ENDBRANCH   4   5
ENDBRANCH   1   4
BRANCH   1  18
ATOM     18  C   UNL     1      48.773   6.628  15.019  0.00  0.00    +0.000 C 
BRANCH  18  19
ATOM     19  C   UNL     1      47.831   6.169  13.925  0.00  0.00    +0.000 A 
ATOM     20  C   UNL     1      47.763   6.873  12.715  0.00  0.00    +0.000 A 
ATOM     21  C   UNL     1      46.842   6.513  11.725  0.00  0.00    +0.000 A 
ATOM     22  C   UNL     1      45.953   5.448  11.921  0.00  0.00    +0.000 A 
ATOM     23  C   UNL     1      46.044   4.731  13.128  0.00  0.00    +0.000 A 
ATOM     24  C   UNL     1      46.965   5.089  14.119  0.00  0.00    +0.000 A 
BRANCH  22  25
ATOM     25  C   UNL     1      44.865   5.062  10.925  0.00  0.00    +0.000 C 
BRANCH  25  26
ATOM     26  O   UNL     1      43.628   5.631  11.361  0.00  0.00    +0.000 OA
ATOM     27  H   UNL     1      43.812   6.546  11.627  0.00  0.00    +0.000 HD
ENDBRANCH  25  26
BRANCH  25  28
ATOM     28  C   UNL     1      44.701   3.530  10.669  0.00  0.00    +0.000 C 
BRANCH  28  29
ATOM     29  N   UNL     1      44.241   3.132   9.316  0.00  0.00    +0.000 NA
ATOM     30  C   UNL     1      44.711   1.779   8.967  0.00  0.00    +0.000 C 
ATOM     31  C   UNL     1      46.072   1.993   8.335  0.00  0.00    +0.000 C 
ATOM     32  C   UNL     1      45.864   3.253   7.523  0.00  0.00    +0.000 C 
ATOM     33  C   UNL     1      44.759   4.011   8.253  0.00  0.00    +0.000 C 
ENDBRANCH  28  29
ENDBRANCH  25  28
ENDBRANCH  22  25
ENDBRANCH  18  19
ENDBRANCH   1  18
TORSDOF 9
ENDMDL
MODEL 4
REMARK VINA RESULT:    -7.682      2.068      2.741
REMARK INTER + INTRA:         -11.974
REMARK INTER:                 -10.547
REMARK INTRA:                  -1.427
REMARK UNBOUND:                -0.475
REMARK  Name = 
REMARK  10 active torsions:
REMARK  status: ('A' for Active; 'I' for Inactive)
REMARK    1  A    between atoms: C_1  and  C_2
REMARK    2  A    between atoms: C_2  and  N_3
REMARK    3  A    between atoms: C_2  and  C_19
REMARK    4  A    between atoms: N_3  and  C_4
REMARK    5  A    between atoms: C_4  and  C_5
REMARK    6  A    between atoms: C_8  and  C_9
REMARK    7  A    between atoms: C_9  and  O_10
REMARK    8  A    between atoms: C_9  and  C_11
REMARK    9  A    between atoms: C_11  and  N_12
REMARK   10  A    between atoms: C_19  and  C_21
REMARK                            x       y       z     vdW  Elec       q    Type
REMARK                         _______ _______ _______ _____ _____    ______ ____
ROOT
ATOM      1  N   UNL     1      49.413   6.679  15.393  0.00  0.00    +0.000 NA
ATOM      2  H   UNL     1      49.005   5.749  15.478  0.00  0.00    +0.000 HD
ENDROOT
BRANCH   1   4
ATOM      3  C   UNL     1      49.990   8.673  16.780  0.00  0.00    +0.000 C 
ATOM      4  C   UNL     1      49.053   7.478  16.585  0.00  0.00    +0.000 C 
BRANCH   4   5
ATOM      5  C   UNL     1      48.917   6.627  17.873  0.00  0.00    +0.000 C 
ATOM      6  O   UNL     1      49.048   7.148  18.982  0.00  0.00    +0.000 OA
BRANCH   5   7
ATOM      7  C   UNL     1      48.647   5.177  17.769  0.00  0.00    +0.000 A 
ATOM      8  C   UNL     1      47.381   4.634  17.654  0.00  0.00    +0.000 A 
ATOM      9  S   UNL     1      47.384   2.951  17.354  0.00  0.00    +0.000 S 
ATOM     10  C   UNL     1      49.082   2.891  17.408  0.00  0.00    +0.000 A 
ATOM     11  N   UNL     1      49.749   1.729  17.183  0.00  0.00    +0.000 NA
ATOM     12  C   UNL     1      51.036   1.839  17.233  0.00  0.00    +0.000 A 
ATOM     13  N   UNL     1      51.712   2.997  17.521  0.00  0.00    +0.000 N 
ATOM     14  C   UNL     1      51.071   4.159  17.902  0.00  0.00    +0.000 A 
ATOM     15  O   UNL     1      51.686   5.068  18.446  0.00  0.00    +0.000 OA
ATOM     16  C   UNL     1      49.631   4.124  17.710  0.00  0.00    +0.000 A 
ATOM     17  H   UNL     1      52.713   2.988  17.645  0.00  0.00    +0.000 HD
ENDBRANCH   5   7
ENDBRANCH   4   5
ENDBRANCH   1   4
BRANCH   1  18
ATOM     18  C   UNL     1      49.003   7.243  14.105  0.00  0.00    +0.000 C 
BRANCH  18  19
ATOM     19  C   UNL     1      47.872   6.416  13.531  0.00  0.00    +0.000 A 
ATOM     20  C   UNL     1      47.189   6.855  12.389  0.00  0.00    +0.000 A 
ATOM     21  C   UNL     1      46.089   6.145  11.892  0.00  0.00    +0.000 A 
ATOM     22  C   UNL     1      45.633   4.985  12.530  0.00  0.00    +0.000 A 
ATOM     23  C   UNL     1      46.337   4.537  13.663  0.00  0.00    +0.000 A 
ATOM     24  C   UNL     1      47.438   5.245  14.161  0.00  0.00    +0.000 A 
BRANCH  22  25
ATOM     25  C   UNL     1      44.388   4.218  12.098  0.00  0.00    +0.000 C 
BRANCH  25  26
ATOM     26  O   UNL     1      43.642   3.867  13.266  0.00  0.00    +0.000 OA
ATOM     27  H   UNL     1      43.015   3.174  13.007  0.00  0.00    +0.000 HD
ENDBRANCH  25  26
BRANCH  25  28
ATOM     28  C   UNL     1      44.649   2.954  11.217  0.00  0.00    +0.000 C 
BRANCH  28  29
ATOM     29  N   UNL     1      44.089   2.979   9.844  0.00  0.00    +0.000 NA
ATOM     30  C   UNL     1      44.530   1.809   9.064  0.00  0.00    +0.000 C 
ATOM     31  C   UNL     1      45.840   2.237   8.432  0.00  0.00    +0.000 C 
ATOM     32  C   UNL     1      45.572   3.680   8.063  0.00  0.00    +0.000 C 
ATOM     33  C   UNL     1      44.526   4.153   9.068  0.00  0.00    +0.000 C 
ENDBRANCH  28  29
ENDBRANCH  25  28
ENDBRANCH  22  25
ENDBRANCH  18  19
ENDBRANCH   1  18
TORSDOF 9
ENDMDL
MODEL 5
REMARK VINA RESULT:    -7.623      3.085      3.983
REMARK INTER + INTRA:         -11.886
REMARK INTER:                 -10.042
REMARK INTRA:                  -1.844
REMARK UNBOUND:                -0.475
REMARK  Name = 
REMARK  10 active torsions:
REMARK  status: ('A' for Active; 'I' for Inactive)
REMARK    1  A    between atoms: C_1  and  C_2
REMARK    2  A    between atoms: C_2  and  N_3
REMARK    3  A    between atoms: C_2  and  C_19
REMARK    4  A    between atoms: N_3  and  C_4
REMARK    5  A    between atoms: C_4  and  C_5
REMARK    6  A    between atoms: C_8  and  C_9
REMARK    7  A    between atoms: C_9  and  O_10
REMARK    8  A    between atoms: C_9  and  C_11
REMARK    9  A    between atoms: C_11  and  N_12
REMARK   10  A    between atoms: C_19  and  C_21
REMARK                            x       y       z     vdW  Elec       q    Type
REMARK                         _______ _______ _______ _____ _____    ______ ____
ROOT
ATOM      1  N   UNL     1      49.540   7.508  13.992  0.00  0.00    +0.000 NA
ATOM      2  H   UNL     1      48.801   6.833  14.183  0.00  0.00    +0.000 HD
ENDROOT
BRANCH   1   4
ATOM      3  C   UNL     1      51.497   7.326  15.533  0.00  0.00    +0.000 C 
ATOM      4  C   UNL     1      50.127   7.959  15.273  0.00  0.00    +0.000 C 
BRANCH   4   5
ATOM      5  C   UNL     1      49.168   7.789  16.479  0.00  0.00    +0.000 C 
ATOM      6  O   UNL     1      48.319   8.646  16.727  0.00  0.00    +0.000 OA
BRANCH   5   7
ATOM      7  C   UNL     1      49.286   6.597  17.347  0.00  0.00    +0.000 A 
ATOM      8  C   UNL     1      50.025   6.562  18.514  0.00  0.00    +0.000 A 
ATOM      9  S   UNL     1      49.820   5.121  19.410  0.00  0.00    +0.000 S 
ATOM     10  C   UNL     1      48.763   4.482  18.241  0.00  0.00    +0.000 A 
ATOM     11  N   UNL     1      48.178   3.268  18.415  0.00  0.00    +0.000 NA
ATOM     12  C   UNL     1      47.382   2.923  17.457  0.00  0.00    +0.000 A 
ATOM     13  N   UNL     1      47.146   3.665  16.328  0.00  0.00    +0.000 N 
ATOM     14  C   UNL     1      47.835   4.829  16.044  0.00  0.00    +0.000 A 
ATOM     15  O   UNL     1      47.838   5.298  14.913  0.00  0.00    +0.000 OA
ATOM     16  C   UNL     1      48.620   5.331  17.158  0.00  0.00    +0.000 A 
ATOM     17  H   UNL     1      46.594   3.288  15.573  0.00  0.00    +0.000 HD
ENDBRANCH   5   7
ENDBRANCH   4   5
ENDBRANCH   1   4
BRANCH   1  18
ATOM     18  C   UNL     1      48.989   8.564  13.141  0.00  0.00    +0.000 C 
BRANCH  18  19
ATOM     19  C   UNL     1      47.656   8.113  12.579  0.00  0.00    +0.000 A 
ATOM     20  C   UNL     1      46.486   8.817  12.893  0.00  0.00    +0.000 A 
ATOM     21  C   UNL     1      45.236   8.369  12.449  0.00  0.00    +0.000 A 
ATOM     22  C   UNL     1      45.120   7.197  11.691  0.00  0.00    +0.000 A 
ATOM     23  C   UNL     1      46.301   6.508  11.360  0.00  0.00    +0.000 A 
ATOM     24  C   UNL     1      47.552   6.955  11.802  0.00  0.00    +0.000 A 
BRANCH  22  25
ATOM     25  C   UNL     1      43.785   6.602  11.255  0.00  0.00    +0.000 C 
BRANCH  25  26
ATOM     26  O   UNL     1      42.850   7.668  11.077  0.00  0.00    +0.000 OA
ATOM     27  H   UNL     1      41.998   7.365  11.430  0.00  0.00    +0.000 HD
ENDBRANCH  25  26
BRANCH  25  28
ATOM     28  C   UNL     1      43.194   5.510  12.203  0.00  0.00    +0.000 C 
BRANCH  28  29
ATOM     29  N   UNL     1      43.054   4.148  11.634  0.00  0.00    +0.000 NA
ATOM     30  C   UNL     1      43.658   3.133  12.517  0.00  0.00    +0.000 C 
ATOM     31  C   UNL     1      45.110   3.059  12.085  0.00  0.00    +0.000 C 
ATOM     32  C   UNL     1      45.012   3.189  10.580  0.00  0.00    +0.000 C 
ATOM     33  C   UNL     1      43.739   3.994  10.338  0.00  0.00    +0.000 C 
ENDBRANCH  28  29
ENDBRANCH  25  28
ENDBRANCH  22  25
ENDBRANCH  18  19
ENDBRANCH   1  18
TORSDOF 9
ENDMDL
MODEL 6
REMARK VINA RESULT:    -7.273      2.885      8.975
REMARK INTER + INTRA:         -11.363
REMARK INTER:                 -10.357
REMARK INTRA:                  -1.005
REMARK UNBOUND:                -0.475
REMARK  Name = 
REMARK  10 active torsions:
REMARK  status: ('A' for Active; 'I' for Inactive)
REMARK    1  A    between atoms: C_1  and  C_2
REMARK    2  A    between atoms: C_2  and  N_3
REMARK    3  A    between atoms: C_2  and  C_19
REMARK    4  A    between atoms: N_3  and  C_4
REMARK    5  A    between atoms: C_4  and  C_5
REMARK    6  A    between atoms: C_8  and  C_9
REMARK    7  A    between atoms: C_9  and  O_10
REMARK    8  A    between atoms: C_9  and  C_11
REMARK    9  A    between atoms: C_11  and  N_12
REMARK   10  A    between atoms: C_19  and  C_21
REMARK                            x       y       z     vdW  Elec       q    Type
REMARK                         _______ _______ _______ _____ _____    ______ ____
ROOT
ATOM      1  N   UNL     1      45.963   7.044  13.136  0.00  0.00    +0.000 NA
ATOM      2  H   UNL     1      45.279   6.408  13.545  0.00  0.00    +0.000 HD
ENDROOT
BRANCH   1   4
ATOM      3  C   UNL     1      45.160   9.123  12.011  0.00  0.00    +0.000 C 
ATOM      4  C   UNL     1      45.407   7.617  11.890  0.00  0.00    +0.000 C 
BRANCH   4   5
ATOM      5  C   UNL     1      44.158   6.860  11.373  0.00  0.00    +0.000 C 
ATOM      6  O   UNL     1      43.188   7.482  10.936  0.00  0.00    +0.000 OA
BRANCH   5   7
ATOM      7  C   UNL     1      44.123   5.382  11.421  0.00  0.00    +0.000 A 
ATOM      8  C   UNL     1      43.536   4.656  12.441  0.00  0.00    +0.000 A 
ATOM      9  S   UNL     1      43.473   2.976  12.134  0.00  0.00    +0.000 S 
ATOM     10  C   UNL     1      44.266   3.165  10.642  0.00  0.00    +0.000 A 
ATOM     11  N   UNL     1      44.495   2.099   9.831  0.00  0.00    +0.000 NA
ATOM     12  C   UNL     1      45.086   2.396   8.721  0.00  0.00    +0.000 A 
ATOM     13  N   UNL     1      45.496   3.656   8.364  0.00  0.00    +0.000 N 
ATOM     14  C   UNL     1      45.417   4.735   9.222  0.00  0.00    +0.000 A 
ATOM     15  O   UNL     1      46.060   5.756   9.009  0.00  0.00    +0.000 OA
ATOM     16  C   UNL     1      44.625   4.481  10.413  0.00  0.00    +0.000 A 
ATOM     17  H   UNL     1      46.042   3.799   7.529  0.00  0.00    +0.000 HD
ENDBRANCH   5   7
ENDBRANCH   4   5
ENDBRANCH   1   4
BRANCH   1  18
ATOM     18  C   UNL     1      47.229   6.324  12.992  0.00  0.00    +0.000 C 
BRANCH  18  19
ATOM     19  C   UNL     1      47.570   5.638  14.300  0.00  0.00    +0.000 A 
ATOM     20  C   UNL     1      47.071   4.358  14.574  0.00  0.00    +0.000 A 
ATOM     21  C   UNL     1      47.308   3.743  15.808  0.00  0.00    +0.000 A 
ATOM     22  C   UNL     1      48.039   4.395  16.809  0.00  0.00    +0.000 A 
ATOM     23  C   UNL     1      48.557   5.671  16.519  0.00  0.00    +0.000 A 
ATOM     24  C   UNL     1      48.322   6.287  15.284  0.00  0.00    +0.000 A 
BRANCH  22  25
ATOM     25  C   UNL     1      48.254   3.824  18.206  0.00  0.00    +0.000 C 
BRANCH  25  26
ATOM     26  O   UNL     1      47.757   4.761  19.163  0.00  0.00    +0.000 OA
ATOM     27  H   UNL     1      48.507   5.033  19.715  0.00  0.00    +0.000 HD
ENDBRANCH  25  26
BRANCH  25  28
ATOM     28  C   UNL     1      49.725   3.422  18.549  0.00  0.00    +0.000 C 
BRANCH  28  29
ATOM     29  N   UNL     1      50.644   3.238  17.400  0.00  0.00    +0.000 NA
ATOM     30  C   UNL     1      50.653   1.837  16.940  0.00  0.00    +0.000 C 
ATOM     31  C   UNL     1      51.721   1.161  17.778  0.00  0.00    +0.000 C 
ATOM     32  C   UNL     1      52.794   2.225  17.864  0.00  0.00    +0.000 C 
ATOM     33  C   UNL     1      52.046   3.548  17.732  0.00  0.00    +0.000 C 
ENDBRANCH  28  29
ENDBRANCH  25  28
ENDBRANCH  22  25
ENDBRANCH  18  19
ENDBRANCH   1  18
TORSDOF 9
ENDMDL
MODEL 7
REMARK VINA RESULT:    -7.216      2.673      3.527
REMARK INTER + INTRA:         -11.276
REMARK INTER:                  -9.906
REMARK INTRA:                  -1.370
REMARK UNBOUND:                -0.475
REMARK  Name = 
REMARK  10 active torsions:
REMARK  status: ('A' for Active; 'I' for Inactive)
REMARK    1  A    between atoms: C_1  and  C_2
REMARK    2  A    between atoms: C_2  and  N_3
REMARK    3  A    between atoms: C_2  and  C_19
REMARK    4  A    between atoms: N_3  and  C_4
REMARK    5  A    between atoms: C_4  and  C_5
REMARK    6  A    between atoms: C_8  and  C_9
REMARK    7  A    between atoms: C_9  and  O_10
REMARK    8  A    between atoms: C_9  and  C_11
REMARK    9  A    between atoms: C_11  and  N_12
REMARK   10  A    between atoms: C_19  and  C_21
REMARK                            x       y       z     vdW  Elec       q    Type
REMARK                         _______ _______ _______ _____ _____    ______ ____
ROOT
ATOM      1  N   UNL     1      49.287   6.880  14.686  0.00  0.00    +0.000 NA
ATOM      2  H   UNL     1      48.412   6.393  14.881  0.00  0.00    +0.000 HD
ENDROOT
BRANCH   1   4
ATOM      3  C   UNL     1      51.415   7.271  15.932  0.00  0.00    +0.000 C 
ATOM      4  C   UNL     1      49.885   7.330  15.962  0.00  0.00    +0.000 C 
BRANCH   4   5
ATOM      5  C   UNL     1      49.298   6.608  17.201  0.00  0.00    +0.000 C 
ATOM      6  O   UNL     1      49.063   7.235  18.236  0.00  0.00    +0.000 OA
BRANCH   5   7
ATOM      7  C   UNL     1      49.036   5.154  17.147  0.00  0.00    +0.000 A 
ATOM      8  C   UNL     1      47.825   4.601  16.771  0.00  0.00    +0.000 A 
ATOM      9  S   UNL     1      47.872   2.900  16.610  0.00  0.00    +0.000 S 
ATOM     10  C   UNL     1      49.505   2.848  17.079  0.00  0.00    +0.000 A 
ATOM     11  N   UNL     1      50.186   1.672  17.112  0.00  0.00    +0.000 NA
ATOM     12  C   UNL     1      51.424   1.788  17.464  0.00  0.00    +0.000 A 
ATOM     13  N   UNL     1      52.032   2.966  17.817  0.00  0.00    +0.000 N 
ATOM     14  C   UNL     1      51.337   4.154  17.941  0.00  0.00    +0.000 A 
ATOM     15  O   UNL     1      51.818   5.104  18.547  0.00  0.00    +0.000 OA
ATOM     16  C   UNL     1      49.987   4.102  17.409  0.00  0.00    +0.000 A 
ATOM     17  H   UNL     1      52.972   2.969  18.181  0.00  0.00    +0.000 HD
ENDBRANCH   5   7
ENDBRANCH   4   5
ENDBRANCH   1   4
BRANCH   1  18
ATOM     18  C   UNL     1      49.018   7.934  13.706  0.00  0.00    +0.000 C 
BRANCH  18  19
ATOM     19  C   UNL     1      47.717   7.634  12.989  0.00  0.00    +0.000 A 
ATOM     20  C   UNL     1      46.566   8.379  13.278  0.00  0.00    +0.000 A 
ATOM     21  C   UNL     1      45.338   8.064  12.686  0.00  0.00    +0.000 A 
ATOM     22  C   UNL     1      45.222   6.987  11.798  0.00  0.00    +0.000 A 
ATOM     23  C   UNL     1      46.386   6.257  11.495  0.00  0.00    +0.000 A 
ATOM     24  C   UNL     1      47.616   6.572  12.086  0.00  0.00    +0.000 A 
BRANCH  22  25
ATOM     25  C   UNL     1      43.900   6.532  11.191  0.00  0.00    +0.000 C 
BRANCH  25  26
ATOM     26  O   UNL     1      43.063   7.677  11.014  0.00  0.00    +0.000 OA
ATOM     27  H   UNL     1      43.007   7.846  10.060  0.00  0.00    +0.000 HD
ENDBRANCH  25  26
BRANCH  25  28
ATOM     28  C   UNL     1      43.142   5.420  11.985  0.00  0.00    +0.000 C 
BRANCH  28  29
ATOM     29  N   UNL     1      43.014   4.102  11.318  0.00  0.00    +0.000 NA
ATOM     30  C   UNL     1      43.509   3.014  12.181  0.00  0.00    +0.000 C 
ATOM     31  C   UNL     1      44.990   2.918  11.871  0.00  0.00    +0.000 C 
ATOM     32  C   UNL     1      45.029   3.146  10.375  0.00  0.00    +0.000 C 
ATOM     33  C   UNL     1      43.806   4.008  10.078  0.00  0.00    +0.000 C 
ENDBRANCH  28  29
ENDBRANCH  25  28
ENDBRANCH  22  25
ENDBRANCH  18  19
ENDBRANCH   1  18
TORSDOF 9
ENDMDL
MODEL 8
REMARK VINA RESULT:    -7.000      2.760      3.846
REMARK INTER + INTRA:         -10.954
REMARK INTER:                  -9.841
REMARK INTRA:                  -1.113
REMARK UNBOUND:                -0.475
REMARK  Name = 
REMARK  10 active torsions:
REMARK  status: ('A' for Active; 'I' for Inactive)
REMARK    1  A    between atoms: C_1  and  C_2
REMARK    2  A    between atoms: C_2  and  N_3
REMARK    3  A    between atoms: C_2  and  C_19
REMARK    4  A    between atoms: N_3  and  C_4
REMARK    5  A    between atoms: C_4  and  C_5
REMARK    6  A    between atoms: C_8  and  C_9
REMARK    7  A    between atoms: C_9  and  O_10
REMARK    8  A    between atoms: C_9  and  C_11
REMARK    9  A    between atoms: C_11  and  N_12
REMARK   10  A    between atoms: C_19  and  C_21
REMARK                            x       y       z     vdW  Elec       q    Type
REMARK                         _______ _______ _______ _____ _____    ______ ____
ROOT
ATOM      1  N   UNL     1      49.941   6.973  14.228  0.00  0.00    +0.000 NA
ATOM      2  H   UNL     1      49.360   6.454  14.886  0.00  0.00    +0.000 HD
ENDROOT
BRANCH   1   4
ATOM      3  C   UNL     1      51.989   8.395  14.102  0.00  0.00    +0.000 C 
ATOM      4  C   UNL     1      50.864   7.849  14.984  0.00  0.00    +0.000 C 
BRANCH   4   5
ATOM      5  C   UNL     1      51.404   7.194  16.281  0.00  0.00    +0.000 C 
ATOM      6  O   UNL     1      52.500   7.525  16.737  0.00  0.00    +0.000 OA
BRANCH   5   7
ATOM      7  C   UNL     1      50.607   6.152  16.964  0.00  0.00    +0.000 A 
ATOM      8  C   UNL     1      51.030   4.847  17.139  0.00  0.00    +0.000 A 
ATOM      9  S   UNL     1      49.993   3.921  18.132  0.00  0.00    +0.000 S 
ATOM     10  C   UNL     1      48.924   5.229  18.326  0.00  0.00    +0.000 A 
ATOM     11  N   UNL     1      47.821   5.121  19.113  0.00  0.00    +0.000 NA
ATOM     12  C   UNL     1      47.115   6.200  19.185  0.00  0.00    +0.000 A 
ATOM     13  N   UNL     1      47.393   7.365  18.515  0.00  0.00    +0.000 N 
ATOM     14  C   UNL     1      48.416   7.467  17.592  0.00  0.00    +0.000 A 
ATOM     15  O   UNL     1      48.452   8.395  16.793  0.00  0.00    +0.000 OA
ATOM     16  C   UNL     1      49.323   6.333  17.595  0.00  0.00    +0.000 A 
ATOM     17  H   UNL     1      46.743   8.136  18.536  0.00  0.00    +0.000 HD
ENDBRANCH   5   7
ENDBRANCH   4   5
ENDBRANCH   1   4
BRANCH   1  18
ATOM     18  C   UNL     1      49.061   7.653  13.276  0.00  0.00    +0.000 C 
BRANCH  18  19
ATOM     19  C   UNL     1      47.926   6.727  12.891  0.00  0.00    +0.000 A 
ATOM     20  C   UNL     1      47.121   7.024  11.783  0.00  0.00    +0.000 A 
ATOM     21  C   UNL     1      46.019   6.224  11.459  0.00  0.00    +0.000 A 
ATOM     22  C   UNL     1      45.681   5.113  12.243  0.00  0.00    +0.000 A 
ATOM     23  C   UNL     1      46.507   4.807  13.341  0.00  0.00    +0.000 A 
ATOM     24  C   UNL     1      47.610   5.606  13.664  0.00  0.00    +0.000 A 
BRANCH  22  25
ATOM     25  C   UNL     1      44.443   4.256  12.004  0.00  0.00    +0.000 C 
BRANCH  25  26
ATOM     26  O   UNL     1      43.865   3.929  13.269  0.00  0.00    +0.000 OA
ATOM     27  H   UNL     1      44.309   3.128  13.589  0.00  0.00    +0.000 HD
ENDBRANCH  25  26
BRANCH  25  28
ATOM     28  C   UNL     1      44.674   2.962  11.159  0.00  0.00    +0.000 C 
BRANCH  28  29
ATOM     29  N   UNL     1      44.092   2.951   9.795  0.00  0.00    +0.000 NA
ATOM     30  C   UNL     1      44.565   1.790   9.019  0.00  0.00    +0.000 C 
ATOM     31  C   UNL     1      45.848   2.262   8.362  0.00  0.00    +0.000 C 
ATOM     32  C   UNL     1      45.518   3.690   7.983  0.00  0.00    +0.000 C 
ATOM     33  C   UNL     1      44.470   4.133   9.000  0.00  0.00    +0.000 C 
ENDBRANCH  28  29
ENDBRANCH  25  28
ENDBRANCH  22  25
ENDBRANCH  18  19
ENDBRANCH   1  18
TORSDOF 9
ENDMDL
MODEL 9
REMARK VINA RESULT:    -6.946      3.045      3.913
REMARK INTER + INTRA:         -10.872
REMARK INTER:                  -9.558
REMARK INTRA:                  -1.314
REMARK UNBOUND:                -0.475
REMARK  Name = 
REMARK  10 active torsions:
REMARK  status: ('A' for Active; 'I' for Inactive)
REMARK    1  A    between atoms: C_1  and  C_2
REMARK    2  A    between atoms: C_2  and  N_3
REMARK    3  A    between atoms: C_2  and  C_19
REMARK    4  A    between atoms: N_3  and  C_4
REMARK    5  A    between atoms: C_4  and  C_5
REMARK    6  A    between atoms: C_8  and  C_9
REMARK    7  A    between atoms: C_9  and  O_10
REMARK    8  A    between atoms: C_9  and  C_11
REMARK    9  A    between atoms: C_11  and  N_12
REMARK   10  A    between atoms: C_19  and  C_21
REMARK                            x       y       z     vdW  Elec       q    Type
REMARK                         _______ _______ _______ _____ _____    ______ ____
ROOT
ATOM      1  N   UNL     1      48.449   8.420  13.854  0.00  0.00    +0.000 NA
ATOM      2  H   UNL     1      48.290   7.536  14.334  0.00  0.00    +0.000 HD
ENDROOT
BRANCH   1   4
ATOM      3  C   UNL     1      49.599  10.622  14.109  0.00  0.00    +0.000 C 
ATOM      4  C   UNL     1      49.003   9.401  14.814  0.00  0.00    +0.000 C 
BRANCH   4   5
ATOM      5  C   UNL     1      49.992   8.772  15.828  0.00  0.00    +0.000 C 
ATOM      6  O   UNL     1      51.181   8.632  15.536  0.00  0.00    +0.000 OA
BRANCH   5   7
ATOM      7  C   UNL     1      49.501   8.322  17.148  0.00  0.00    +0.000 A 
ATOM      8  C   UNL     1      49.623   9.060  18.311  0.00  0.00    +0.000 A 
ATOM      9  S   UNL     1      48.793   8.382  19.642  0.00  0.00    +0.000 S 
ATOM     10  C   UNL     1      48.276   7.056  18.711  0.00  0.00    +0.000 A 
ATOM     11  N   UNL     1      47.473   6.097  19.244  0.00  0.00    +0.000 NA
ATOM     12  C   UNL     1      47.142   5.164  18.414  0.00  0.00    +0.000 A 
ATOM     13  N   UNL     1      47.568   5.086  17.112  0.00  0.00    +0.000 N 
ATOM     14  C   UNL     1      48.501   5.954  16.580  0.00  0.00    +0.000 A 
ATOM     15  O   UNL     1      49.089   5.686  15.540  0.00  0.00    +0.000 OA
ATOM     16  C   UNL     1      48.780   7.103  17.424  0.00  0.00    +0.000 A 
ATOM     17  H   UNL     1      47.354   4.275  16.551  0.00  0.00    +0.000 HD
ENDBRANCH   5   7
ENDBRANCH   4   5
ENDBRANCH   1   4
BRANCH   1  18
ATOM     18  C   UNL     1      47.203   8.815  13.194  0.00  0.00    +0.000 C 
BRANCH  18  19
ATOM     19  C   UNL     1      46.447   7.575  12.764  0.00  0.00    +0.000 A 
ATOM     20  C   UNL     1      45.261   7.695  12.027  0.00  0.00    +0.000 A 
ATOM     21  C   UNL     1      44.506   6.565  11.690  0.00  0.00    +0.000 A 
ATOM     22  C   UNL     1      44.909   5.284  12.092  0.00  0.00    +0.000 A 
ATOM     23  C   UNL     1      46.113   5.170  12.812  0.00  0.00    +0.000 A 
ATOM     24  C   UNL     1      46.869   6.299  13.148  0.00  0.00    +0.000 A 
BRANCH  22  25
ATOM     25  C   UNL     1      44.089   4.024  11.841  0.00  0.00    +0.000 C 
BRANCH  25  26
ATOM     26  O   UNL     1      43.731   3.455  13.103  0.00  0.00    +0.000 OA
ATOM     27  H   UNL     1      44.044   2.537  13.102  0.00  0.00    +0.000 HD
ENDBRANCH  25  26
BRANCH  25  28
ATOM     28  C   UNL     1      44.767   2.951  10.931  0.00  0.00    +0.000 C 
BRANCH  28  29
ATOM     29  N   UNL     1      44.229   2.814   9.556  0.00  0.00    +0.000 NA
ATOM     30  C   UNL     1      44.816   1.653   8.863  0.00  0.00    +0.000 C 
ATOM     31  C   UNL     1      46.076   2.189   8.211  0.00  0.00    +0.000 C 
ATOM     32  C   UNL     1      45.645   3.561   7.740  0.00  0.00    +0.000 C 
ATOM     33  C   UNL     1      44.536   3.975   8.702  0.00  0.00    +0.000 C 
ENDBRANCH  28  29
ENDBRANCH  25  28
ENDBRANCH  22  25
ENDBRANCH  18  19
ENDBRANCH   1  18
TORSDOF 9
ENDMDL
