MODEL 1
REMARK VINA RESULT:    -7.554      0.000      0.000
REMARK INTER + INTRA:         -12.573
REMARK INTER:                 -11.529
REMARK INTRA:                  -1.044
REMARK UNBOUND:                -1.044
REMARK  Name = 
REMARK  11 active torsions:
REMARK  status: ('A' for Active; 'I' for Inactive)
REMARK    1  A    between atoms: C_1  and  C_2
REMARK    2  A    between atoms: C_2  and  C_3
REMARK    3  A    between atoms: C_3  and  C_4
REMARK    4  A    between atoms: C_4  and  N_5
REMARK    5  A    between atoms: C_4  and  C_18
REMARK    6  A    between atoms: C_6  and  C_8
REMARK    7  A    between atoms: C_21  and  C_22
REMARK    8  A    between atoms: C_22  and  C_23
REMARK    9  A    between atoms: C_22  and  N_24
REMARK   10  A    between atoms: N_24  and  C_25
REMARK   11  A    between atoms: C_25  and  C_27
REMARK                            x       y       z     vdW  Elec       q    Type
REMARK                         _______ _______ _______ _____ _____    ______ ____
ROOT
ATOM      1  C   UNL     1      48.625   8.040  12.922  0.00  0.00    +0.000 C 
ENDROOT
BRANCH   1   2
ATOM      2  C   UNL     1      47.300   7.541  12.363  0.00  0.00    +0.000 A 
ATOM      3  C   UNL     1      47.078   6.166  12.205  0.00  0.00    +0.000 A 
ATOM      4  C   UNL     1      45.819   5.673  11.834  0.00  0.00    +0.000 A 
ATOM      5  C   UNL     1      44.753   6.553  11.603  0.00  0.00    +0.000 A 
ATOM      6  C   UNL     1      44.991   7.930  11.711  0.00  0.00    +0.000 A 
ATOM      7  C   UNL     1      46.252   8.416  12.050  0.00  0.00    +0.000 A 
BRANCH   5   8
ATOM      8  C   UNL     1      43.370   6.030  11.248  0.00  0.00    +0.000 C 
ATOM      9  C   UNL     1      42.682   5.452  12.491  0.00  0.00    +0.000 C 
BRANCH   8  10
ATOM     10  N   UNL     1      43.474   5.012  10.197  0.00  0.00    +0.000 N 
ATOM     11  H   UNL     1      43.293   5.332   9.254  0.00  0.00    +0.000 HD
BRANCH  10  12
ATOM     12  C   UNL     1      43.876   3.704  10.334  0.00  0.00    +0.000 C 
ATOM     13  S   UNL     1      43.440   2.666  11.573  0.00  0.00    +0.000 S 
BRANCH  12  14
ATOM     14  C   UNL     1      44.768   3.213   9.298  0.00  0.00    +0.000 A 
ATOM     15  C   UNL     1      45.354   3.899   8.239  0.00  0.00    +0.000 A 
ATOM     16  C   UNL     1      46.219   3.014   7.550  0.00  0.00    +0.000 A 
ATOM     17  C   UNL     1      46.123   1.791   8.169  0.00  0.00    +0.000 A 
ATOM     18  N   UNL     1      45.237   1.913   9.205  0.00  0.00    +0.000 N 
ATOM     19  H   UNL     1      44.976   1.175   9.847  0.00  0.00    +0.000 HD
ENDBRANCH  12  14
ENDBRANCH  10  12
ENDBRANCH   8  10
ENDBRANCH   5   8
ENDBRANCH   1   2
BRANCH   1  20
ATOM     20  N   UNL     1      48.963   7.318  14.143  0.00  0.00    +0.000 N 
ATOM     21  C   UNL     1      48.686   7.846  15.382  0.00  0.00    +0.000 C 
ATOM     22  O   UNL     1      48.043   8.884  15.516  0.00  0.00    +0.000 OA
ATOM     23  H   UNL     1      49.647   6.572  14.062  0.00  0.00    +0.000 HD
BRANCH  21  24
ATOM     24  C   UNL     1      49.153   7.095  16.554  0.00  0.00    +0.000 A 
ATOM     25  C   UNL     1      50.060   7.688  17.424  0.00  0.00    +0.000 A 
ATOM     26  S   UNL     1      50.518   6.687  18.726  0.00  0.00    +0.000 S 
ATOM     27  C   UNL     1      49.556   5.409  18.148  0.00  0.00    +0.000 A 
ATOM     28  N   UNL     1      49.532   4.210  18.792  0.00  0.00    +0.000 NA
ATOM     29  C   UNL     1      48.792   3.316  18.226  0.00  0.00    +0.000 A 
ATOM     30  N   UNL     1      48.063   3.517  17.081  0.00  0.00    +0.000 N 
ATOM     31  C   UNL     1      48.022   4.725  16.421  0.00  0.00    +0.000 A 
ATOM     32  O   UNL     1      47.305   4.896  15.440  0.00  0.00    +0.000 OA
ATOM     33  C   UNL     1      48.866   5.753  16.998  0.00  0.00    +0.000 A 
ATOM     34  H   UNL     1      47.489   2.779  16.703  0.00  0.00    +0.000 HD
ENDBRANCH  21  24
ENDBRANCH   1  20
BRANCH   1  35
ATOM     35  C   UNL     1      49.810   7.964  11.926  0.00  0.00    +0.000 C 
BRANCH  35  37
ATOM     36  C   UNL     1      49.583  10.469  11.743  0.00  0.00    +0.000 C 
ATOM     37  C   UNL     1      50.552   9.298  11.754  0.00  0.00    +0.000 C 
ENDBRANCH  35  37
ENDBRANCH   1  35
TORSDOF 9
ENDMDL
MODEL 2
REMARK VINA RESULT:    -7.487      2.946      4.508
REMARK INTER + INTRA:         -12.469
REMARK INTER:                 -10.815
REMARK INTRA:                  -1.655
REMARK UNBOUND:                -1.044
REMARK  Name = 
REMARK  11 active torsions:
REMARK  status: ('A' for Active; 'I' for Inactive)
REMARK    1  A    between atoms: C_1  and  C_2
REMARK    2  A    between atoms: C_2  and  C_3
REMARK    3  A    between atoms: C_3  and  C_4
REMARK    4  A    between atoms: C_4  and  N_5
REMARK    5  A    between atoms: C_4  and  C_18
REMARK    6  A    between atoms: C_6  and  C_8
REMARK    7  A    between atoms: C_21  and  C_22
REMARK    8  A    between atoms: C_22  and  C_23
REMARK    9  A    between atoms: C_22  and  N_24
REMARK   10  A    between atoms: N_24  and  C_25
REMARK   11  A    between atoms: C_25  and  C_27
REMARK                            x       y       z     vdW  Elec       q    Type
REMARK                         _______ _______ _______ _____ _____    ______ ____
ROOT
ATOM      1  C   UNL     1      49.046   6.186  17.432  0.00  0.00    +0.000 C 
ENDROOT
BRANCH   1   2
ATOM      2  C   UNL     1      48.489   5.948  16.036  0.00  0.00    +0.000 A 
ATOM      3  C   UNL     1      47.612   4.879  15.804  0.00  0.00    +0.000 A 
ATOM      4  C   UNL     1      46.969   4.725  14.567  0.00  0.00    +0.000 A 
ATOM      5  C   UNL     1      47.200   5.637  13.529  0.00  0.00    +0.000 A 
ATOM      6  C   UNL     1      48.117   6.675  13.747  0.00  0.00    +0.000 A 
ATOM      7  C   UNL     1      48.776   6.807  14.967  0.00  0.00    +0.000 A 
BRANCH   5   8
ATOM      8  C   UNL     1      46.473   5.510  12.200  0.00  0.00    +0.000 C 
ATOM      9  C   UNL     1      46.094   6.896  11.663  0.00  0.00    +0.000 C 
BRANCH   8  10
ATOM     10  N   UNL     1      45.278   4.674  12.361  0.00  0.00    +0.000 N 
ATOM     11  H   UNL     1      45.179   4.213  13.255  0.00  0.00    +0.000 HD
BRANCH  10  12
ATOM     12  C   UNL     1      44.238   4.521  11.473  0.00  0.00    +0.000 C 
ATOM     13  S   UNL     1      42.679   5.096  11.677  0.00  0.00    +0.000 S 
BRANCH  12  14
ATOM     14  C   UNL     1      44.553   3.780  10.264  0.00  0.00    +0.000 A 
ATOM     15  C   UNL     1      44.576   4.213   8.943  0.00  0.00    +0.000 A 
ATOM     16  C   UNL     1      45.033   3.151   8.126  0.00  0.00    +0.000 A 
ATOM     17  C   UNL     1      45.246   2.071   8.948  0.00  0.00    +0.000 A 
ATOM     18  N   UNL     1      44.939   2.450  10.227  0.00  0.00    +0.000 N 
ATOM     19  H   UNL     1      45.011   1.863  11.049  0.00  0.00    +0.000 HD
ENDBRANCH  12  14
ENDBRANCH  10  12
ENDBRANCH   8  10
ENDBRANCH   5   8
ENDBRANCH   1   2
BRANCH   1  20
ATOM     20  N   UNL     1      50.309   5.478  17.601  0.00  0.00    +0.000 N 
ATOM     21  C   UNL     1      50.396   4.352  18.385  0.00  0.00    +0.000 C 
ATOM     22  O   UNL     1      49.402   3.828  18.881  0.00  0.00    +0.000 OA
ATOM     23  H   UNL     1      51.156   5.986  17.366  0.00  0.00    +0.000 HD
BRANCH  21  24
ATOM     24  C   UNL     1      51.728   3.765  18.578  0.00  0.00    +0.000 A 
ATOM     25  C   UNL     1      52.705   4.499  19.239  0.00  0.00    +0.000 A 
ATOM     26  S   UNL     1      54.200   3.690  19.370  0.00  0.00    +0.000 S 
ATOM     27  C   UNL     1      53.609   2.350  18.506  0.00  0.00    +0.000 A 
ATOM     28  N   UNL     1      54.419   1.294  18.221  0.00  0.00    +0.000 NA
ATOM     29  C   UNL     1      53.855   0.363  17.527  0.00  0.00    +0.000 A 
ATOM     30  N   UNL     1      52.550   0.386  17.103  0.00  0.00    +0.000 N 
ATOM     31  C   UNL     1      51.682   1.412  17.406  0.00  0.00    +0.000 A 
ATOM     32  O   UNL     1      50.502   1.372  17.074  0.00  0.00    +0.000 OA
ATOM     33  C   UNL     1      52.279   2.501  18.155  0.00  0.00    +0.000 A 
ATOM     34  H   UNL     1      52.167  -0.386  16.580  0.00  0.00    +0.000 HD
ENDBRANCH  21  24
ENDBRANCH   1  20
BRANCH   1  35
ATOM     35  C   UNL     1      49.231   7.679  17.802  0.00  0.00    +0.000 C 
BRANCH  35  37
ATOM     36  C   UNL     1      47.511   7.002  19.518  0.00  0.00    +0.000 C 
ATOM     37  C   UNL     1      48.261   8.165  18.890  0.00  0.00    +0.000 C 
ENDBRANCH  35  37
ENDBRANCH   1  35
TORSDOF 9
ENDMDL
MODEL 3
REMARK VINA RESULT:    -7.411      2.928      5.101
REMARK INTER + INTRA:         -12.354
REMARK INTER:                 -10.809
REMARK INTRA:                  -1.544
REMARK UNBOUND:                -1.044
REMARK  Name = 
REMARK  11 active torsions:
REMARK  status: ('A' for Active; 'I' for Inactive)
REMARK    1  A    between atoms: C_1  and  C_2
REMARK    2  A    between atoms: C_2  and  C_3
REMARK    3  A    between atoms: C_3  and  C_4
REMARK    4  A    between atoms: C_4  and  N_5
REMARK    5  A    between atoms: C_4  and  C_18
REMARK    6  A    between atoms: C_6  and  C_8
REMARK    7  A    between atoms: C_21  and  C_22
REMARK    8  A    between atoms: C_22  and  C_23
REMARK    9  A    between atoms: C_22  and  N_24
REMARK   10  A    between atoms: N_24  and  C_25
REMARK   11  A    between atoms: C_25  and  C_27
REMARK                            x       y       z     vdW  Elec       q    Type
REMARK                         _______ _______ _______ _____ _____    ______ ____
ROOT
ATOM      1  C   UNL     1      47.882   3.870  17.216  0.00  0.00    +0.000 C 
ENDROOT
BRANCH   1   2
ATOM      2  C   UNL     1      47.677   4.402  15.805  0.00  0.00    +0.000 A 
ATOM      3  C   UNL     1      46.976   3.637  14.862  0.00  0.00    +0.000 A 
ATOM      4  C   UNL     1      46.644   4.162  13.605  0.00  0.00    +0.000 A 
ATOM      5  C   UNL     1      47.020   5.467  13.261  0.00  0.00    +0.000 A 
ATOM      6  C   UNL     1      47.766   6.211  14.185  0.00  0.00    +0.000 A 
ATOM      7  C   UNL     1      48.118   5.675  15.422  0.00  0.00    +0.000 A 
BRANCH   5   8
ATOM      8  C   UNL     1      46.625   6.067  11.920  0.00  0.00    +0.000 C 
ATOM      9  C   UNL     1      47.404   7.363  11.664  0.00  0.00    +0.000 C 
BRANCH   8  10
ATOM     10  N   UNL     1      45.180   6.319  11.890  0.00  0.00    +0.000 N 
ATOM     11  H   UNL     1      44.886   7.238  12.194  0.00  0.00    +0.000 HD
BRANCH  10  12
ATOM     12  C   UNL     1      44.194   5.486  11.413  0.00  0.00    +0.000 C 
ATOM     13  S   UNL     1      42.598   5.462  11.919  0.00  0.00    +0.000 S 
BRANCH  12  14
ATOM     14  C   UNL     1      44.612   4.549  10.385  0.00  0.00    +0.000 A 
ATOM     15  C   UNL     1      44.713   3.163  10.442  0.00  0.00    +0.000 A 
ATOM     16  C   UNL     1      45.077   2.683   9.160  0.00  0.00    +0.000 A 
ATOM     17  C   UNL     1      45.231   3.780   8.346  0.00  0.00    +0.000 A 
ATOM     18  N   UNL     1      44.970   4.897   9.093  0.00  0.00    +0.000 N 
ATOM     19  H   UNL     1      44.994   5.850   8.755  0.00  0.00    +0.000 HD
ENDBRANCH  12  14
ENDBRANCH  10  12
ENDBRANCH   8  10
ENDBRANCH   5   8
ENDBRANCH   1   2
BRANCH   1  20
ATOM     20  N   UNL     1      49.299   3.637  17.469  0.00  0.00    +0.000 N 
ATOM     21  C   UNL     1      49.936   2.523  16.977  0.00  0.00    +0.000 C 
ATOM     22  O   UNL     1      49.379   1.740  16.212  0.00  0.00    +0.000 OA
ATOM     23  H   UNL     1      49.720   4.153  18.235  0.00  0.00    +0.000 HD
BRANCH  21  24
ATOM     24  C   UNL     1      51.338   2.321  17.366  0.00  0.00    +0.000 A 
ATOM     25  C   UNL     1      51.805   1.030  17.578  0.00  0.00    +0.000 A 
ATOM     26  S   UNL     1      53.445   0.960  18.039  0.00  0.00    +0.000 S 
ATOM     27  C   UNL     1      53.576   2.656  18.018  0.00  0.00    +0.000 A 
ATOM     28  N   UNL     1      54.739   3.267  18.370  0.00  0.00    +0.000 NA
ATOM     29  C   UNL     1      54.690   4.557  18.348  0.00  0.00    +0.000 A 
ATOM     30  N   UNL     1      53.586   5.291  17.992  0.00  0.00    +0.000 N 
ATOM     31  C   UNL     1      52.404   4.715  17.586  0.00  0.00    +0.000 A 
ATOM     32  O   UNL     1      51.456   5.396  17.206  0.00  0.00    +0.000 OA
ATOM     33  C   UNL     1      52.396   3.265  17.628  0.00  0.00    +0.000 A 
ATOM     34  H   UNL     1      53.624   6.298  17.978  0.00  0.00    +0.000 HD
ENDBRANCH  21  24
ENDBRANCH   1  20
BRANCH   1  35
ATOM     35  C   UNL     1      47.294   4.770  18.332  0.00  0.00    +0.000 C 
BRANCH  35  37
ATOM     36  C   UNL     1      48.353   5.232  20.574  0.00  0.00    +0.000 C 
ATOM     37  C   UNL     1      48.358   5.575  19.094  0.00  0.00    +0.000 C 
ENDBRANCH  35  37
ENDBRANCH   1  35
TORSDOF 9
ENDMDL
MODEL 4
REMARK VINA RESULT:    -7.239      2.556      3.288
REMARK INTER + INTRA:         -12.092
REMARK INTER:                 -10.464
REMARK INTRA:                  -1.628
REMARK UNBOUND:                -1.044
REMARK  Name = 
REMARK  11 active torsions:
REMARK  status: ('A' for Active; 'I' for Inactive)
REMARK    1  A    between atoms: C_1  and  C_2
REMARK    2  A    between atoms: C_2  and  C_3
REMARK    3  A    between atoms: C_3  and  C_4
REMARK    4  A    between atoms: C_4  and  N_5
REMARK    5  A    between atoms: C_4  and  C_18
REMARK    6  A    between atoms: C_6  and  C_8
REMARK    7  A    between atoms: C_21  and  C_22
REMARK    8  A    between atoms: C_22  and  C_23
REMARK    9  A    between atoms: C_22  and  N_24
REMARK   10  A    between atoms: N_24  and  C_25
REMARK   11  A    between atoms: C_25  and  C_27
REMARK                            x       y       z     vdW  Elec       q    Type
REMARK                         _______ _______ _______ _____ _____    ______ ____
ROOT
ATOM      1  C   UNL     1      50.195   7.628  15.782  0.00  0.00    +0.000 C 
ENDROOT
BRANCH   1   2
ATOM      2  C   UNL     1      49.294   7.173  14.642  0.00  0.00    +0.000 A 
ATOM      3  C   UNL     1      48.282   6.232  14.881  0.00  0.00    +0.000 A 
ATOM      4  C   UNL     1      47.346   5.908  13.889  0.00  0.00    +0.000 A 
ATOM      5  C   UNL     1      47.410   6.515  12.628  0.00  0.00    +0.000 A 
ATOM      6  C   UNL     1      48.453   7.417  12.375  0.00  0.00    +0.000 A 
ATOM      7  C   UNL     1      49.398   7.713  13.354  0.00  0.00    +0.000 A 
BRANCH   5   8
ATOM      8  C   UNL     1      46.372   6.209  11.559  0.00  0.00    +0.000 C 
ATOM      9  C   UNL     1      45.459   7.421  11.338  0.00  0.00    +0.000 C 
BRANCH   8  10
ATOM     10  N   UNL     1      45.584   5.034  11.948  0.00  0.00    +0.000 N 
ATOM     11  H   UNL     1      45.847   4.596  12.821  0.00  0.00    +0.000 HD
BRANCH  10  12
ATOM     12  C   UNL     1      44.479   4.518  11.310  0.00  0.00    +0.000 C 
ATOM     13  S   UNL     1      42.889   4.699  11.799  0.00  0.00    +0.000 S 
BRANCH  12  14
ATOM     14  C   UNL     1      44.755   3.743  10.113  0.00  0.00    +0.000 A 
ATOM     15  C   UNL     1      44.873   4.169   8.794  0.00  0.00    +0.000 A 
ATOM     16  C   UNL     1      45.238   3.060   7.992  0.00  0.00    +0.000 A 
ATOM     17  C   UNL     1      45.302   1.966   8.820  0.00  0.00    +0.000 A 
ATOM     18  N   UNL     1      44.993   2.379  10.088  0.00  0.00    +0.000 N 
ATOM     19  H   UNL     1      44.971   1.791  10.911  0.00  0.00    +0.000 HD
ENDBRANCH  12  14
ENDBRANCH  10  12
ENDBRANCH   8  10
ENDBRANCH   5   8
ENDBRANCH   1   2
BRANCH   1  20
ATOM     20  N   UNL     1      51.044   6.529  16.225  0.00  0.00    +0.000 N 
ATOM     21  C   UNL     1      50.775   5.845  17.387  0.00  0.00    +0.000 C 
ATOM     22  O   UNL     1      49.753   6.048  18.038  0.00  0.00    +0.000 OA
ATOM     23  H   UNL     1      51.972   6.472  15.819  0.00  0.00    +0.000 HD
BRANCH  21  24
ATOM     24  C   UNL     1      51.741   4.821  17.806  0.00  0.00    +0.000 A 
ATOM     25  C   UNL     1      52.976   5.216  18.305  0.00  0.00    +0.000 A 
ATOM     26  S   UNL     1      53.990   3.915  18.733  0.00  0.00    +0.000 S 
ATOM     27  C   UNL     1      52.833   2.777  18.224  0.00  0.00    +0.000 A 
ATOM     28  N   UNL     1      53.098   1.443  18.277  0.00  0.00    +0.000 NA
ATOM     29  C   UNL     1      52.150   0.694  17.824  0.00  0.00    +0.000 A 
ATOM     30  N   UNL     1      50.955   1.157  17.334  0.00  0.00    +0.000 N 
ATOM     31  C   UNL     1      50.626   2.493  17.301  0.00  0.00    +0.000 A 
ATOM     32  O   UNL     1      49.522   2.874  16.924  0.00  0.00    +0.000 OA
ATOM     33  C   UNL     1      51.674   3.381  17.768  0.00  0.00    +0.000 A 
ATOM     34  H   UNL     1      50.248   0.513  17.013  0.00  0.00    +0.000 HD
ENDBRANCH  21  24
ENDBRANCH   1  20
BRANCH   1  35
ATOM     35  C   UNL     1      51.070   8.863  15.453  0.00  0.00    +0.000 C 
BRANCH  35  37
ATOM     36  C   UNL     1      52.974   8.546  13.830  0.00  0.00    +0.000 C 
ATOM     37  C   UNL     1      52.562   8.532  15.292  0.00  0.00    +0.000 C 
ENDBRANCH  35  37
ENDBRANCH   1  35
TORSDOF 9
ENDMDL
MODEL 5
REMARK VINA RESULT:    -7.090      2.424      3.980
REMARK INTER + INTRA:         -11.864
REMARK INTER:                 -11.065
REMARK INTRA:                  -0.798
REMARK UNBOUND:                -1.044
REMARK  Name = 
REMARK  11 active torsions:
REMARK  status: ('A' for Active; 'I' for Inactive)
REMARK    1  A    between atoms: C_1  and  C_2
REMARK    2  A    between atoms: C_2  and  C_3
REMARK    3  A    between atoms: C_3  and  C_4
REMARK    4  A    between atoms: C_4  and  N_5
REMARK    5  A    between atoms: C_4  and  C_18
REMARK    6  A    between atoms: C_6  and  C_8
REMARK    7  A    between atoms: C_21  and  C_22
REMARK    8  A    between atoms: C_22  and  C_23
REMARK    9  A    between atoms: C_22  and  N_24
REMARK   10  A    between atoms: N_24  and  C_25
REMARK   11  A    between atoms: C_25  and  C_27
REMARK                            x       y       z     vdW  Elec       q    Type
REMARK                         _______ _______ _______ _____ _____    ______ ____
ROOT
ATOM      1  C   UNL     1      47.815   4.763  15.582  0.00  0.00    +0.000 C 
ENDROOT
BRANCH   1   2
ATOM      2  C   UNL     1      47.155   4.932  14.221  0.00  0.00    +0.000 A 
ATOM      3  C   UNL     1      46.166   4.030  13.804  0.00  0.00    +0.000 A 
ATOM      4  C   UNL     1      45.439   4.247  12.625  0.00  0.00    +0.000 A 
ATOM      5  C   UNL     1      45.696   5.372  11.830  0.00  0.00    +0.000 A 
ATOM      6  C   UNL     1      46.721   6.244  12.222  0.00  0.00    +0.000 A 
ATOM      7  C   UNL     1      47.461   6.009  13.378  0.00  0.00    +0.000 A 
BRANCH   5   8
ATOM      8  C   UNL     1      44.882   5.645  10.575  0.00  0.00    +0.000 C 
ATOM      9  C   UNL     1      43.407   5.293  10.807  0.00  0.00    +0.000 C 
BRANCH   8  10
ATOM     10  N   UNL     1      45.424   4.875   9.449  0.00  0.00    +0.000 N 
ATOM     11  H   UNL     1      46.058   5.375   8.838  0.00  0.00    +0.000 HD
BRANCH  10  12
ATOM     12  C   UNL     1      45.243   3.538   9.184  0.00  0.00    +0.000 C 
ATOM     13  S   UNL     1      44.242   2.495  10.029  0.00  0.00    +0.000 S 
BRANCH  12  14
ATOM     14  C   UNL     1      46.011   3.013   8.068  0.00  0.00    +0.000 A 
ATOM     15  C   UNL     1      46.426   3.650   6.904  0.00  0.00    +0.000 A 
ATOM     16  C   UNL     1      47.229   2.753   6.158  0.00  0.00    +0.000 A 
ATOM     17  C   UNL     1      47.265   1.569   6.854  0.00  0.00    +0.000 A 
ATOM     18  N   UNL     1      46.517   1.726   7.989  0.00  0.00    +0.000 N 
ATOM     19  H   UNL     1      46.372   1.021   8.702  0.00  0.00    +0.000 HD
ENDBRANCH  12  14
ENDBRANCH  10  12
ENDBRANCH   8  10
ENDBRANCH   5   8
ENDBRANCH   1   2
BRANCH   1  20
ATOM     20  N   UNL     1      47.975   6.058  16.232  0.00  0.00    +0.000 N 
ATOM     21  C   UNL     1      49.217   6.525  16.593  0.00  0.00    +0.000 C 
ATOM     22  O   UNL     1      50.248   5.934  16.284  0.00  0.00    +0.000 OA
ATOM     23  H   UNL     1      47.149   6.464  16.658  0.00  0.00    +0.000 HD
BRANCH  21  24
ATOM     24  C   UNL     1      49.272   7.793  17.332  0.00  0.00    +0.000 A 
ATOM     25  C   UNL     1      50.059   8.830  16.846  0.00  0.00    +0.000 A 
ATOM     26  S   UNL     1      50.030  10.228  17.821  0.00  0.00    +0.000 S 
ATOM     27  C   UNL     1      49.003   9.481  18.952  0.00  0.00    +0.000 A 
ATOM     28  N   UNL     1      48.621  10.134  20.084  0.00  0.00    +0.000 NA
ATOM     29  C   UNL     1      47.874   9.439  20.874  0.00  0.00    +0.000 A 
ATOM     30  N   UNL     1      47.462   8.153  20.628  0.00  0.00    +0.000 N 
ATOM     31  C   UNL     1      47.786   7.469  19.478  0.00  0.00    +0.000 A 
ATOM     32  O   UNL     1      47.345   6.346  19.253  0.00  0.00    +0.000 OA
ATOM     33  C   UNL     1      48.656   8.196  18.573  0.00  0.00    +0.000 A 
ATOM     34  H   UNL     1      46.861   7.674  21.281  0.00  0.00    +0.000 HD
ENDBRANCH  21  24
ENDBRANCH   1  20
BRANCH   1  35
ATOM     35  C   UNL     1      47.078   3.789  16.535  0.00  0.00    +0.000 C 
BRANCH  35  37
ATOM     36  C   UNL     1      49.196   2.489  16.965  0.00  0.00    +0.000 C 
ATOM     37  C   UNL     1      47.993   3.165  17.600  0.00  0.00    +0.000 C 
ENDBRANCH  35  37
ENDBRANCH   1  35
TORSDOF 9
ENDMDL
MODEL 6
REMARK VINA RESULT:    -6.860      2.300      7.554
REMARK INTER + INTRA:         -11.513
REMARK INTER:                  -9.469
REMARK INTRA:                  -2.044
REMARK UNBOUND:                -1.044
REMARK  Name = 
REMARK  11 active torsions:
REMARK  status: ('A' for Active; 'I' for Inactive)
REMARK    1  A    between atoms: C_1  and  C_2
REMARK    2  A    between atoms: C_2  and  C_3
REMARK    3  A    between atoms: C_3  and  C_4
REMARK    4  A    between atoms: C_4  and  N_5
REMARK    5  A    between atoms: C_4  and  C_18
REMARK    6  A    between atoms: C_6  and  C_8
REMARK    7  A    between atoms: C_21  and  C_22
REMARK    8  A    between atoms: C_22  and  C_23
REMARK    9  A    between atoms: C_22  and  N_24
REMARK   10  A    between atoms: N_24  and  C_25
REMARK   11  A    between atoms: C_25  and  C_27
REMARK                            x       y       z     vdW  Elec       q    Type
REMARK                         _______ _______ _______ _____ _____    ______ ____
ROOT
ATOM      1  C   UNL     1      47.303   8.552  12.685  0.00  0.00    +0.000 C 
ENDROOT
BRANCH   1   2
ATOM      2  C   UNL     1      47.897   8.254  14.054  0.00  0.00    +0.000 A 
ATOM      3  C   UNL     1      47.882   9.237  15.054  0.00  0.00    +0.000 A 
ATOM      4  C   UNL     1      48.285   8.943  16.364  0.00  0.00    +0.000 A 
ATOM      5  C   UNL     1      48.723   7.655  16.700  0.00  0.00    +0.000 A 
ATOM      6  C   UNL     1      48.786   6.689  15.687  0.00  0.00    +0.000 A 
ATOM      7  C   UNL     1      48.412   6.993  14.379  0.00  0.00    +0.000 A 
BRANCH   5   8
ATOM      8  C   UNL     1      49.116   7.310  18.127  0.00  0.00    +0.000 C 
ATOM      9  C   UNL     1      50.583   6.865  18.185  0.00  0.00    +0.000 C 
BRANCH   8  10
ATOM     10  N   UNL     1      48.237   6.257  18.649  0.00  0.00    +0.000 N 
ATOM     11  H   UNL     1      47.247   6.394  18.495  0.00  0.00    +0.000 HD
BRANCH  10  12
ATOM     12  C   UNL     1      48.609   5.071  19.238  0.00  0.00    +0.000 C 
ATOM     13  S   UNL     1      48.814   4.810  20.879  0.00  0.00    +0.000 S 
BRANCH  12  14
ATOM     14  C   UNL     1      48.847   3.968  18.323  0.00  0.00    +0.000 A 
ATOM     15  C   UNL     1      48.027   3.459  17.322  0.00  0.00    +0.000 A 
ATOM     16  C   UNL     1      48.731   2.439  16.636  0.00  0.00    +0.000 A 
ATOM     17  C   UNL     1      49.955   2.311  17.247  0.00  0.00    +0.000 A 
ATOM     18  N   UNL     1      50.010   3.218  18.271  0.00  0.00    +0.000 N 
ATOM     19  H   UNL     1      50.798   3.359  18.891  0.00  0.00    +0.000 HD
ENDBRANCH  12  14
ENDBRANCH  10  12
ENDBRANCH   8  10
ENDBRANCH   5   8
ENDBRANCH   1   2
BRANCH   1  20
ATOM     20  N   UNL     1      46.477   7.438  12.237  0.00  0.00    +0.000 N 
ATOM     21  C   UNL     1      46.881   6.619  11.209  0.00  0.00    +0.000 C 
ATOM     22  O   UNL     1      47.996   6.716  10.701  0.00  0.00    +0.000 OA
ATOM     23  H   UNL     1      45.498   7.455  12.502  0.00  0.00    +0.000 HD
BRANCH  21  24
ATOM     24  C   UNL     1      45.940   5.585  10.759  0.00  0.00    +0.000 A 
ATOM     25  C   UNL     1      45.714   5.416   9.399  0.00  0.00    +0.000 A 
ATOM     26  S   UNL     1      44.587   4.190   9.037  0.00  0.00    +0.000 S 
ATOM     27  C   UNL     1      44.325   3.873  10.688  0.00  0.00    +0.000 A 
ATOM     28  N   UNL     1      43.416   2.940  11.081  0.00  0.00    +0.000 NA
ATOM     29  C   UNL     1      43.288   2.828  12.361  0.00  0.00    +0.000 A 
ATOM     30  N   UNL     1      43.997   3.555  13.283  0.00  0.00    +0.000 N 
ATOM     31  C   UNL     1      44.958   4.477  12.932  0.00  0.00    +0.000 A 
ATOM     32  O   UNL     1      45.627   5.061  13.779  0.00  0.00    +0.000 OA
ATOM     33  C   UNL     1      45.114   4.666  11.503  0.00  0.00    +0.000 A 
ATOM     34  H   UNL     1      43.862   3.402  14.271  0.00  0.00    +0.000 HD
ENDBRANCH  21  24
ENDBRANCH   1  20
BRANCH   1  35
ATOM     35  C   UNL     1      46.488   9.868  12.612  0.00  0.00    +0.000 C 
BRANCH  35  37
ATOM     36  C   UNL     1      44.532  10.136  11.042  0.00  0.00    +0.000 C 
ATOM     37  C   UNL     1      44.981   9.644  12.408  0.00  0.00    +0.000 C 
ENDBRANCH  35  37
ENDBRANCH   1  35
TORSDOF 9
ENDMDL
MODEL 7
REMARK VINA RESULT:    -6.810      2.017      7.645
REMARK INTER + INTRA:         -11.437
REMARK INTER:                 -10.199
REMARK INTRA:                  -1.239
REMARK UNBOUND:                -1.044
REMARK  Name = 
REMARK  11 active torsions:
REMARK  status: ('A' for Active; 'I' for Inactive)
REMARK    1  A    between atoms: C_1  and  C_2
REMARK    2  A    between atoms: C_2  and  C_3
REMARK    3  A    between atoms: C_3  and  C_4
REMARK    4  A    between atoms: C_4  and  N_5
REMARK    5  A    between atoms: C_4  and  C_18
REMARK    6  A    between atoms: C_6  and  C_8
REMARK    7  A    between atoms: C_21  and  C_22
REMARK    8  A    between atoms: C_22  and  C_23
REMARK    9  A    between atoms: C_22  and  N_24
REMARK   10  A    between atoms: N_24  and  C_25
REMARK   11  A    between atoms: C_25  and  C_27
REMARK                            x       y       z     vdW  Elec       q    Type
REMARK                         _______ _______ _______ _____ _____    ______ ____
ROOT
ATOM      1  C   UNL     1      47.695   7.957  12.404  0.00  0.00    +0.000 C 
ENDROOT
BRANCH   1   2
ATOM      2  C   UNL     1      48.176   7.812  13.840  0.00  0.00    +0.000 A 
ATOM      3  C   UNL     1      47.994   8.863  14.750  0.00  0.00    +0.000 A 
ATOM      4  C   UNL     1      48.292   8.702  16.111  0.00  0.00    +0.000 A 
ATOM      5  C   UNL     1      48.790   7.483  16.589  0.00  0.00    +0.000 A 
ATOM      6  C   UNL     1      49.020   6.451  15.668  0.00  0.00    +0.000 A 
ATOM      7  C   UNL     1      48.751   6.625  14.313  0.00  0.00    +0.000 A 
BRANCH   5   8
ATOM      8  C   UNL     1      49.071   7.279  18.069  0.00  0.00    +0.000 C 
ATOM      9  C   UNL     1      50.542   6.901  18.287  0.00  0.00    +0.000 C 
BRANCH   8  10
ATOM     10  N   UNL     1      48.187   6.240  18.609  0.00  0.00    +0.000 N 
ATOM     11  H   UNL     1      47.197   6.380  18.455  0.00  0.00    +0.000 HD
BRANCH  10  12
ATOM     12  C   UNL     1      48.553   5.060  19.215  0.00  0.00    +0.000 C 
ATOM     13  S   UNL     1      48.744   4.819  20.861  0.00  0.00    +0.000 S 
BRANCH  12  14
ATOM     14  C   UNL     1      48.797   3.946  18.316  0.00  0.00    +0.000 A 
ATOM     15  C   UNL     1      47.959   3.384  17.359  0.00  0.00    +0.000 A 
ATOM     16  C   UNL     1      48.674   2.375  16.668  0.00  0.00    +0.000 A 
ATOM     17  C   UNL     1      49.924   2.306  17.234  0.00  0.00    +0.000 A 
ATOM     18  N   UNL     1      49.984   3.238  18.234  0.00  0.00    +0.000 N 
ATOM     19  H   UNL     1      50.789   3.422  18.820  0.00  0.00    +0.000 HD
ENDBRANCH  12  14
ENDBRANCH  10  12
ENDBRANCH   8  10
ENDBRANCH   5   8
ENDBRANCH   1   2
BRANCH   1  20
ATOM     20  N   UNL     1      46.954   6.769  11.996  0.00  0.00    +0.000 N 
ATOM     21  C   UNL     1      45.635   6.598  12.342  0.00  0.00    +0.000 C 
ATOM     22  O   UNL     1      44.992   7.480  12.906  0.00  0.00    +0.000 OA
ATOM     23  H   UNL     1      47.500   5.964  11.705  0.00  0.00    +0.000 HD
BRANCH  21  24
ATOM     24  C   UNL     1      45.000   5.326  11.973  0.00  0.00    +0.000 A 
ATOM     25  C   UNL     1      44.311   4.605  12.940  0.00  0.00    +0.000 A 
ATOM     26  S   UNL     1      43.645   3.146  12.363  0.00  0.00    +0.000 S 
ATOM     27  C   UNL     1      44.293   3.403  10.812  0.00  0.00    +0.000 A 
ATOM     28  N   UNL     1      44.127   2.479   9.827  0.00  0.00    +0.000 NA
ATOM     29  C   UNL     1      44.703   2.781   8.712  0.00  0.00    +0.000 A 
ATOM     30  N   UNL     1      45.420   3.930   8.489  0.00  0.00    +0.000 N 
ATOM     31  C   UNL     1      45.577   4.912   9.441  0.00  0.00    +0.000 A 
ATOM     32  O   UNL     1      46.163   5.960   9.192  0.00  0.00    +0.000 OA
ATOM     33  C   UNL     1      44.977   4.603  10.725  0.00  0.00    +0.000 A 
ATOM     34  H   UNL     1      45.828   4.112   7.585  0.00  0.00    +0.000 HD
ENDBRANCH  21  24
ENDBRANCH   1  20
BRANCH   1  35
ATOM     35  C   UNL     1      46.839   9.221  12.139  0.00  0.00    +0.000 C 
BRANCH  35  37
ATOM     36  C   UNL     1      49.087  10.034  11.336  0.00  0.00    +0.000 C 
ATOM     37  C   UNL     1      47.597  10.328  11.391  0.00  0.00    +0.000 C 
ENDBRANCH  35  37
ENDBRANCH   1  35
TORSDOF 9
ENDMDL
MODEL 8
REMARK VINA RESULT:    -6.607      2.403      7.804
REMARK INTER + INTRA:         -11.127
REMARK INTER:                  -8.685
REMARK INTRA:                  -2.442
REMARK UNBOUND:                -1.044
REMARK  Name = 
REMARK  11 active torsions:
REMARK  status: ('A' for Active; 'I' for Inactive)
REMARK    1  A    between atoms: C_1  and  C_2
REMARK    2  A    between atoms: C_2  and  C_3
REMARK    3  A    between atoms: C_3  and  C_4
REMARK    4  A    between atoms: C_4  and  N_5
REMARK    5  A    between atoms: C_4  and  C_18
REMARK    6  A    between atoms: C_6  and  C_8
REMARK    7  A    between atoms: C_21  and  C_22
REMARK    8  A    between atoms: C_22  and  C_23
REMARK    9  A    between atoms: C_22  and  N_24
REMARK   10  A    between atoms: N_24  and  C_25
REMARK   11  A    between atoms: C_25  and  C_27
REMARK                            x       y       z     vdW  Elec       q    Type
REMARK                         _______ _______ _______ _____ _____    ______ ____
ROOT
ATOM      1  C   UNL     1      48.590   8.545  14.114  0.00  0.00    +0.000 C 
ENDROOT
BRANCH   1   2
ATOM      2  C   UNL     1      49.030   8.487  15.570  0.00  0.00    +0.000 A 
ATOM      3  C   UNL     1      48.227   9.055  16.569  0.00  0.00    +0.000 A 
ATOM      4  C   UNL     1      48.533   8.886  17.927  0.00  0.00    +0.000 A 
ATOM      5  C   UNL     1      49.660   8.150  18.314  0.00  0.00    +0.000 A 
ATOM      6  C   UNL     1      50.490   7.627  17.313  0.00  0.00    +0.000 A 
ATOM      7  C   UNL     1      50.199   7.822  15.965  0.00  0.00    +0.000 A 
BRANCH   5   8
ATOM      8  C   UNL     1      49.976   7.918  19.783  0.00  0.00    +0.000 C 
ATOM      9  C   UNL     1      51.430   8.302  20.085  0.00  0.00    +0.000 C 
BRANCH   8  10
ATOM     10  N   UNL     1      49.731   6.514  20.133  0.00  0.00    +0.000 N 
ATOM     11  H   UNL     1      50.518   6.013  20.525  0.00  0.00    +0.000 HD
BRANCH  10  12
ATOM     12  C   UNL     1      48.537   5.832  20.074  0.00  0.00    +0.000 C 
ATOM     13  S   UNL     1      47.256   6.000  21.139  0.00  0.00    +0.000 S 
BRANCH  12  14
ATOM     14  C   UNL     1      48.414   4.882  18.983  0.00  0.00    +0.000 A 
ATOM     15  C   UNL     1      47.694   4.986  17.798  0.00  0.00    +0.000 A 
ATOM     16  C   UNL     1      47.958   3.842  17.006  0.00  0.00    +0.000 A 
ATOM     17  C   UNL     1      48.803   3.036  17.729  0.00  0.00    +0.000 A 
ATOM     18  N   UNL     1      49.058   3.657  18.921  0.00  0.00    +0.000 N 
ATOM     19  H   UNL     1      49.660   3.302  19.654  0.00  0.00    +0.000 HD
ENDBRANCH  12  14
ENDBRANCH  10  12
ENDBRANCH   8  10
ENDBRANCH   5   8
ENDBRANCH   1   2
BRANCH   1  20
ATOM     20  N   UNL     1      47.508   7.598  13.874  0.00  0.00    +0.000 N 
ATOM     21  C   UNL     1      47.728   6.424  13.192  0.00  0.00    +0.000 C 
ATOM     22  O   UNL     1      48.855   6.068  12.858  0.00  0.00    +0.000 OA
ATOM     23  H   UNL     1      46.561   7.948  13.967  0.00  0.00    +0.000 HD
BRANCH  21  24
ATOM     24  C   UNL     1      46.559   5.580  12.909  0.00  0.00    +0.000 A 
ATOM     25  C   UNL     1      46.618   4.221  13.192  0.00  0.00    +0.000 A 
ATOM     26  S   UNL     1      45.193   3.375  12.795  0.00  0.00    +0.000 S 
ATOM     27  C   UNL     1      44.463   4.786  12.187  0.00  0.00    +0.000 A 
ATOM     28  N   UNL     1      43.220   4.744  11.636  0.00  0.00    +0.000 NA
ATOM     29  C   UNL     1      42.802   5.876  11.179  0.00  0.00    +0.000 A 
ATOM     30  N   UNL     1      43.510   7.050  11.234  0.00  0.00    +0.000 N 
ATOM     31  C   UNL     1      44.752   7.149  11.821  0.00  0.00    +0.000 A 
ATOM     32  O   UNL     1      45.331   8.226  11.919  0.00  0.00    +0.000 OA
ATOM     33  C   UNL     1      45.281   5.894  12.319  0.00  0.00    +0.000 A 
ATOM     34  H   UNL     1      43.114   7.905  10.874  0.00  0.00    +0.000 HD
ENDBRANCH  21  24
ENDBRANCH   1  20
BRANCH   1  35
ATOM     35  C   UNL     1      48.167   9.954  13.628  0.00  0.00    +0.000 C 
BRANCH  35  37
ATOM     36  C   UNL     1      49.570   9.554  11.571  0.00  0.00    +0.000 C 
ATOM     37  C   UNL     1      49.144  10.572  12.616  0.00  0.00    +0.000 C 
ENDBRANCH  35  37
ENDBRANCH   1  35
TORSDOF 9
ENDMDL
MODEL 9
REMARK VINA RESULT:    -6.283      2.604      4.311
REMARK INTER + INTRA:         -10.632
REMARK INTER:                  -9.438
REMARK INTRA:                  -1.194
REMARK UNBOUND:                -1.044
REMARK  Name = 
REMARK  11 active torsions:
REMARK  status: ('A' for Active; 'I' for Inactive)
REMARK    1  A    between atoms: C_1  and  C_2
REMARK    2  A    between atoms: C_2  and  C_3
REMARK    3  A    between atoms: C_3  and  C_4
REMARK    4  A    between atoms: C_4  and  N_5
REMARK    5  A    between atoms: C_4  and  C_18
REMARK    6  A    between atoms: C_6  and  C_8
REMARK    7  A    between atoms: C_21  and  C_22
REMARK    8  A    between atoms: C_22  and  C_23
REMARK    9  A    between atoms: C_22  and  N_24
REMARK   10  A    between atoms: N_24  and  C_25
REMARK   11  A    between atoms: C_25  and  C_27
REMARK                            x       y       z     vdW  Elec       q    Type
REMARK                         _______ _______ _______ _____ _____    ______ ____
ROOT
ATOM      1  C   UNL     1      47.938   4.278  15.438  0.00  0.00    +0.000 C 
ENDROOT
BRANCH   1   2
ATOM      2  C   UNL     1      46.893   4.335  14.333  0.00  0.00    +0.000 A 
ATOM      3  C   UNL     1      46.632   3.198  13.556  0.00  0.00    +0.000 A 
ATOM      4  C   UNL     1      45.575   3.178  12.635  0.00  0.00    +0.000 A 
ATOM      5  C   UNL     1      44.760   4.305  12.465  0.00  0.00    +0.000 A 
ATOM      6  C   UNL     1      45.056   5.457  13.205  0.00  0.00    +0.000 A 
ATOM      7  C   UNL     1      46.125   5.483  14.098  0.00  0.00    +0.000 A 
BRANCH   5   8
ATOM      8  C   UNL     1      43.581   4.280  11.505  0.00  0.00    +0.000 C 
ATOM      9  C   UNL     1      43.043   2.852  11.356  0.00  0.00    +0.000 C 
BRANCH   8  10
ATOM     10  N   UNL     1      43.986   4.817  10.200  0.00  0.00    +0.000 N 
ATOM     11  H   UNL     1      43.246   5.221   9.641  0.00  0.00    +0.000 HD
BRANCH  10  12
ATOM     12  C   UNL     1      45.262   4.914   9.694  0.00  0.00    +0.000 C 
ATOM     13  S   UNL     1      46.333   6.172   9.965  0.00  0.00    +0.000 S 
BRANCH  12  14
ATOM     14  C   UNL     1      45.681   3.814   8.843  0.00  0.00    +0.000 A 
ATOM     15  C   UNL     1      46.295   3.847   7.597  0.00  0.00    +0.000 A 
ATOM     16  C   UNL     1      46.593   2.519   7.204  0.00  0.00    +0.000 A 
ATOM     17  C   UNL     1      46.125   1.690   8.194  0.00  0.00    +0.000 A 
ATOM     18  N   UNL     1      45.562   2.473   9.165  0.00  0.00    +0.000 N 
ATOM     19  H   UNL     1      45.143   2.136  10.024  0.00  0.00    +0.000 HD
ENDBRANCH  12  14
ENDBRANCH  10  12
ENDBRANCH   8  10
ENDBRANCH   5   8
ENDBRANCH   1   2
BRANCH   1  20
ATOM     20  N   UNL     1      47.727   5.361  16.391  0.00  0.00    +0.000 N 
ATOM     21  C   UNL     1      48.724   6.264  16.677  0.00  0.00    +0.000 C 
ATOM     22  O   UNL     1      49.789   6.270  16.064  0.00  0.00    +0.000 OA
ATOM     23  H   UNL     1      46.946   5.264  17.033  0.00  0.00    +0.000 HD
BRANCH  21  24
ATOM     24  C   UNL     1      48.454   7.259  17.723  0.00  0.00    +0.000 A 
ATOM     25  C   UNL     1      48.326   6.841  19.041  0.00  0.00    +0.000 A 
ATOM     26  S   UNL     1      48.000   8.108  20.134  0.00  0.00    +0.000 S 
ATOM     27  C   UNL     1      47.972   9.254  18.877  0.00  0.00    +0.000 A 
ATOM     28  N   UNL     1      47.692  10.561  19.134  0.00  0.00    +0.000 NA
ATOM     29  C   UNL     1      47.665  11.314  18.086  0.00  0.00    +0.000 A 
ATOM     30  N   UNL     1      47.906  10.882  16.806  0.00  0.00    +0.000 N 
ATOM     31  C   UNL     1      48.236   9.580  16.505  0.00  0.00    +0.000 A 
ATOM     32  O   UNL     1      48.516   9.237  15.361  0.00  0.00    +0.000 OA
ATOM     33  C   UNL     1      48.245   8.684  17.646  0.00  0.00    +0.000 A 
ATOM     34  H   UNL     1      47.888  11.530  16.034  0.00  0.00    +0.000 HD
ENDBRANCH  21  24
ENDBRANCH   1  20
BRANCH   1  35
ATOM     35  C   UNL     1      48.001   2.926  16.192  0.00  0.00    +0.000 C 
BRANCH  35  37
ATOM     36  C   UNL     1      50.246   2.835  17.337  0.00  0.00    +0.000 C 
ATOM     37  C   UNL     1      48.749   3.006  17.532  0.00  0.00    +0.000 C 
ENDBRANCH  35  37
ENDBRANCH   1  35
TORSDOF 9
ENDMDL
