MODEL 1
REMARK VINA RESULT:    -7.629      0.000      0.000
REMARK INTER + INTRA:         -10.060
REMARK INTER:                  -9.636
REMARK INTRA:                  -0.424
REMARK UNBOUND:                -0.424
REMARK  Name = 
REMARK  5 active torsions:
REMARK  status: ('A' for Active; 'I' for Inactive)
REMARK    1  A    between atoms: N_1  and  C_2
REMARK    2  A    between atoms: C_2  and  C_3
REMARK    3  A    between atoms: C_3  and  C_4
REMARK    4  A    between atoms: C_8  and  C_9
REMARK    5  A    between atoms: C_9  and  N_10
REMARK                            x       y       z     vdW  Elec       q    Type
REMARK                         _______ _______ _______ _____ _____    ______ ____
ROOT
ATOM      1  C   UNL     1      46.127   3.131   7.474  0.00  0.00    +0.000 A 
ATOM      2  C   UNL     1      46.048   1.781   7.799  0.00  0.00    +0.000 A 
ATOM      3  N   UNL     1      45.325   1.292   8.829  0.00  0.00    +0.000 NA
ATOM      4  C   UNL     1      44.629   2.186   9.565  0.00  0.00    +0.000 A 
ATOM      5  C   UNL     1      44.642   3.559   9.344  0.00  0.00    +0.000 A 
ATOM      6  C   UNL     1      45.422   4.030   8.282  0.00  0.00    +0.000 A 
ENDROOT
BRANCH   1   7
ATOM      7  C   UNL     1      46.921   3.598   6.285  0.00  0.00    +0.000 C 
BRANCH   7   8
ATOM      8  C   UNL     1      47.291   2.459   5.329  0.00  0.00    +0.000 C 
BRANCH   8   9
ATOM      9  N   UNL     1      48.591   1.892   5.683  0.00  0.00    +0.000 NA
ATOM     10  H   UNL     1      49.322   2.580   5.506  0.00  0.00    +0.000 HD
ATOM     11  H   UNL     1      48.799   1.096   5.081  0.00  0.00    +0.000 HD
ENDBRANCH   8   9
ENDBRANCH   7   8
ENDBRANCH   1   7
BRANCH   5  12
ATOM     12  C   UNL     1      43.830   4.483  10.204  0.00  0.00    +0.000 C 
BRANCH  12  13
ATOM     13  N   UNL     1      44.411   4.664  11.524  0.00  0.00    +0.000 N 
ATOM     14  C   UNL     1      44.048   3.959  12.642  0.00  0.00    +0.000 A 
ATOM     15  N   UNL     1      44.854   4.201  13.652  0.00  0.00    +0.000 NA
ATOM     16  C   UNL     1      45.773   5.098  13.173  0.00  0.00    +0.000 A 
ATOM     17  C   UNL     1      46.882   5.667  13.818  0.00  0.00    +0.000 A 
ATOM     18  C   UNL     1      47.694   6.558  13.106  0.00  0.00    +0.000 A 
ATOM     19  C   UNL     1      47.400   6.888  11.783  0.00  0.00    +0.000 A 
ATOM     20  C   UNL     1      46.298   6.332  11.121  0.00  0.00    +0.000 A 
ATOM     21  C   UNL     1      45.510   5.427  11.843  0.00  0.00    +0.000 A 
ENDBRANCH  12  13
ENDBRANCH   5  12
TORSDOF 5
ENDMDL
MODEL 2
REMARK VINA RESULT:    -7.323      1.943      6.235
REMARK INTER + INTRA:          -9.673
REMARK INTER:                  -9.319
REMARK INTRA:                  -0.354
REMARK UNBOUND:                -0.424
REMARK  Name = 
REMARK  5 active torsions:
REMARK  status: ('A' for Active; 'I' for Inactive)
REMARK    1  A    between atoms: N_1  and  C_2
REMARK    2  A    between atoms: C_2  and  C_3
REMARK    3  A    between atoms: C_3  and  C_4
REMARK    4  A    between atoms: C_8  and  C_9
REMARK    5  A    between atoms: C_9  and  N_10
REMARK                            x       y       z     vdW  Elec       q    Type
REMARK                         _______ _______ _______ _____ _____    ______ ____
ROOT
ATOM      1  C   UNL     1      45.026   4.693  13.131  0.00  0.00    +0.000 A 
ATOM      2  C   UNL     1      43.849   5.424  13.249  0.00  0.00    +0.000 A 
ATOM      3  N   UNL     1      42.801   5.312  12.406  0.00  0.00    +0.000 NA
ATOM      4  C   UNL     1      42.918   4.415  11.401  0.00  0.00    +0.000 A 
ATOM      5  C   UNL     1      44.050   3.639  11.176  0.00  0.00    +0.000 A 
ATOM      6  C   UNL     1      45.124   3.801  12.057  0.00  0.00    +0.000 A 
ENDROOT
BRANCH   1   7
ATOM      7  C   UNL     1      46.136   4.841  14.134  0.00  0.00    +0.000 C 
BRANCH   7   8
ATOM      8  C   UNL     1      47.213   3.759  13.999  0.00  0.00    +0.000 C 
BRANCH   8   9
ATOM      9  N   UNL     1      47.620   3.270  15.314  0.00  0.00    +0.000 NA
ATOM     10  H   UNL     1      48.340   2.556  15.204  0.00  0.00    +0.000 HD
ATOM     11  H   UNL     1      46.834   2.813  15.775  0.00  0.00    +0.000 HD
ENDBRANCH   8   9
ENDBRANCH   7   8
ENDBRANCH   1   7
BRANCH   5  12
ATOM     12  C   UNL     1      44.093   2.658  10.041  0.00  0.00    +0.000 C 
BRANCH  12  13
ATOM     13  N   UNL     1      44.950   3.104   8.954  0.00  0.00    +0.000 N 
ATOM     14  C   UNL     1      45.145   4.413   8.600  0.00  0.00    +0.000 A 
ATOM     15  N   UNL     1      46.101   4.537   7.705  0.00  0.00    +0.000 NA
ATOM     16  C   UNL     1      46.540   3.261   7.469  0.00  0.00    +0.000 A 
ATOM     17  C   UNL     1      47.572   2.816   6.628  0.00  0.00    +0.000 A 
ATOM     18  C   UNL     1      47.850   1.445   6.565  0.00  0.00    +0.000 A 
ATOM     19  C   UNL     1      47.105   0.533   7.314  0.00  0.00    +0.000 A 
ATOM     20  C   UNL     1      46.072   0.956   8.159  0.00  0.00    +0.000 A 
ATOM     21  C   UNL     1      45.823   2.333   8.223  0.00  0.00    +0.000 A 
ENDBRANCH  12  13
ENDBRANCH   5  12
TORSDOF 5
ENDMDL
MODEL 3
REMARK VINA RESULT:    -6.992      1.562      1.704
REMARK INTER + INTRA:          -9.255
REMARK INTER:                  -8.888
REMARK INTRA:                  -0.367
REMARK UNBOUND:                -0.424
REMARK  Name = 
REMARK  5 active torsions:
REMARK  status: ('A' for Active; 'I' for Inactive)
REMARK    1  A    between atoms: N_1  and  C_2
REMARK    2  A    between atoms: C_2  and  C_3
REMARK    3  A    between atoms: C_3  and  C_4
REMARK    4  A    between atoms: C_8  and  C_9
REMARK    5  A    between atoms: C_9  and  N_10
REMARK                            x       y       z     vdW  Elec       q    Type
REMARK                         _______ _______ _______ _____ _____    ______ ____
ROOT
ATOM      1  C   UNL     1      45.951   3.231   7.983  0.00  0.00    +0.000 A 
ATOM      2  C   UNL     1      45.555   1.942   8.327  0.00  0.00    +0.000 A 
ATOM      3  N   UNL     1      44.694   1.658   9.327  0.00  0.00    +0.000 NA
ATOM      4  C   UNL     1      44.185   2.706  10.012  0.00  0.00    +0.000 A 
ATOM      5  C   UNL     1      44.517   4.034   9.767  0.00  0.00    +0.000 A 
ATOM      6  C   UNL     1      45.431   4.287   8.738  0.00  0.00    +0.000 A 
ENDROOT
BRANCH   1   7
ATOM      7  C   UNL     1      46.883   3.473   6.827  0.00  0.00    +0.000 C 
BRANCH   7   8
ATOM      8  C   UNL     1      48.005   2.434   6.737  0.00  0.00    +0.000 C 
BRANCH   8   9
ATOM      9  N   UNL     1      48.371   2.190   5.343  0.00  0.00    +0.000 NA
ATOM     10  H   UNL     1      47.534   1.968   4.805  0.00  0.00    +0.000 HD
ATOM     11  H   UNL     1      48.975   1.371   5.279  0.00  0.00    +0.000 HD
ENDBRANCH   8   9
ENDBRANCH   7   8
ENDBRANCH   1   7
BRANCH   5  12
ATOM     12  C   UNL     1      43.896   5.141  10.569  0.00  0.00    +0.000 C 
BRANCH  12  13
ATOM     13  N   UNL     1      44.791   5.651  11.594  0.00  0.00    +0.000 N 
ATOM     14  C   UNL     1      45.605   4.876  12.378  0.00  0.00    +0.000 A 
ATOM     15  N   UNL     1      46.432   5.608  13.093  0.00  0.00    +0.000 NA
ATOM     16  C   UNL     1      46.143   6.906  12.761  0.00  0.00    +0.000 A 
ATOM     17  C   UNL     1      46.748   8.093  13.201  0.00  0.00    +0.000 A 
ATOM     18  C   UNL     1      46.282   9.315  12.701  0.00  0.00    +0.000 A 
ATOM     19  C   UNL     1      45.224   9.356  11.791  0.00  0.00    +0.000 A 
ATOM     20  C   UNL     1      44.607   8.182  11.340  0.00  0.00    +0.000 A 
ATOM     21  C   UNL     1      45.100   6.970  11.836  0.00  0.00    +0.000 A 
ENDBRANCH  12  13
ENDBRANCH   5  12
TORSDOF 5
ENDMDL
MODEL 4
REMARK VINA RESULT:    -6.972      1.492      5.873
REMARK INTER + INTRA:          -9.230
REMARK INTER:                  -8.678
REMARK INTRA:                  -0.552
REMARK UNBOUND:                -0.424
REMARK  Name = 
REMARK  5 active torsions:
REMARK  status: ('A' for Active; 'I' for Inactive)
REMARK    1  A    between atoms: N_1  and  C_2
REMARK    2  A    between atoms: C_2  and  C_3
REMARK    3  A    between atoms: C_3  and  C_4
REMARK    4  A    between atoms: C_8  and  C_9
REMARK    5  A    between atoms: C_9  and  N_10
REMARK                            x       y       z     vdW  Elec       q    Type
REMARK                         _______ _______ _______ _____ _____    ______ ____
ROOT
ATOM      1  C   UNL     1      45.925   6.403  11.838  0.00  0.00    +0.000 A 
ATOM      2  C   UNL     1      45.084   6.106  12.906  0.00  0.00    +0.000 A 
ATOM      3  N   UNL     1      43.987   5.326  12.810  0.00  0.00    +0.000 NA
ATOM      4  C   UNL     1      43.717   4.798  11.595  0.00  0.00    +0.000 A 
ATOM      5  C   UNL     1      44.476   5.035  10.455  0.00  0.00    +0.000 A 
ATOM      6  C   UNL     1      45.593   5.868  10.589  0.00  0.00    +0.000 A 
ENDROOT
BRANCH   1   7
ATOM      7  C   UNL     1      47.155   7.248  12.030  0.00  0.00    +0.000 C 
BRANCH   7   8
ATOM      8  C   UNL     1      47.850   6.993  13.372  0.00  0.00    +0.000 C 
BRANCH   8   9
ATOM      9  N   UNL     1      49.142   6.341  13.168  0.00  0.00    +0.000 NA
ATOM     10  H   UNL     1      49.410   5.843  14.015  0.00  0.00    +0.000 HD
ATOM     11  H   UNL     1      49.866   7.042  13.009  0.00  0.00    +0.000 HD
ENDBRANCH   8   9
ENDBRANCH   7   8
ENDBRANCH   1   7
BRANCH   5  12
ATOM     12  C   UNL     1      44.112   4.399   9.145  0.00  0.00    +0.000 C 
BRANCH  12  13
ATOM     13  N   UNL     1      44.871   3.187   8.887  0.00  0.00    +0.000 N 
ATOM     14  C   UNL     1      44.554   1.946   9.376  0.00  0.00    +0.000 A 
ATOM     15  N   UNL     1      45.304   1.007   8.843  0.00  0.00    +0.000 NA
ATOM     16  C   UNL     1      46.140   1.663   7.977  0.00  0.00    +0.000 A 
ATOM     17  C   UNL     1      47.120   1.141   7.119  0.00  0.00    +0.000 A 
ATOM     18  C   UNL     1      47.846   2.020   6.306  0.00  0.00    +0.000 A 
ATOM     19  C   UNL     1      47.610   3.395   6.356  0.00  0.00    +0.000 A 
ATOM     20  C   UNL     1      46.637   3.936   7.206  0.00  0.00    +0.000 A 
ATOM     21  C   UNL     1      45.908   3.038   7.996  0.00  0.00    +0.000 A 
ENDBRANCH  12  13
ENDBRANCH   5  12
TORSDOF 5
ENDMDL
MODEL 5
REMARK VINA RESULT:    -6.932      2.369      5.975
REMARK INTER + INTRA:          -9.179
REMARK INTER:                  -8.700
REMARK INTRA:                  -0.479
REMARK UNBOUND:                -0.424
REMARK  Name = 
REMARK  5 active torsions:
REMARK  status: ('A' for Active; 'I' for Inactive)
REMARK    1  A    between atoms: N_1  and  C_2
REMARK    2  A    between atoms: C_2  and  C_3
REMARK    3  A    between atoms: C_3  and  C_4
REMARK    4  A    between atoms: C_8  and  C_9
REMARK    5  A    between atoms: C_9  and  N_10
REMARK                            x       y       z     vdW  Elec       q    Type
REMARK                         _______ _______ _______ _____ _____    ______ ____
ROOT
ATOM      1  C   UNL     1      46.907   6.515  13.463  0.00  0.00    +0.000 A 
ATOM      2  C   UNL     1      47.119   7.877  13.277  0.00  0.00    +0.000 A 
ATOM      3  N   UNL     1      46.320   8.672  12.533  0.00  0.00    +0.000 NA
ATOM      4  C   UNL     1      45.245   8.090  11.957  0.00  0.00    +0.000 A 
ATOM      5  C   UNL     1      44.940   6.737  12.061  0.00  0.00    +0.000 A 
ATOM      6  C   UNL     1      45.805   5.942  12.821  0.00  0.00    +0.000 A 
ENDROOT
BRANCH   1   7
ATOM      7  C   UNL     1      47.818   5.701  14.341  0.00  0.00    +0.000 C 
BRANCH   7   8
ATOM      8  C   UNL     1      47.092   4.555  15.054  0.00  0.00    +0.000 C 
BRANCH   8   9
ATOM      9  N   UNL     1      47.514   3.264  14.514  0.00  0.00    +0.000 NA
ATOM     10  H   UNL     1      48.091   3.412  13.687  0.00  0.00    +0.000 HD
ATOM     11  H   UNL     1      46.700   2.734  14.202  0.00  0.00    +0.000 HD
ENDBRANCH   8   9
ENDBRANCH   7   8
ENDBRANCH   1   7
BRANCH   5  12
ATOM     12  C   UNL     1      43.718   6.172  11.396  0.00  0.00    +0.000 C 
BRANCH  12  13
ATOM     13  N   UNL     1      43.861   4.761  11.080  0.00  0.00    +0.000 N 
ATOM     14  C   UNL     1      43.173   3.748  11.695  0.00  0.00    +0.000 A 
ATOM     15  N   UNL     1      43.364   2.595  11.094  0.00  0.00    +0.000 NA
ATOM     16  C   UNL     1      44.210   2.869  10.051  0.00  0.00    +0.000 A 
ATOM     17  C   UNL     1      44.712   2.009   9.062  0.00  0.00    +0.000 A 
ATOM     18  C   UNL     1      45.559   2.531   8.077  0.00  0.00    +0.000 A 
ATOM     19  C   UNL     1      45.910   3.882   8.084  0.00  0.00    +0.000 A 
ATOM     20  C   UNL     1      45.420   4.757   9.062  0.00  0.00    +0.000 A 
ATOM     21  C   UNL     1      44.559   4.219  10.026  0.00  0.00    +0.000 A 
ENDBRANCH  12  13
ENDBRANCH   5  12
TORSDOF 5
ENDMDL
MODEL 6
REMARK VINA RESULT:    -6.889      1.927      6.038
REMARK INTER + INTRA:          -9.125
REMARK INTER:                  -8.733
REMARK INTRA:                  -0.392
REMARK UNBOUND:                -0.424
REMARK  Name = 
REMARK  5 active torsions:
REMARK  status: ('A' for Active; 'I' for Inactive)
REMARK    1  A    between atoms: N_1  and  C_2
REMARK    2  A    between atoms: C_2  and  C_3
REMARK    3  A    between atoms: C_3  and  C_4
REMARK    4  A    between atoms: C_8  and  C_9
REMARK    5  A    between atoms: C_9  and  N_10
REMARK                            x       y       z     vdW  Elec       q    Type
REMARK                         _______ _______ _______ _____ _____    ______ ____
ROOT
ATOM      1  C   UNL     1      46.442   5.681  12.981  0.00  0.00    +0.000 A 
ATOM      2  C   UNL     1      46.673   4.575  13.792  0.00  0.00    +0.000 A 
ATOM      3  N   UNL     1      46.207   3.335  13.531  0.00  0.00    +0.000 NA
ATOM      4  C   UNL     1      45.488   3.179  12.398  0.00  0.00    +0.000 A 
ATOM      5  C   UNL     1      45.181   4.212  11.519  0.00  0.00    +0.000 A 
ATOM      6  C   UNL     1      45.662   5.487  11.836  0.00  0.00    +0.000 A 
ENDROOT
BRANCH   1   7
ATOM      7  C   UNL     1      47.029   7.025  13.315  0.00  0.00    +0.000 C 
BRANCH   7   8
ATOM      8  C   UNL     1      48.245   7.376  12.451  0.00  0.00    +0.000 C 
BRANCH   8   9
ATOM      9  N   UNL     1      49.419   6.619  12.880  0.00  0.00    +0.000 NA
ATOM     10  H   UNL     1      49.978   6.367  12.067  0.00  0.00    +0.000 HD
ATOM     11  H   UNL     1      49.129   5.740  13.309  0.00  0.00    +0.000 HD
ENDBRANCH   8   9
ENDBRANCH   7   8
ENDBRANCH   1   7
BRANCH   5  12
ATOM     12  C   UNL     1      44.384   3.949  10.275  0.00  0.00    +0.000 C 
BRANCH  12  13
ATOM     13  N   UNL     1      45.217   3.886   9.085  0.00  0.00    +0.000 N 
ATOM     14  C   UNL     1      45.774   4.972   8.462  0.00  0.00    +0.000 A 
ATOM     15  N   UNL     1      46.620   4.613   7.522  0.00  0.00    +0.000 NA
ATOM     16  C   UNL     1      46.611   3.242   7.534  0.00  0.00    +0.000 A 
ATOM     17  C   UNL     1      47.356   2.340   6.761  0.00  0.00    +0.000 A 
ATOM     18  C   UNL     1      47.183   0.966   6.969  0.00  0.00    +0.000 A 
ATOM     19  C   UNL     1      46.274   0.499   7.919  0.00  0.00    +0.000 A 
ATOM     20  C   UNL     1      45.520   1.383   8.701  0.00  0.00    +0.000 A 
ATOM     21  C   UNL     1      45.723   2.753   8.492  0.00  0.00    +0.000 A 
ENDBRANCH  12  13
ENDBRANCH   5  12
TORSDOF 5
ENDMDL
MODEL 7
REMARK VINA RESULT:    -6.646      1.503      2.255
REMARK INTER + INTRA:          -8.818
REMARK INTER:                  -8.292
REMARK INTRA:                  -0.526
REMARK UNBOUND:                -0.424
REMARK  Name = 
REMARK  5 active torsions:
REMARK  status: ('A' for Active; 'I' for Inactive)
REMARK    1  A    between atoms: N_1  and  C_2
REMARK    2  A    between atoms: C_2  and  C_3
REMARK    3  A    between atoms: C_3  and  C_4
REMARK    4  A    between atoms: C_8  and  C_9
REMARK    5  A    between atoms: C_9  and  N_10
REMARK                            x       y       z     vdW  Elec       q    Type
REMARK                         _______ _______ _______ _____ _____    ______ ____
ROOT
ATOM      1  C   UNL     1      45.580   3.364   8.270  0.00  0.00    +0.000 A 
ATOM      2  C   UNL     1      44.928   2.211   8.695  0.00  0.00    +0.000 A 
ATOM      3  N   UNL     1      44.149   2.145   9.796  0.00  0.00    +0.000 NA
ATOM      4  C   UNL     1      43.993   3.285  10.504  0.00  0.00    +0.000 A 
ATOM      5  C   UNL     1      44.605   4.492  10.184  0.00  0.00    +0.000 A 
ATOM      6  C   UNL     1      45.424   4.515   9.049  0.00  0.00    +0.000 A 
ENDROOT
BRANCH   1   7
ATOM      7  C   UNL     1      46.399   3.372   7.009  0.00  0.00    +0.000 C 
BRANCH   7   8
ATOM      8  C   UNL     1      47.391   2.207   6.933  0.00  0.00    +0.000 C 
BRANCH   8   9
ATOM      9  N   UNL     1      48.644   2.635   6.315  0.00  0.00    +0.000 NA
ATOM     10  H   UNL     1      48.782   3.631   6.481  0.00  0.00    +0.000 HD
ATOM     11  H   UNL     1      48.590   2.520   5.303  0.00  0.00    +0.000 HD
ENDBRANCH   8   9
ENDBRANCH   7   8
ENDBRANCH   1   7
BRANCH   5  12
ATOM     12  C   UNL     1      44.370   5.717  11.020  0.00  0.00    +0.000 C 
BRANCH  12  13
ATOM     13  N   UNL     1      45.583   6.186  11.669  0.00  0.00    +0.000 N 
ATOM     14  C   UNL     1      46.231   7.355  11.364  0.00  0.00    +0.000 A 
ATOM     15  N   UNL     1      47.193   7.616  12.222  0.00  0.00    +0.000 NA
ATOM     16  C   UNL     1      47.169   6.577  13.116  0.00  0.00    +0.000 A 
ATOM     17  C   UNL     1      47.957   6.367  14.257  0.00  0.00    +0.000 A 
ATOM     18  C   UNL     1      47.733   5.223  15.033  0.00  0.00    +0.000 A 
ATOM     19  C   UNL     1      46.753   4.298  14.671  0.00  0.00    +0.000 A 
ATOM     20  C   UNL     1      45.956   4.489  13.535  0.00  0.00    +0.000 A 
ATOM     21  C   UNL     1      46.182   5.649  12.784  0.00  0.00    +0.000 A 
ENDBRANCH  12  13
ENDBRANCH   5  12
TORSDOF 5
ENDMDL
MODEL 8
REMARK VINA RESULT:    -6.465      2.313      5.996
REMARK INTER + INTRA:          -8.590
REMARK INTER:                  -8.042
REMARK INTRA:                  -0.548
REMARK UNBOUND:                -0.424
REMARK  Name = 
REMARK  5 active torsions:
REMARK  status: ('A' for Active; 'I' for Inactive)
REMARK    1  A    between atoms: N_1  and  C_2
REMARK    2  A    between atoms: C_2  and  C_3
REMARK    3  A    between atoms: C_3  and  C_4
REMARK    4  A    between atoms: C_8  and  C_9
REMARK    5  A    between atoms: C_9  and  N_10
REMARK                            x       y       z     vdW  Elec       q    Type
REMARK                         _______ _______ _______ _____ _____    ______ ____
ROOT
ATOM      1  C   UNL     1      47.810   7.589  12.428  0.00  0.00    +0.000 A 
ATOM      2  C   UNL     1      48.411   6.684  13.298  0.00  0.00    +0.000 A 
ATOM      3  N   UNL     1      47.793   5.596  13.803  0.00  0.00    +0.000 NA
ATOM      4  C   UNL     1      46.516   5.383  13.414  0.00  0.00    +0.000 A 
ATOM      5  C   UNL     1      45.809   6.225  12.562  0.00  0.00    +0.000 A 
ATOM      6  C   UNL     1      46.477   7.355  12.077  0.00  0.00    +0.000 A 
ENDROOT
BRANCH   1   7
ATOM      7  C   UNL     1      48.577   8.758  11.872  0.00  0.00    +0.000 C 
BRANCH   7   8
ATOM      8  C   UNL     1      47.784  10.068  11.920  0.00  0.00    +0.000 C 
BRANCH   8   9
ATOM      9  N   UNL     1      47.900  10.693  13.235  0.00  0.00    +0.000 NA
ATOM     10  H   UNL     1      46.996  11.074  13.513  0.00  0.00    +0.000 HD
ATOM     11  H   UNL     1      48.540  11.486  13.190  0.00  0.00    +0.000 HD
ENDBRANCH   8   9
ENDBRANCH   7   8
ENDBRANCH   1   7
BRANCH   5  12
ATOM     12  C   UNL     1      44.394   5.908  12.171  0.00  0.00    +0.000 C 
BRANCH  12  13
ATOM     13  N   UNL     1      44.271   4.603  11.544  0.00  0.00    +0.000 N 
ATOM     14  C   UNL     1      43.508   3.572  12.026  0.00  0.00    +0.000 A 
ATOM     15  N   UNL     1      43.440   2.576  11.171  0.00  0.00    +0.000 NA
ATOM     16  C   UNL     1      44.189   2.974  10.094  0.00  0.00    +0.000 A 
ATOM     17  C   UNL     1      44.426   2.311   8.881  0.00  0.00    +0.000 A 
ATOM     18  C   UNL     1      45.223   2.935   7.913  0.00  0.00    +0.000 A 
ATOM     19  C   UNL     1      45.784   4.190   8.154  0.00  0.00    +0.000 A 
ATOM     20  C   UNL     1      45.559   4.868   9.358  0.00  0.00    +0.000 A 
ATOM     21  C   UNL     1      44.743   4.236  10.305  0.00  0.00    +0.000 A 
ENDBRANCH  12  13
ENDBRANCH   5  12
TORSDOF 5
ENDMDL
MODEL 9
REMARK VINA RESULT:    -6.372      2.481      6.204
REMARK INTER + INTRA:          -8.473
REMARK INTER:                  -8.258
REMARK INTRA:                  -0.215
REMARK UNBOUND:                -0.424
REMARK  Name = 
REMARK  5 active torsions:
REMARK  status: ('A' for Active; 'I' for Inactive)
REMARK    1  A    between atoms: N_1  and  C_2
REMARK    2  A    between atoms: C_2  and  C_3
REMARK    3  A    between atoms: C_3  and  C_4
REMARK    4  A    between atoms: C_8  and  C_9
REMARK    5  A    between atoms: C_9  and  N_10
REMARK                            x       y       z     vdW  Elec       q    Type
REMARK                         _______ _______ _______ _____ _____    ______ ____
ROOT
ATOM      1  C   UNL     1      45.601   8.605  12.085  0.00  0.00    +0.000 A 
ATOM      2  C   UNL     1      46.413   7.910  12.975  0.00  0.00    +0.000 A 
ATOM      3  N   UNL     1      46.282   6.594  13.249  0.00  0.00    +0.000 NA
ATOM      4  C   UNL     1      45.304   5.929  12.595  0.00  0.00    +0.000 A 
ATOM      5  C   UNL     1      44.424   6.520  11.695  0.00  0.00    +0.000 A 
ATOM      6  C   UNL     1      44.577   7.890  11.455  0.00  0.00    +0.000 A 
ENDROOT
BRANCH   1   7
ATOM      7  C   UNL     1      45.834  10.063  11.798  0.00  0.00    +0.000 C 
BRANCH   7   8
ATOM      8  C   UNL     1      44.604  10.759  11.207  0.00  0.00    +0.000 C 
BRANCH   8   9
ATOM      9  N   UNL     1      43.518  10.804  12.183  0.00  0.00    +0.000 NA
ATOM     10  H   UNL     1      43.537   9.960  12.754  0.00  0.00    +0.000 HD
ATOM     11  H   UNL     1      42.618  10.802  11.704  0.00  0.00    +0.000 HD
ENDBRANCH   8   9
ENDBRANCH   7   8
ENDBRANCH   1   7
BRANCH   5  12
ATOM     12  C   UNL     1      43.372   5.704  11.003  0.00  0.00    +0.000 C 
BRANCH  12  13
ATOM     13  N   UNL     1      43.819   4.351  10.715  0.00  0.00    +0.000 N 
ATOM     14  C   UNL     1      43.324   3.221  11.311  0.00  0.00    +0.000 A 
ATOM     15  N   UNL     1      43.780   2.129  10.736  0.00  0.00    +0.000 NA
ATOM     16  C   UNL     1      44.603   2.568   9.732  0.00  0.00    +0.000 A 
ATOM     17  C   UNL     1      45.322   1.826   8.782  0.00  0.00    +0.000 A 
ATOM     18  C   UNL     1      46.092   2.509   7.832  0.00  0.00    +0.000 A 
ATOM     19  C   UNL     1      46.156   3.903   7.836  0.00  0.00    +0.000 A 
ATOM     20  C   UNL     1      45.446   4.661   8.775  0.00  0.00    +0.000 A 
ATOM     21  C   UNL     1      44.666   3.961   9.704  0.00  0.00    +0.000 A 
ENDBRANCH  12  13
ENDBRANCH   5  12
TORSDOF 5
ENDMDL
