MODEL 1
REMARK VINA RESULT:    -7.712      0.000      0.000
REMARK INTER + INTRA:          -9.889
REMARK INTER:                  -9.515
REMARK INTRA:                  -0.374
REMARK UNBOUND:                -0.374
REMARK  Name = 
REMARK  4 active torsions:
REMARK  status: ('A' for Active; 'I' for Inactive)
REMARK    1  A    between atoms: C_2  and  C_4
REMARK    2  A    between atoms: C_7  and  O_8
REMARK    3  A    between atoms: O_8  and  C_9
REMARK    4  A    between atoms: C_9  and  C_10
REMARK                            x       y       z     vdW  Elec       q    Type
REMARK                         _______ _______ _______ _____ _____    ______ ____
ROOT
ATOM      1  C   UNL     1      46.412   2.487   7.692  0.00  0.00    +0.000 A 
ATOM      2  C   UNL     1      45.513   1.835   8.538  0.00  0.00    +0.000 A 
ATOM      3  C   UNL     1      44.581   2.593   9.256  0.00  0.00    +0.000 A 
ATOM      4  C   UNL     1      44.571   3.967   9.076  0.00  0.00    +0.000 A 
ATOM      5  N   UNL     1      45.445   4.623   8.283  0.00  0.00    +0.000 NA
ATOM      6  C   UNL     1      46.358   3.872   7.622  0.00  0.00    +0.000 A 
ENDROOT
BRANCH   1   8
ATOM      7  N   UNL     1      48.496   2.511   6.449  0.00  0.00    +0.000 N 
ATOM      8  C   UNL     1      47.420   1.781   6.873  0.00  0.00    +0.000 C 
ATOM      9  O   UNL     1      47.324   0.588   6.629  0.00  0.00    +0.000 OA
ATOM     10  H   UNL     1      49.236   1.992   5.993  0.00  0.00    +0.000 HD
ATOM     11  H   UNL     1      48.734   3.411   6.844  0.00  0.00    +0.000 HD
ENDBRANCH   1   8
BRANCH   4  12
ATOM     12  O   UNL     1      43.624   4.692   9.772  0.00  0.00    +0.000 OA
BRANCH  12  13
ATOM     13  C   UNL     1      43.407   4.145  11.077  0.00  0.00    +0.000 C 
BRANCH  13  14
ATOM     14  C   UNL     1      44.505   4.581  12.009  0.00  0.00    +0.000 A 
ATOM     15  C   UNL     1      44.840   5.926  12.181  0.00  0.00    +0.000 A 
ATOM     16  C   UNL     1      45.907   6.272  13.007  0.00  0.00    +0.000 A 
ATOM     17  C   UNL     1      46.608   5.256  13.634  0.00  0.00    +0.000 A 
ATOM     18  N   UNL     1      46.315   3.946  13.493  0.00  0.00    +0.000 NA
ATOM     19  C   UNL     1      45.272   3.639  12.687  0.00  0.00    +0.000 A 
ENDBRANCH  13  14
ENDBRANCH  12  13
ENDBRANCH   4  12
TORSDOF 4
ENDMDL
MODEL 2
REMARK VINA RESULT:    -7.242      2.044      5.986
REMARK INTER + INTRA:          -9.310
REMARK INTER:                  -8.852
REMARK INTRA:                  -0.458
REMARK UNBOUND:                -0.374
REMARK  Name = 
REMARK  4 active torsions:
REMARK  status: ('A' for Active; 'I' for Inactive)
REMARK    1  A    between atoms: C_2  and  C_4
REMARK    2  A    between atoms: C_7  and  O_8
REMARK    3  A    between atoms: O_8  and  C_9
REMARK    4  A    between atoms: C_9  and  C_10
REMARK                            x       y       z     vdW  Elec       q    Type
REMARK                         _______ _______ _______ _____ _____    ______ ____
ROOT
ATOM      1  C   UNL     1      46.221   4.735  13.056  0.00  0.00    +0.000 A 
ATOM      2  C   UNL     1      46.138   5.728  12.078  0.00  0.00    +0.000 A 
ATOM      3  C   UNL     1      45.506   5.437  10.863  0.00  0.00    +0.000 A 
ATOM      4  C   UNL     1      44.960   4.174  10.691  0.00  0.00    +0.000 A 
ATOM      5  N   UNL     1      45.048   3.190  11.611  0.00  0.00    +0.000 NA
ATOM      6  C   UNL     1      45.692   3.485  12.766  0.00  0.00    +0.000 A 
ENDROOT
BRANCH   1   8
ATOM      7  N   UNL     1      47.531   6.112  14.564  0.00  0.00    +0.000 N 
ATOM      8  C   UNL     1      46.846   4.943  14.379  0.00  0.00    +0.000 C 
ATOM      9  O   UNL     1      46.714   4.133  15.284  0.00  0.00    +0.000 OA
ATOM     10  H   UNL     1      47.852   6.298  15.507  0.00  0.00    +0.000 HD
ATOM     11  H   UNL     1      47.440   6.902  13.940  0.00  0.00    +0.000 HD
ENDBRANCH   1   8
BRANCH   4  12
ATOM     12  O   UNL     1      44.316   3.918   9.496  0.00  0.00    +0.000 OA
BRANCH  12  13
ATOM     13  C   UNL     1      44.477   2.552   9.101  0.00  0.00    +0.000 C 
BRANCH  13  14
ATOM     14  C   UNL     1      45.629   2.424   8.142  0.00  0.00    +0.000 A 
ATOM     15  C   UNL     1      45.968   3.446   7.252  0.00  0.00    +0.000 A 
ATOM     16  C   UNL     1      47.004   3.253   6.341  0.00  0.00    +0.000 A 
ATOM     17  C   UNL     1      47.668   2.038   6.350  0.00  0.00    +0.000 A 
ATOM     18  N   UNL     1      47.372   1.028   7.195  0.00  0.00    +0.000 NA
ATOM     19  C   UNL     1      46.363   1.244   8.071  0.00  0.00    +0.000 A 
ENDBRANCH  13  14
ENDBRANCH  12  13
ENDBRANCH   4  12
TORSDOF 4
ENDMDL
MODEL 3
REMARK VINA RESULT:    -7.056      1.526      2.130
REMARK INTER + INTRA:          -9.080
REMARK INTER:                  -8.635
REMARK INTRA:                  -0.445
REMARK UNBOUND:                -0.374
REMARK  Name = 
REMARK  4 active torsions:
REMARK  status: ('A' for Active; 'I' for Inactive)
REMARK    1  A    between atoms: C_2  and  C_4
REMARK    2  A    between atoms: C_7  and  O_8
REMARK    3  A    between atoms: O_8  and  C_9
REMARK    4  A    between atoms: C_9  and  C_10
REMARK                            x       y       z     vdW  Elec       q    Type
REMARK                         _______ _______ _______ _____ _____    ______ ____
ROOT
ATOM      1  C   UNL     1      46.509   2.486   7.711  0.00  0.00    +0.000 A 
ATOM      2  C   UNL     1      46.401   3.877   7.673  0.00  0.00    +0.000 A 
ATOM      3  C   UNL     1      45.517   4.516   8.551  0.00  0.00    +0.000 A 
ATOM      4  C   UNL     1      44.801   3.737   9.447  0.00  0.00    +0.000 A 
ATOM      5  N   UNL     1      44.869   2.389   9.486  0.00  0.00    +0.000 NA
ATOM      6  C   UNL     1      45.708   1.791   8.606  0.00  0.00    +0.000 A 
ENDROOT
BRANCH   1   8
ATOM      7  N   UNL     1      48.465   2.400   6.278  0.00  0.00    +0.000 N 
ATOM      8  C   UNL     1      47.426   1.716   6.844  0.00  0.00    +0.000 C 
ATOM      9  O   UNL     1      47.294   0.512   6.683  0.00  0.00    +0.000 OA
ATOM     10  H   UNL     1      49.153   1.842   5.786  0.00  0.00    +0.000 HD
ATOM     11  H   UNL     1      48.751   3.317   6.593  0.00  0.00    +0.000 HD
ENDBRANCH   1   8
BRANCH   4  12
ATOM     12  O   UNL     1      43.957   4.390  10.323  0.00  0.00    +0.000 OA
BRANCH  12  13
ATOM     13  C   UNL     1      44.492   4.400  11.650  0.00  0.00    +0.000 C 
BRANCH  13  14
ATOM     14  C   UNL     1      45.072   5.753  11.963  0.00  0.00    +0.000 A 
ATOM     15  C   UNL     1      46.203   5.906  12.769  0.00  0.00    +0.000 A 
ATOM     16  C   UNL     1      46.662   7.184  13.080  0.00  0.00    +0.000 A 
ATOM     17  C   UNL     1      45.969   8.271  12.575  0.00  0.00    +0.000 A 
ATOM     18  N   UNL     1      44.874   8.164  11.793  0.00  0.00    +0.000 NA
ATOM     19  C   UNL     1      44.452   6.911  11.504  0.00  0.00    +0.000 A 
ENDBRANCH  13  14
ENDBRANCH  12  13
ENDBRANCH   4  12
TORSDOF 4
ENDMDL
MODEL 4
REMARK VINA RESULT:    -6.328      2.260      6.180
REMARK INTER + INTRA:          -8.181
REMARK INTER:                  -7.817
REMARK INTRA:                  -0.364
REMARK UNBOUND:                -0.374
REMARK  Name = 
REMARK  4 active torsions:
REMARK  status: ('A' for Active; 'I' for Inactive)
REMARK    1  A    between atoms: C_2  and  C_4
REMARK    2  A    between atoms: C_7  and  O_8
REMARK    3  A    between atoms: O_8  and  C_9
REMARK    4  A    between atoms: C_9  and  C_10
REMARK                            x       y       z     vdW  Elec       q    Type
REMARK                         _______ _______ _______ _____ _____    ______ ____
ROOT
ATOM      1  C   UNL     1      44.969   7.315  11.869  0.00  0.00    +0.000 A 
ATOM      2  C   UNL     1      43.802   6.730  11.376  0.00  0.00    +0.000 A 
ATOM      3  C   UNL     1      43.784   5.354  11.123  0.00  0.00    +0.000 A 
ATOM      4  C   UNL     1      44.925   4.618  11.401  0.00  0.00    +0.000 A 
ATOM      5  N   UNL     1      46.074   5.164  11.855  0.00  0.00    +0.000 NA
ATOM      6  C   UNL     1      46.077   6.503  12.062  0.00  0.00    +0.000 A 
ENDROOT
BRANCH   1   8
ATOM      7  N   UNL     1      45.892   9.089  13.243  0.00  0.00    +0.000 N 
ATOM      8  C   UNL     1      45.088   8.753  12.189  0.00  0.00    +0.000 C 
ATOM      9  O   UNL     1      44.536   9.608  11.512  0.00  0.00    +0.000 OA
ATOM     10  H   UNL     1      46.062  10.079  13.379  0.00  0.00    +0.000 HD
ATOM     11  H   UNL     1      46.556   8.444  13.650  0.00  0.00    +0.000 HD
ENDBRANCH   1   8
BRANCH   4  12
ATOM     12  O   UNL     1      44.876   3.257  11.172  0.00  0.00    +0.000 OA
BRANCH  12  13
ATOM     13  C   UNL     1      44.213   2.961   9.939  0.00  0.00    +0.000 C 
BRANCH  13  14
ATOM     14  C   UNL     1      45.219   2.853   8.825  0.00  0.00    +0.000 A 
ATOM     15  C   UNL     1      45.893   1.660   8.549  0.00  0.00    +0.000 A 
ATOM     16  C   UNL     1      46.861   1.629   7.549  0.00  0.00    +0.000 A 
ATOM     17  C   UNL     1      47.126   2.798   6.856  0.00  0.00    +0.000 A 
ATOM     18  N   UNL     1      46.497   3.968   7.091  0.00  0.00    +0.000 NA
ATOM     19  C   UNL     1      45.558   3.969   8.067  0.00  0.00    +0.000 A 
ENDBRANCH  13  14
ENDBRANCH  12  13
ENDBRANCH   4  12
TORSDOF 4
ENDMDL
MODEL 5
REMARK VINA RESULT:    -5.532      1.539      2.030
REMARK INTER + INTRA:          -7.200
REMARK INTER:                  -6.862
REMARK INTRA:                  -0.338
REMARK UNBOUND:                -0.374
REMARK  Name = 
REMARK  4 active torsions:
REMARK  status: ('A' for Active; 'I' for Inactive)
REMARK    1  A    between atoms: C_2  and  C_4
REMARK    2  A    between atoms: C_7  and  O_8
REMARK    3  A    between atoms: O_8  and  C_9
REMARK    4  A    between atoms: C_9  and  C_10
REMARK                            x       y       z     vdW  Elec       q    Type
REMARK                         _______ _______ _______ _____ _____    ______ ____
ROOT
ATOM      1  C   UNL     1      46.733   2.376   7.439  0.00  0.00    +0.000 A 
ATOM      2  C   UNL     1      45.725   2.227   8.393  0.00  0.00    +0.000 A 
ATOM      3  C   UNL     1      45.191   3.367   9.004  0.00  0.00    +0.000 A 
ATOM      4  C   UNL     1      45.668   4.608   8.613  0.00  0.00    +0.000 A 
ATOM      5  N   UNL     1      46.658   4.778   7.711  0.00  0.00    +0.000 NA
ATOM      6  C   UNL     1      47.182   3.659   7.157  0.00  0.00    +0.000 A 
ENDROOT
BRANCH   1   8
ATOM      7  N   UNL     1      48.376   1.535   5.865  0.00  0.00    +0.000 N 
ATOM      8  C   UNL     1      47.350   1.242   6.719  0.00  0.00    +0.000 C 
ATOM      9  O   UNL     1      46.995   0.090   6.917  0.00  0.00    +0.000 OA
ATOM     10  H   UNL     1      48.869   0.743   5.470  0.00  0.00    +0.000 HD
ATOM     11  H   UNL     1      48.859   2.423   5.875  0.00  0.00    +0.000 HD
ENDBRANCH   1   8
BRANCH   4  12
ATOM     12  O   UNL     1      45.105   5.721   9.208  0.00  0.00    +0.000 OA
BRANCH  12  13
ATOM     13  C   UNL     1      45.698   5.984  10.483  0.00  0.00    +0.000 C 
BRANCH  13  14
ATOM     14  C   UNL     1      44.824   5.440  11.581  0.00  0.00    +0.000 A 
ATOM     15  C   UNL     1      45.285   4.482  12.488  0.00  0.00    +0.000 A 
ATOM     16  C   UNL     1      44.417   3.963  13.445  0.00  0.00    +0.000 A 
ATOM     17  C   UNL     1      43.110   4.421  13.463  0.00  0.00    +0.000 A 
ATOM     18  N   UNL     1      42.628   5.345  12.606  0.00  0.00    +0.000 NA
ATOM     19  C   UNL     1      43.494   5.833  11.687  0.00  0.00    +0.000 A 
ENDBRANCH  13  14
ENDBRANCH  12  13
ENDBRANCH   4  12
TORSDOF 4
ENDMDL
MODEL 6
REMARK VINA RESULT:    -5.509      4.644      8.315
REMARK INTER + INTRA:          -7.171
REMARK INTER:                  -6.841
REMARK INTRA:                  -0.330
REMARK UNBOUND:                -0.374
REMARK  Name = 
REMARK  4 active torsions:
REMARK  status: ('A' for Active; 'I' for Inactive)
REMARK    1  A    between atoms: C_2  and  C_4
REMARK    2  A    between atoms: C_7  and  O_8
REMARK    3  A    between atoms: O_8  and  C_9
REMARK    4  A    between atoms: C_9  and  C_10
REMARK                            x       y       z     vdW  Elec       q    Type
REMARK                         _______ _______ _______ _____ _____    ______ ____
ROOT
ATOM      1  C   UNL     1      48.415   4.610  18.126  0.00  0.00    +0.000 A 
ATOM      2  C   UNL     1      48.542   5.527  17.081  0.00  0.00    +0.000 A 
ATOM      3  C   UNL     1      48.009   5.208  15.827  0.00  0.00    +0.000 A 
ATOM      4  C   UNL     1      47.348   3.999  15.680  0.00  0.00    +0.000 A 
ATOM      5  N   UNL     1      47.234   3.085  16.667  0.00  0.00    +0.000 NA
ATOM      6  C   UNL     1      47.785   3.402  17.863  0.00  0.00    +0.000 A 
ENDROOT
BRANCH   1   8
ATOM      7  N   UNL     1      48.658   3.899  20.433  0.00  0.00    +0.000 N 
ATOM      8  C   UNL     1      48.922   4.855  19.493  0.00  0.00    +0.000 C 
ATOM      9  O   UNL     1      49.590   5.843  19.759  0.00  0.00    +0.000 OA
ATOM     10  H   UNL     1      49.110   4.018  21.332  0.00  0.00    +0.000 HD
ATOM     11  H   UNL     1      48.344   2.968  20.191  0.00  0.00    +0.000 HD
ENDBRANCH   1   8
BRANCH   4  12
ATOM     12  O   UNL     1      46.804   3.718  14.441  0.00  0.00    +0.000 OA
BRANCH  12  13
ATOM     13  C   UNL     1      46.478   4.918  13.733  0.00  0.00    +0.000 C 
BRANCH  13  14
ATOM     14  C   UNL     1      45.235   4.709  12.910  0.00  0.00    +0.000 A 
ATOM     15  C   UNL     1      44.136   5.567  12.998  0.00  0.00    +0.000 A 
ATOM     16  C   UNL     1      42.985   5.294  12.262  0.00  0.00    +0.000 A 
ATOM     17  C   UNL     1      42.972   4.165  11.461  0.00  0.00    +0.000 A 
ATOM     18  N   UNL     1      44.013   3.313  11.348  0.00  0.00    +0.000 NA
ATOM     19  C   UNL     1      45.118   3.605  12.072  0.00  0.00    +0.000 A 
ENDBRANCH  13  14
ENDBRANCH  12  13
ENDBRANCH   4  12
TORSDOF 4
ENDMDL
MODEL 7
REMARK VINA RESULT:    -5.397      4.734      8.313
REMARK INTER + INTRA:          -7.033
REMARK INTER:                  -6.750
REMARK INTRA:                  -0.283
REMARK UNBOUND:                -0.374
REMARK  Name = 
REMARK  4 active torsions:
REMARK  status: ('A' for Active; 'I' for Inactive)
REMARK    1  A    between atoms: C_2  and  C_4
REMARK    2  A    between atoms: C_7  and  O_8
REMARK    3  A    between atoms: O_8  and  C_9
REMARK    4  A    between atoms: C_9  and  C_10
REMARK                            x       y       z     vdW  Elec       q    Type
REMARK                         _______ _______ _______ _____ _____    ______ ____
ROOT
ATOM      1  C   UNL     1      48.813   4.868  18.050  0.00  0.00    +0.000 A 
ATOM      2  C   UNL     1      47.920   3.799  18.140  0.00  0.00    +0.000 A 
ATOM      3  C   UNL     1      47.201   3.415  17.003  0.00  0.00    +0.000 A 
ATOM      4  C   UNL     1      47.427   4.098  15.818  0.00  0.00    +0.000 A 
ATOM      5  N   UNL     1      48.267   5.151  15.711  0.00  0.00    +0.000 NA
ATOM      6  C   UNL     1      48.928   5.524  16.833  0.00  0.00    +0.000 A 
ENDROOT
BRANCH   1   8
ATOM      7  N   UNL     1      50.202   4.385  19.980  0.00  0.00    +0.000 N 
ATOM      8  C   UNL     1      49.637   5.341  19.183  0.00  0.00    +0.000 C 
ATOM      9  O   UNL     1      49.846   6.530  19.370  0.00  0.00    +0.000 OA
ATOM     10  H   UNL     1      50.859   4.715  20.677  0.00  0.00    +0.000 HD
ATOM     11  H   UNL     1      50.266   3.414  19.706  0.00  0.00    +0.000 HD
ENDBRANCH   1   8
BRANCH   4  12
ATOM     12  O   UNL     1      46.729   3.683  14.701  0.00  0.00    +0.000 OA
BRANCH  12  13
ATOM     13  C   UNL     1      46.512   4.766  13.791  0.00  0.00    +0.000 C 
BRANCH  13  14
ATOM     14  C   UNL     1      45.263   4.524  12.988  0.00  0.00    +0.000 A 
ATOM     15  C   UNL     1      45.111   3.397  12.176  0.00  0.00    +0.000 A 
ATOM     16  C   UNL     1      43.961   3.252  11.404  0.00  0.00    +0.000 A 
ATOM     17  C   UNL     1      42.997   4.244  11.469  0.00  0.00    +0.000 A 
ATOM     18  N   UNL     1      43.106   5.346  12.242  0.00  0.00    +0.000 NA
ATOM     19  C   UNL     1      44.233   5.459  12.983  0.00  0.00    +0.000 A 
ENDBRANCH  13  14
ENDBRANCH  12  13
ENDBRANCH   4  12
TORSDOF 4
ENDMDL
MODEL 8
REMARK VINA RESULT:    -5.191      3.324      4.789
REMARK INTER + INTRA:          -6.778
REMARK INTER:                  -6.300
REMARK INTRA:                  -0.478
REMARK UNBOUND:                -0.374
REMARK  Name = 
REMARK  4 active torsions:
REMARK  status: ('A' for Active; 'I' for Inactive)
REMARK    1  A    between atoms: C_2  and  C_4
REMARK    2  A    between atoms: C_7  and  O_8
REMARK    3  A    between atoms: O_8  and  C_9
REMARK    4  A    between atoms: C_9  and  C_10
REMARK                            x       y       z     vdW  Elec       q    Type
REMARK                         _______ _______ _______ _____ _____    ______ ____
ROOT
ATOM      1  C   UNL     1      44.368   4.200  11.396  0.00  0.00    +0.000 A 
ATOM      2  C   UNL     1      44.049   4.790  12.620  0.00  0.00    +0.000 A 
ATOM      3  C   UNL     1      44.546   6.065  12.912  0.00  0.00    +0.000 A 
ATOM      4  C   UNL     1      45.318   6.706  11.955  0.00  0.00    +0.000 A 
ATOM      5  N   UNL     1      45.660   6.148  10.774  0.00  0.00    +0.000 NA
ATOM      6  C   UNL     1      45.193   4.900  10.528  0.00  0.00    +0.000 A 
ENDROOT
BRANCH   1   8
ATOM      7  N   UNL     1      44.561   2.244   9.974  0.00  0.00    +0.000 N 
ATOM      8  C   UNL     1      43.878   2.869  10.980  0.00  0.00    +0.000 C 
ATOM      9  O   UNL     1      42.937   2.329  11.543  0.00  0.00    +0.000 OA
ATOM     10  H   UNL     1      44.293   1.286   9.780  0.00  0.00    +0.000 HD
ATOM     11  H   UNL     1      45.480   2.539   9.673  0.00  0.00    +0.000 HD
ENDBRANCH   1   8
BRANCH   4  12
ATOM     12  O   UNL     1      45.774   7.976  12.252  0.00  0.00    +0.000 OA
BRANCH  12  13
ATOM     13  C   UNL     1      47.194   8.066  12.103  0.00  0.00    +0.000 C 
BRANCH  13  14
ATOM     14  C   UNL     1      47.865   7.897  13.440  0.00  0.00    +0.000 A 
ATOM     15  C   UNL     1      47.794   8.877  14.433  0.00  0.00    +0.000 A 
ATOM     16  C   UNL     1      48.485   8.699  15.630  0.00  0.00    +0.000 A 
ATOM     17  C   UNL     1      49.230   7.543  15.792  0.00  0.00    +0.000 A 
ATOM     18  N   UNL     1      49.323   6.574  14.857  0.00  0.00    +0.000 NA
ATOM     19  C   UNL     1      48.638   6.772  13.706  0.00  0.00    +0.000 A 
ENDBRANCH  13  14
ENDBRANCH  12  13
ENDBRANCH   4  12
TORSDOF 4
ENDMDL
MODEL 9
REMARK VINA RESULT:    -5.048      3.963      6.093
REMARK INTER + INTRA:          -6.602
REMARK INTER:                  -6.282
REMARK INTRA:                  -0.320
REMARK UNBOUND:                -0.374
REMARK  Name = 
REMARK  4 active torsions:
REMARK  status: ('A' for Active; 'I' for Inactive)
REMARK    1  A    between atoms: C_2  and  C_4
REMARK    2  A    between atoms: C_7  and  O_8
REMARK    3  A    between atoms: O_8  and  C_9
REMARK    4  A    between atoms: C_9  and  C_10
REMARK                            x       y       z     vdW  Elec       q    Type
REMARK                         _______ _______ _______ _____ _____    ______ ____
ROOT
ATOM      1  C   UNL     1      45.496   4.657  11.845  0.00  0.00    +0.000 A 
ATOM      2  C   UNL     1      46.182   5.836  12.140  0.00  0.00    +0.000 A 
ATOM      3  C   UNL     1      46.950   5.904  13.307  0.00  0.00    +0.000 A 
ATOM      4  C   UNL     1      47.022   4.780  14.115  0.00  0.00    +0.000 A 
ATOM      5  N   UNL     1      46.349   3.636  13.865  0.00  0.00    +0.000 NA
ATOM      6  C   UNL     1      45.586   3.605  12.746  0.00  0.00    +0.000 A 
ENDROOT
BRANCH   1   8
ATOM      7  N   UNL     1      43.318   4.501  10.788  0.00  0.00    +0.000 N 
ATOM      8  C   UNL     1      44.675   4.472  10.629  0.00  0.00    +0.000 C 
ATOM      9  O   UNL     1      45.185   4.351   9.526  0.00  0.00    +0.000 OA
ATOM     10  H   UNL     1      42.768   4.494   9.937  0.00  0.00    +0.000 HD
ATOM     11  H   UNL     1      42.873   4.854  11.625  0.00  0.00    +0.000 HD
ENDBRANCH   1   8
BRANCH   4  12
ATOM     12  O   UNL     1      47.809   4.859  15.247  0.00  0.00    +0.000 OA
BRANCH  12  13
ATOM     13  C   UNL     1      47.495   3.815  16.173  0.00  0.00    +0.000 C 
BRANCH  13  14
ATOM     14  C   UNL     1      47.714   4.292  17.583  0.00  0.00    +0.000 A 
ATOM     15  C   UNL     1      47.181   5.497  18.049  0.00  0.00    +0.000 A 
ATOM     16  C   UNL     1      47.466   5.925  19.343  0.00  0.00    +0.000 A 
ATOM     17  C   UNL     1      48.280   5.130  20.132  0.00  0.00    +0.000 A 
ATOM     18  N   UNL     1      48.813   3.960  19.720  0.00  0.00    +0.000 NA
ATOM     19  C   UNL     1      48.517   3.568  18.459  0.00  0.00    +0.000 A 
ENDBRANCH  13  14
ENDBRANCH  12  13
ENDBRANCH   4  12
TORSDOF 4
ENDMDL
