MODEL 1
REMARK VINA RESULT:    -7.491      0.000      0.000
REMARK INTER + INTRA:          -9.981
REMARK INTER:                  -9.461
REMARK INTRA:                  -0.519
REMARK UNBOUND:                -0.519
REMARK  Name = 
REMARK  5 active torsions:
REMARK  status: ('A' for Active; 'I' for Inactive)
REMARK    1  A    between atoms: N_1  and  C_2
REMARK    2  A    between atoms: C_2  and  C_3
REMARK    3  A    between atoms: C_3  and  C_4
REMARK    4  A    between atoms: C_7  and  C_8
REMARK    5  A    between atoms: C_8  and  N_9
REMARK                            x       y       z     vdW  Elec       q    Type
REMARK                         _______ _______ _______ _____ _____    ______ ____
ROOT
ATOM      1  C   UNL     1      46.177   2.243   7.811  0.00  0.00    +0.000 A 
ATOM      2  C   UNL     1      45.307   1.735   8.777  0.00  0.00    +0.000 A 
ATOM      3  C   UNL     1      44.492   2.603   9.502  0.00  0.00    +0.000 A 
ATOM      4  C   UNL     1      44.572   3.974   9.256  0.00  0.00    +0.000 A 
ATOM      5  N   UNL     1      45.390   4.485   8.304  0.00  0.00    +0.000 NA
ATOM      6  C   UNL     1      46.152   3.618   7.599  0.00  0.00    +0.000 A 
ENDROOT
BRANCH   1   7
ATOM      7  C   UNL     1      47.103   1.346   7.032  0.00  0.00    +0.000 C 
BRANCH   7   8
ATOM      8  C   UNL     1      48.355   2.084   6.537  0.00  0.00    +0.000 C 
BRANCH   8   9
ATOM      9  N   UNL     1      48.364   2.201   5.080  0.00  0.00    +0.000 NA
ATOM     10  H   UNL     1      47.402   2.227   4.740  0.00  0.00    +0.000 HD
ATOM     11  H   UNL     1      48.783   1.367   4.669  0.00  0.00    +0.000 HD
ENDBRANCH   8   9
ENDBRANCH   7   8
ENDBRANCH   1   7
BRANCH   4  12
ATOM     12  C   UNL     1      43.798   4.952  10.100  0.00  0.00    +0.000 C 
BRANCH  12  13
ATOM     13  N   UNL     1      44.227   4.963  11.493  0.00  0.00    +0.000 N 
ATOM     14  C   UNL     1      43.598   4.268  12.498  0.00  0.00    +0.000 A 
ATOM     15  C   UNL     1      44.361   4.379  13.637  0.00  0.00    +0.000 A 
ATOM     16  C   UNL     1      45.507   5.154  13.317  0.00  0.00    +0.000 A 
ATOM     17  C   UNL     1      46.635   5.569  14.055  0.00  0.00    +0.000 A 
ATOM     18  C   UNL     1      47.626   6.332  13.427  0.00  0.00    +0.000 A 
ATOM     19  C   UNL     1      47.494   6.690  12.089  0.00  0.00    +0.000 A 
ATOM     20 CL   UNL     1      48.733   7.624  11.339  0.00  0.00    +0.000 Cl
ATOM     21  C   UNL     1      46.381   6.301  11.337  0.00  0.00    +0.000 A 
ATOM     22  C   UNL     1      45.400   5.521  11.971  0.00  0.00    +0.000 A 
ENDBRANCH  12  13
ENDBRANCH   4  12
TORSDOF 5
ENDMDL
MODEL 2
REMARK VINA RESULT:    -7.355      1.637      1.954
REMARK INTER + INTRA:          -9.810
REMARK INTER:                  -9.400
REMARK INTRA:                  -0.410
REMARK UNBOUND:                -0.519
REMARK  Name = 
REMARK  5 active torsions:
REMARK  status: ('A' for Active; 'I' for Inactive)
REMARK    1  A    between atoms: N_1  and  C_2
REMARK    2  A    between atoms: C_2  and  C_3
REMARK    3  A    between atoms: C_3  and  C_4
REMARK    4  A    between atoms: C_7  and  C_8
REMARK    5  A    between atoms: C_8  and  N_9
REMARK                            x       y       z     vdW  Elec       q    Type
REMARK                         _______ _______ _______ _____ _____    ______ ____
ROOT
ATOM      1  C   UNL     1      45.757   3.100   7.939  0.00  0.00    +0.000 A 
ATOM      2  C   UNL     1      45.171   2.141   8.766  0.00  0.00    +0.000 A 
ATOM      3  C   UNL     1      44.618   2.522   9.988  0.00  0.00    +0.000 A 
ATOM      4  C   UNL     1      44.671   3.863  10.367  0.00  0.00    +0.000 A 
ATOM      5  N   UNL     1      45.211   4.815   9.566  0.00  0.00    +0.000 NA
ATOM      6  C   UNL     1      45.719   4.420   8.377  0.00  0.00    +0.000 A 
ENDROOT
BRANCH   1   7
ATOM      7  C   UNL     1      46.400   2.726   6.629  0.00  0.00    +0.000 C 
BRANCH   7   8
ATOM      8  C   UNL     1      47.548   1.721   6.806  0.00  0.00    +0.000 C 
BRANCH   8   9
ATOM      9  N   UNL     1      48.528   1.835   5.728  0.00  0.00    +0.000 NA
ATOM     10  H   UNL     1      49.138   1.018   5.742  0.00  0.00    +0.000 HD
ATOM     11  H   UNL     1      49.133   2.638   5.895  0.00  0.00    +0.000 HD
ENDBRANCH   8   9
ENDBRANCH   7   8
ENDBRANCH   1   7
BRANCH   4  12
ATOM     12  C   UNL     1      44.194   4.296  11.729  0.00  0.00    +0.000 C 
BRANCH  12  13
ATOM     13  N   UNL     1      45.266   4.825  12.564  0.00  0.00    +0.000 N 
ATOM     14  C   UNL     1      46.195   4.045  13.210  0.00  0.00    +0.000 A 
ATOM     15  C   UNL     1      47.140   4.877  13.765  0.00  0.00    +0.000 A 
ATOM     16  C   UNL     1      46.788   6.213  13.436  0.00  0.00    +0.000 A 
ATOM     17  C   UNL     1      47.380   7.466  13.697  0.00  0.00    +0.000 A 
ATOM     18  C   UNL     1      46.778   8.628  13.204  0.00  0.00    +0.000 A 
ATOM     19  C   UNL     1      45.597   8.552  12.472  0.00  0.00    +0.000 A 
ATOM     20 CL   UNL     1      44.881   9.999  11.871  0.00  0.00    +0.000 Cl
ATOM     21  C   UNL     1      44.983   7.324  12.207  0.00  0.00    +0.000 A 
ATOM     22  C   UNL     1      45.604   6.161  12.692  0.00  0.00    +0.000 A 
ENDBRANCH  12  13
ENDBRANCH   4  12
TORSDOF 5
ENDMDL
MODEL 3
REMARK VINA RESULT:    -7.093      1.644      2.184
REMARK INTER + INTRA:          -9.478
REMARK INTER:                  -9.002
REMARK INTRA:                  -0.476
REMARK UNBOUND:                -0.519
REMARK  Name = 
REMARK  5 active torsions:
REMARK  status: ('A' for Active; 'I' for Inactive)
REMARK    1  A    between atoms: N_1  and  C_2
REMARK    2  A    between atoms: C_2  and  C_3
REMARK    3  A    between atoms: C_3  and  C_4
REMARK    4  A    between atoms: C_7  and  C_8
REMARK    5  A    between atoms: C_8  and  N_9
REMARK                            x       y       z     vdW  Elec       q    Type
REMARK                         _______ _______ _______ _____ _____    ______ ____
ROOT
ATOM      1  C   UNL     1      45.835   2.672   8.070  0.00  0.00    +0.000 A 
ATOM      2  C   UNL     1      44.940   2.119   8.987  0.00  0.00    +0.000 A 
ATOM      3  C   UNL     1      44.264   2.947   9.882  0.00  0.00    +0.000 A 
ATOM      4  C   UNL     1      44.507   4.320   9.852  0.00  0.00    +0.000 A 
ATOM      5  N   UNL     1      45.353   4.880   8.952  0.00  0.00    +0.000 NA
ATOM      6  C   UNL     1      45.977   4.056   8.080  0.00  0.00    +0.000 A 
ENDROOT
BRANCH   1   7
ATOM      7  C   UNL     1      46.615   1.810   7.111  0.00  0.00    +0.000 C 
BRANCH   7   8
ATOM      8  C   UNL     1      48.021   2.365   6.836  0.00  0.00    +0.000 C 
BRANCH   8   9
ATOM      9  N   UNL     1      48.552   1.866   5.569  0.00  0.00    +0.000 NA
ATOM     10  H   UNL     1      48.106   0.976   5.345  0.00  0.00    +0.000 HD
ATOM     11  H   UNL     1      49.546   1.663   5.667  0.00  0.00    +0.000 HD
ENDBRANCH   8   9
ENDBRANCH   7   8
ENDBRANCH   1   7
BRANCH   4  12
ATOM     12  C   UNL     1      43.890   5.232  10.881  0.00  0.00    +0.000 C 
BRANCH  12  13
ATOM     13  N   UNL     1      44.850   6.164  11.460  0.00  0.00    +0.000 N 
ATOM     14  C   UNL     1      44.862   7.514  11.204  0.00  0.00    +0.000 A 
ATOM     15  C   UNL     1      45.789   8.099  12.036  0.00  0.00    +0.000 A 
ATOM     16  C   UNL     1      46.354   7.075  12.842  0.00  0.00    +0.000 A 
ATOM     17  C   UNL     1      47.314   7.071  13.875  0.00  0.00    +0.000 A 
ATOM     18  C   UNL     1      47.649   5.865  14.499  0.00  0.00    +0.000 A 
ATOM     19  C   UNL     1      47.051   4.675  14.095  0.00  0.00    +0.000 A 
ATOM     20 CL   UNL     1      47.478   3.205  14.886  0.00  0.00    +0.000 Cl
ATOM     21  C   UNL     1      46.104   4.649  13.068  0.00  0.00    +0.000 A 
ATOM     22  C   UNL     1      45.761   5.867  12.458  0.00  0.00    +0.000 A 
ENDBRANCH  12  13
ENDBRANCH   4  12
TORSDOF 5
ENDMDL
MODEL 4
REMARK VINA RESULT:    -6.245      2.727      6.198
REMARK INTER + INTRA:          -8.407
REMARK INTER:                  -8.019
REMARK INTRA:                  -0.389
REMARK UNBOUND:                -0.519
REMARK  Name = 
REMARK  5 active torsions:
REMARK  status: ('A' for Active; 'I' for Inactive)
REMARK    1  A    between atoms: N_1  and  C_2
REMARK    2  A    between atoms: C_2  and  C_3
REMARK    3  A    between atoms: C_3  and  C_4
REMARK    4  A    between atoms: C_7  and  C_8
REMARK    5  A    between atoms: C_8  and  N_9
REMARK                            x       y       z     vdW  Elec       q    Type
REMARK                         _______ _______ _______ _____ _____    ______ ____
ROOT
ATOM      1  C   UNL     1      47.534   7.656  13.748  0.00  0.00    +0.000 A 
ATOM      2  C   UNL     1      47.466   6.330  13.316  0.00  0.00    +0.000 A 
ATOM      3  C   UNL     1      46.410   5.917  12.506  0.00  0.00    +0.000 A 
ATOM      4  C   UNL     1      45.428   6.841  12.149  0.00  0.00    +0.000 A 
ATOM      5  N   UNL     1      45.489   8.139  12.534  0.00  0.00    +0.000 NA
ATOM      6  C   UNL     1      46.537   8.517  13.301  0.00  0.00    +0.000 A 
ENDROOT
BRANCH   1   7
ATOM      7  C   UNL     1      48.636   8.135  14.656  0.00  0.00    +0.000 C 
BRANCH   7   8
ATOM      8  C   UNL     1      50.003   7.543  14.282  0.00  0.00    +0.000 C 
BRANCH   8   9
ATOM      9  N   UNL     1      50.539   6.715  15.360  0.00  0.00    +0.000 NA
ATOM     10  H   UNL     1      50.877   5.835  14.971  0.00  0.00    +0.000 HD
ATOM     11  H   UNL     1      49.792   6.467  16.008  0.00  0.00    +0.000 HD
ENDBRANCH   8   9
ENDBRANCH   7   8
ENDBRANCH   1   7
BRANCH   4  12
ATOM     12  C   UNL     1      44.209   6.406  11.376  0.00  0.00    +0.000 C 
BRANCH  12  13
ATOM     13  N   UNL     1      44.096   4.957  11.264  0.00  0.00    +0.000 N 
ATOM     14  C   UNL     1      43.340   4.177  12.106  0.00  0.00    +0.000 A 
ATOM     15  C   UNL     1      43.337   2.893  11.611  0.00  0.00    +0.000 A 
ATOM     16  C   UNL     1      44.105   2.888  10.416  0.00  0.00    +0.000 A 
ATOM     17  C   UNL     1      44.428   1.889   9.475  0.00  0.00    +0.000 A 
ATOM     18  C   UNL     1      45.212   2.218   8.364  0.00  0.00    +0.000 A 
ATOM     19  C   UNL     1      45.680   3.518   8.195  0.00  0.00    +0.000 A 
ATOM     20 CL   UNL     1      46.638   3.897   6.813  0.00  0.00    +0.000 Cl
ATOM     21  C   UNL     1      45.383   4.524   9.117  0.00  0.00    +0.000 A 
ATOM     22  C   UNL     1      44.581   4.189  10.221  0.00  0.00    +0.000 A 
ENDBRANCH  12  13
ENDBRANCH   4  12
TORSDOF 5
ENDMDL
MODEL 5
REMARK VINA RESULT:    -5.616      4.243      7.712
REMARK INTER + INTRA:          -7.613
REMARK INTER:                  -7.163
REMARK INTRA:                  -0.450
REMARK UNBOUND:                -0.519
REMARK  Name = 
REMARK  5 active torsions:
REMARK  status: ('A' for Active; 'I' for Inactive)
REMARK    1  A    between atoms: N_1  and  C_2
REMARK    2  A    between atoms: C_2  and  C_3
REMARK    3  A    between atoms: C_3  and  C_4
REMARK    4  A    between atoms: C_7  and  C_8
REMARK    5  A    between atoms: C_8  and  N_9
REMARK                            x       y       z     vdW  Elec       q    Type
REMARK                         _______ _______ _______ _____ _____    ______ ____
ROOT
ATOM      1  C   UNL     1      48.427   5.541  17.108  0.00  0.00    +0.000 A 
ATOM      2  C   UNL     1      48.844   6.724  16.496  0.00  0.00    +0.000 A 
ATOM      3  C   UNL     1      48.613   6.921  15.135  0.00  0.00    +0.000 A 
ATOM      4  C   UNL     1      47.976   5.919  14.404  0.00  0.00    +0.000 A 
ATOM      5  N   UNL     1      47.538   4.775  14.984  0.00  0.00    +0.000 NA
ATOM      6  C   UNL     1      47.755   4.620  16.310  0.00  0.00    +0.000 A 
ENDROOT
BRANCH   1   7
ATOM      7  C   UNL     1      48.691   5.271  18.566  0.00  0.00    +0.000 C 
BRANCH   7   8
ATOM      8  C   UNL     1      48.595   3.778  18.912  0.00  0.00    +0.000 C 
BRANCH   8   9
ATOM      9  N   UNL     1      48.384   3.575  20.344  0.00  0.00    +0.000 NA
ATOM     10  H   UNL     1      49.283   3.608  20.824  0.00  0.00    +0.000 HD
ATOM     11  H   UNL     1      48.012   2.640  20.510  0.00  0.00    +0.000 HD
ENDBRANCH   8   9
ENDBRANCH   7   8
ENDBRANCH   1   7
BRANCH   4  12
ATOM     12  C   UNL     1      47.816   6.041  12.911  0.00  0.00    +0.000 C 
BRANCH  12  13
ATOM     13  N   UNL     1      46.536   6.621  12.523  0.00  0.00    +0.000 N 
ATOM     14  C   UNL     1      46.353   7.947  12.214  0.00  0.00    +0.000 A 
ATOM     15  C   UNL     1      45.070   8.103  11.743  0.00  0.00    +0.000 A 
ATOM     16  C   UNL     1      44.448   6.826  11.747  0.00  0.00    +0.000 A 
ATOM     17  C   UNL     1      43.174   6.365  11.357  0.00  0.00    +0.000 A 
ATOM     18  C   UNL     1      42.868   5.005  11.474  0.00  0.00    +0.000 A 
ATOM     19  C   UNL     1      43.808   4.116  11.983  0.00  0.00    +0.000 A 
ATOM     20 CL   UNL     1      43.406   2.444  12.110  0.00  0.00    +0.000 Cl
ATOM     21  C   UNL     1      45.075   4.546  12.388  0.00  0.00    +0.000 A 
ATOM     22  C   UNL     1      45.379   5.911  12.251  0.00  0.00    +0.000 A 
ENDBRANCH  12  13
ENDBRANCH   4  12
TORSDOF 5
ENDMDL
MODEL 6
REMARK VINA RESULT:    -5.401      2.951      4.758
REMARK INTER + INTRA:          -7.341
REMARK INTER:                  -6.909
REMARK INTRA:                  -0.432
REMARK UNBOUND:                -0.519
REMARK  Name = 
REMARK  5 active torsions:
REMARK  status: ('A' for Active; 'I' for Inactive)
REMARK    1  A    between atoms: N_1  and  C_2
REMARK    2  A    between atoms: C_2  and  C_3
REMARK    3  A    between atoms: C_3  and  C_4
REMARK    4  A    between atoms: C_7  and  C_8
REMARK    5  A    between atoms: C_8  and  N_9
REMARK                            x       y       z     vdW  Elec       q    Type
REMARK                         _______ _______ _______ _____ _____    ______ ____
ROOT
ATOM      1  C   UNL     1      44.831   3.995  11.056  0.00  0.00    +0.000 A 
ATOM      2  C   UNL     1      45.404   5.063  10.363  0.00  0.00    +0.000 A 
ATOM      3  C   UNL     1      46.025   6.094  11.067  0.00  0.00    +0.000 A 
ATOM      4  C   UNL     1      46.051   6.044  12.461  0.00  0.00    +0.000 A 
ATOM      5  N   UNL     1      45.524   5.003  13.152  0.00  0.00    +0.000 NA
ATOM      6  C   UNL     1      44.949   4.005  12.442  0.00  0.00    +0.000 A 
ENDROOT
BRANCH   1   7
ATOM      7  C   UNL     1      44.117   2.881  10.337  0.00  0.00    +0.000 C 
BRANCH   7   8
ATOM      8  C   UNL     1      44.681   2.635   8.930  0.00  0.00    +0.000 C 
BRANCH   8   9
ATOM      9  N   UNL     1      45.571   1.476   8.907  0.00  0.00    +0.000 NA
ATOM     10  H   UNL     1      46.538   1.795   8.964  0.00  0.00    +0.000 HD
ATOM     11  H   UNL     1      45.487   0.994   8.013  0.00  0.00    +0.000 HD
ENDBRANCH   8   9
ENDBRANCH   7   8
ENDBRANCH   1   7
BRANCH   4  12
ATOM     12  C   UNL     1      46.603   7.195  13.261  0.00  0.00    +0.000 C 
BRANCH  12  13
ATOM     13  N   UNL     1      46.474   8.475  12.576  0.00  0.00    +0.000 N 
ATOM     14  C   UNL     1      45.313   9.209  12.529  0.00  0.00    +0.000 A 
ATOM     15  C   UNL     1      45.597  10.422  11.945  0.00  0.00    +0.000 A 
ATOM     16  C   UNL     1      46.984  10.440  11.637  0.00  0.00    +0.000 A 
ATOM     17  C   UNL     1      47.839  11.405  11.066  0.00  0.00    +0.000 A 
ATOM     18  C   UNL     1      49.198  11.114  10.909  0.00  0.00    +0.000 A 
ATOM     19  C   UNL     1      49.701   9.877  11.301  0.00  0.00    +0.000 A 
ATOM     20 CL   UNL     1      51.381   9.548  11.102  0.00  0.00    +0.000 Cl
ATOM     21  C   UNL     1      48.874   8.899  11.860  0.00  0.00    +0.000 A 
ATOM     22  C   UNL     1      47.514   9.206  12.030  0.00  0.00    +0.000 A 
ENDBRANCH  12  13
ENDBRANCH   4  12
TORSDOF 5
ENDMDL
MODEL 7
REMARK VINA RESULT:    -5.335      2.224      3.558
REMARK INTER + INTRA:          -7.258
REMARK INTER:                  -6.972
REMARK INTRA:                  -0.286
REMARK UNBOUND:                -0.519
REMARK  Name = 
REMARK  5 active torsions:
REMARK  status: ('A' for Active; 'I' for Inactive)
REMARK    1  A    between atoms: N_1  and  C_2
REMARK    2  A    between atoms: C_2  and  C_3
REMARK    3  A    between atoms: C_3  and  C_4
REMARK    4  A    between atoms: C_7  and  C_8
REMARK    5  A    between atoms: C_8  and  N_9
REMARK                            x       y       z     vdW  Elec       q    Type
REMARK                         _______ _______ _______ _____ _____    ______ ____
ROOT
ATOM      1  C   UNL     1      44.721   3.309   9.810  0.00  0.00    +0.000 A 
ATOM      2  C   UNL     1      45.297   4.554   9.553  0.00  0.00    +0.000 A 
ATOM      3  C   UNL     1      45.318   5.529  10.550  0.00  0.00    +0.000 A 
ATOM      4  C   UNL     1      44.747   5.242  11.789  0.00  0.00    +0.000 A 
ATOM      5  N   UNL     1      44.207   4.031  12.069  0.00  0.00    +0.000 NA
ATOM      6  C   UNL     1      44.221   3.096  11.091  0.00  0.00    +0.000 A 
ENDROOT
BRANCH   1   7
ATOM      7  C   UNL     1      44.642   2.242   8.750  0.00  0.00    +0.000 C 
BRANCH   7   8
ATOM      8  C   UNL     1      46.018   1.646   8.415  0.00  0.00    +0.000 C 
BRANCH   8   9
ATOM      9  N   UNL     1      46.610   2.296   7.248  0.00  0.00    +0.000 NA
ATOM     10  H   UNL     1      46.136   3.184   7.082  0.00  0.00    +0.000 HD
ATOM     11  H   UNL     1      46.445   1.730   6.416  0.00  0.00    +0.000 HD
ENDBRANCH   8   9
ENDBRANCH   7   8
ENDBRANCH   1   7
BRANCH   4  12
ATOM     12  C   UNL     1      44.641   6.307  12.850  0.00  0.00    +0.000 C 
BRANCH  12  13
ATOM     13  N   UNL     1      45.315   7.546  12.480  0.00  0.00    +0.000 N 
ATOM     14  C   UNL     1      44.716   8.570  11.786  0.00  0.00    +0.000 A 
ATOM     15  C   UNL     1      45.588   9.633  11.755  0.00  0.00    +0.000 A 
ATOM     16  C   UNL     1      46.757   9.255  12.468  0.00  0.00    +0.000 A 
ATOM     17  C   UNL     1      47.956   9.923  12.790  0.00  0.00    +0.000 A 
ATOM     18  C   UNL     1      48.932   9.261  13.543  0.00  0.00    +0.000 A 
ATOM     19  C   UNL     1      48.728   7.950  13.961  0.00  0.00    +0.000 A 
ATOM     20 CL   UNL     1      49.944   7.162  14.893  0.00  0.00    +0.000 Cl
ATOM     21  C   UNL     1      47.553   7.261  13.647  0.00  0.00    +0.000 A 
ATOM     22  C   UNL     1      46.571   7.939  12.905  0.00  0.00    +0.000 A 
ENDBRANCH  12  13
ENDBRANCH   4  12
TORSDOF 5
ENDMDL
MODEL 8
REMARK VINA RESULT:    -5.218      4.056      6.483
REMARK INTER + INTRA:          -7.110
REMARK INTER:                  -6.651
REMARK INTRA:                  -0.459
REMARK UNBOUND:                -0.519
REMARK  Name = 
REMARK  5 active torsions:
REMARK  status: ('A' for Active; 'I' for Inactive)
REMARK    1  A    between atoms: N_1  and  C_2
REMARK    2  A    between atoms: C_2  and  C_3
REMARK    3  A    between atoms: C_3  and  C_4
REMARK    4  A    between atoms: C_7  and  C_8
REMARK    5  A    between atoms: C_8  and  N_9
REMARK                            x       y       z     vdW  Elec       q    Type
REMARK                         _______ _______ _______ _____ _____    ______ ____
ROOT
ATOM      1  C   UNL     1      45.229   4.948  13.019  0.00  0.00    +0.000 A 
ATOM      2  C   UNL     1      45.275   6.320  12.769  0.00  0.00    +0.000 A 
ATOM      3  C   UNL     1      46.458   7.026  12.985  0.00  0.00    +0.000 A 
ATOM      4  C   UNL     1      47.576   6.344  13.463  0.00  0.00    +0.000 A 
ATOM      5  N   UNL     1      47.561   5.007  13.687  0.00  0.00    +0.000 NA
ATOM      6  C   UNL     1      46.407   4.343  13.446  0.00  0.00    +0.000 A 
ENDROOT
BRANCH   1   7
ATOM      7  C   UNL     1      43.961   4.154  12.837  0.00  0.00    +0.000 C 
BRANCH   7   8
ATOM      8  C   UNL     1      44.006   3.258  11.590  0.00  0.00    +0.000 C 
BRANCH   8   9
ATOM      9  N   UNL     1      43.056   2.151  11.695  0.00  0.00    +0.000 NA
ATOM     10  H   UNL     1      43.381   1.375  11.118  0.00  0.00    +0.000 HD
ATOM     11  H   UNL     1      42.156   2.431  11.308  0.00  0.00    +0.000 HD
ENDBRANCH   8   9
ENDBRANCH   7   8
ENDBRANCH   1   7
BRANCH   4  12
ATOM     12  C   UNL     1      48.835   7.089  13.824  0.00  0.00    +0.000 C 
BRANCH  12  13
ATOM     13  N   UNL     1      48.734   7.787  15.100  0.00  0.00    +0.000 N 
ATOM     14  C   UNL     1      48.326   9.093  15.233  0.00  0.00    +0.000 A 
ATOM     15  C   UNL     1      48.198   9.365  16.576  0.00  0.00    +0.000 A 
ATOM     16  C   UNL     1      48.523   8.182  17.291  0.00  0.00    +0.000 A 
ATOM     17  C   UNL     1      48.544   7.851  18.662  0.00  0.00    +0.000 A 
ATOM     18  C   UNL     1      48.903   6.557  19.052  0.00  0.00    +0.000 A 
ATOM     19  C   UNL     1      49.248   5.606  18.097  0.00  0.00    +0.000 A 
ATOM     20 CL   UNL     1      49.680   4.016  18.606  0.00  0.00    +0.000 Cl
ATOM     21  C   UNL     1      49.246   5.909  16.733  0.00  0.00    +0.000 A 
ATOM     22  C   UNL     1      48.868   7.207  16.349  0.00  0.00    +0.000 A 
ENDBRANCH  12  13
ENDBRANCH   4  12
TORSDOF 5
ENDMDL
MODEL 9
REMARK VINA RESULT:    -5.103      3.710      6.895
REMARK INTER + INTRA:          -6.964
REMARK INTER:                  -6.562
REMARK INTRA:                  -0.402
REMARK UNBOUND:                -0.519
REMARK  Name = 
REMARK  5 active torsions:
REMARK  status: ('A' for Active; 'I' for Inactive)
REMARK    1  A    between atoms: N_1  and  C_2
REMARK    2  A    between atoms: C_2  and  C_3
REMARK    3  A    between atoms: C_3  and  C_4
REMARK    4  A    between atoms: C_7  and  C_8
REMARK    5  A    between atoms: C_8  and  N_9
REMARK                            x       y       z     vdW  Elec       q    Type
REMARK                         _______ _______ _______ _____ _____    ______ ____
ROOT
ATOM      1  C   UNL     1      43.793  10.097  11.380  0.00  0.00    +0.000 A 
ATOM      2  C   UNL     1      43.349   8.877  10.869  0.00  0.00    +0.000 A 
ATOM      3  C   UNL     1      44.088   7.717  11.098  0.00  0.00    +0.000 A 
ATOM      4  C   UNL     1      45.273   7.802  11.829  0.00  0.00    +0.000 A 
ATOM      5  N   UNL     1      45.709   8.972  12.357  0.00  0.00    +0.000 NA
ATOM      6  C   UNL     1      44.959  10.077  12.139  0.00  0.00    +0.000 A 
ENDROOT
BRANCH   1   7
ATOM      7  C   UNL     1      43.046  11.379  11.124  0.00  0.00    +0.000 C 
BRANCH   7   8
ATOM      8  C   UNL     1      41.551  11.264  11.458  0.00  0.00    +0.000 C 
BRANCH   8   9
ATOM      9  N   UNL     1      41.302  11.507  12.878  0.00  0.00    +0.000 NA
ATOM     10  H   UNL     1      41.262  12.513  13.044  0.00  0.00    +0.000 HD
ATOM     11  H   UNL     1      42.088  11.164  13.430  0.00  0.00    +0.000 HD
ENDBRANCH   8   9
ENDBRANCH   7   8
ENDBRANCH   1   7
BRANCH   4  12
ATOM     12  C   UNL     1      46.161   6.597  11.995  0.00  0.00    +0.000 C 
BRANCH  12  13
ATOM     13  N   UNL     1      45.420   5.342  11.995  0.00  0.00    +0.000 N 
ATOM     14  C   UNL     1      44.660   4.897  13.050  0.00  0.00    +0.000 A 
ATOM     15  C   UNL     1      43.982   3.770  12.644  0.00  0.00    +0.000 A 
ATOM     16  C   UNL     1      44.325   3.524  11.288  0.00  0.00    +0.000 A 
ATOM     17  C   UNL     1      43.931   2.549  10.348  0.00  0.00    +0.000 A 
ATOM     18  C   UNL     1      44.453   2.592   9.051  0.00  0.00    +0.000 A 
ATOM     19  C   UNL     1      45.363   3.582   8.693  0.00  0.00    +0.000 A 
ATOM     20 CL   UNL     1      45.984   3.616   7.085  0.00  0.00    +0.000 Cl
ATOM     21  C   UNL     1      45.778   4.555   9.606  0.00  0.00    +0.000 A 
ATOM     22  C   UNL     1      45.236   4.513  10.902  0.00  0.00    +0.000 A 
ENDBRANCH  12  13
ENDBRANCH   4  12
TORSDOF 5
ENDMDL
