MODEL 1
REMARK VINA RESULT:    -8.632      0.000      0.000
REMARK INTER + INTRA:         -13.362
REMARK INTER:                 -12.164
REMARK INTRA:                  -1.199
REMARK UNBOUND:                -1.199
REMARK  Name = 
REMARK  8 active torsions:
REMARK  status: ('A' for Active; 'I' for Inactive)
REMARK    1  A    between atoms: C_1  and  O_2
REMARK    2  A    between atoms: O_2  and  C_3
REMARK    3  A    between atoms: C_10  and  C_11
REMARK    4  A    between atoms: N_13  and  C_14
REMARK    5  A    between atoms: C_14  and  C_15
REMARK    6  A    between atoms: C_18  and  N_19
REMARK    7  A    between atoms: N_19  and  C_20
REMARK    8  A    between atoms: C_20  and  C_21
REMARK                            x       y       z     vdW  Elec       q    Type
REMARK                         _______ _______ _______ _____ _____    ______ ____
ROOT
ATOM      1  C   UNL     1      45.481   7.693  12.442  0.00  0.00    +0.000 C 
ENDROOT
BRANCH   1   2
ATOM      2  C   UNL     1      45.119   6.606  11.461  0.00  0.00    +0.000 A 
ATOM      3  C   UNL     1      45.979   6.270  10.408  0.00  0.00    +0.000 A 
ATOM      4  C   UNL     1      45.693   5.182   9.571  0.00  0.00    +0.000 A 
ATOM      5  C   UNL     1      44.549   4.405   9.770  0.00  0.00    +0.000 A 
ATOM      6  C   UNL     1      43.628   4.831  10.734  0.00  0.00    +0.000 A 
ATOM      7  C   UNL     1      43.912   5.908  11.580  0.00  0.00    +0.000 A 
BRANCH   5   8
ATOM      8  N   UNL     1      44.249   3.249   9.043  0.00  0.00    +0.000 N 
ATOM      9  H   UNL     1      43.926   3.472   8.104  0.00  0.00    +0.000 HD
BRANCH   8  10
ATOM     10  C   UNL     1      45.200   2.142   9.064  0.00  0.00    +0.000 C 
BRANCH  10  11
ATOM     11  C   UNL     1      46.110   2.217   7.865  0.00  0.00    +0.000 A 
ATOM     12  C   UNL     1      45.968   3.224   6.902  0.00  0.00    +0.000 A 
ATOM     13  C   UNL     1      46.770   3.218   5.763  0.00  0.00    +0.000 A 
ATOM     14  C   UNL     1      47.693   2.198   5.621  0.00  0.00    +0.000 A 
ATOM     15  N   UNL     1      47.863   1.208   6.524  0.00  0.00    +0.000 NA
ATOM     16  C   UNL     1      47.067   1.240   7.620  0.00  0.00    +0.000 A 
ENDBRANCH  10  11
ENDBRANCH   8  10
ENDBRANCH   5   8
ENDBRANCH   1   2
BRANCH   1  19
ATOM     17  C   UNL     1      47.612   7.193  13.562  0.00  0.00    +0.000 C 
ATOM     18  O   UNL     1      48.256   7.661  12.629  0.00  0.00    +0.000 OA
ATOM     19  N   UNL     1      46.245   7.175  13.547  0.00  0.00    +0.000 N 
ATOM     20  H   UNL     1      45.734   6.735  14.297  0.00  0.00    +0.000 HD
BRANCH  17  28
ATOM     21  C   UNL     1      47.095   4.358  15.443  0.00  0.00    +0.000 A 
ATOM     22  N   UNL     1      47.121   3.338  16.323  0.00  0.00    +0.000 NA
ATOM     23  C   UNL     1      48.048   3.365  17.285  0.00  0.00    +0.000 A 
ATOM     24  N   UNL     1      48.970   4.302  17.483  0.00  0.00    +0.000 NA
ATOM     25  C   UNL     1      48.915   5.294  16.578  0.00  0.00    +0.000 A 
ATOM     26  S   UNL     1      50.019   6.582  16.676  0.00  0.00    +0.000 S 
ATOM     27  C   UNL     1      49.345   7.328  15.307  0.00  0.00    +0.000 A 
ATOM     28  C   UNL     1      48.279   6.630  14.750  0.00  0.00    +0.000 A 
ATOM     29  C   UNL     1      48.025   5.411  15.516  0.00  0.00    +0.000 A 
BRANCH  21  31
ATOM     30  C   UNL     1      46.594   3.611  13.280  0.00  0.00    +0.000 C 
ATOM     31  O   UNL     1      46.155   4.320  14.435  0.00  0.00    +0.000 OA
ENDBRANCH  21  31
ENDBRANCH  17  28
ENDBRANCH   1  19
TORSDOF 7
ENDMDL
MODEL 2
REMARK VINA RESULT:    -7.910      1.976      2.790
REMARK INTER + INTRA:         -12.345
REMARK INTER:                 -11.433
REMARK INTRA:                  -0.912
REMARK UNBOUND:                -1.199
REMARK  Name = 
REMARK  8 active torsions:
REMARK  status: ('A' for Active; 'I' for Inactive)
REMARK    1  A    between atoms: C_1  and  O_2
REMARK    2  A    between atoms: O_2  and  C_3
REMARK    3  A    between atoms: C_10  and  C_11
REMARK    4  A    between atoms: N_13  and  C_14
REMARK    5  A    between atoms: C_14  and  C_15
REMARK    6  A    between atoms: C_18  and  N_19
REMARK    7  A    between atoms: N_19  and  C_20
REMARK    8  A    between atoms: C_20  and  C_21
REMARK                            x       y       z     vdW  Elec       q    Type
REMARK                         _______ _______ _______ _____ _____    ______ ____
ROOT
ATOM      1  C   UNL     1      46.722   6.441  13.123  0.00  0.00    +0.000 C 
ENDROOT
BRANCH   1   2
ATOM      2  C   UNL     1      45.977   5.596  12.119  0.00  0.00    +0.000 A 
ATOM      3  C   UNL     1      45.828   6.019  10.793  0.00  0.00    +0.000 A 
ATOM      4  C   UNL     1      45.239   5.179   9.837  0.00  0.00    +0.000 A 
ATOM      5  C   UNL     1      44.793   3.900  10.183  0.00  0.00    +0.000 A 
ATOM      6  C   UNL     1      44.821   3.541  11.535  0.00  0.00    +0.000 A 
ATOM      7  C   UNL     1      45.418   4.370  12.492  0.00  0.00    +0.000 A 
BRANCH   5   8
ATOM      8  N   UNL     1      44.289   2.971   9.268  0.00  0.00    +0.000 N 
ATOM      9  H   UNL     1      43.952   3.425   8.422  0.00  0.00    +0.000 HD
BRANCH   8  10
ATOM     10  C   UNL     1      45.067   1.768   8.991  0.00  0.00    +0.000 C 
BRANCH  10  11
ATOM     11  C   UNL     1      46.046   2.028   7.875  0.00  0.00    +0.000 A 
ATOM     12  C   UNL     1      45.900   3.125   7.017  0.00  0.00    +0.000 A 
ATOM     13  C   UNL     1      46.772   3.292   5.944  0.00  0.00    +0.000 A 
ATOM     14  C   UNL     1      47.769   2.350   5.761  0.00  0.00    +0.000 A 
ATOM     15  N   UNL     1      47.946   1.279   6.565  0.00  0.00    +0.000 NA
ATOM     16  C   UNL     1      47.080   1.142   7.597  0.00  0.00    +0.000 A 
ENDBRANCH  10  11
ENDBRANCH   8  10
ENDBRANCH   5   8
ENDBRANCH   1   2
BRANCH   1  19
ATOM     17  C   UNL     1      48.066   5.753  15.064  0.00  0.00    +0.000 C 
ATOM     18  O   UNL     1      49.051   6.351  14.642  0.00  0.00    +0.000 OA
ATOM     19  N   UNL     1      46.883   5.753  14.378  0.00  0.00    +0.000 N 
ATOM     20  H   UNL     1      46.101   5.210  14.712  0.00  0.00    +0.000 HD
BRANCH  17  28
ATOM     21  C   UNL     1      48.769   6.656  18.310  0.00  0.00    +0.000 A 
ATOM     22  N   UNL     1      48.982   6.738  19.638  0.00  0.00    +0.000 NA
ATOM     23  C   UNL     1      48.857   5.622  20.361  0.00  0.00    +0.000 A 
ATOM     24  N   UNL     1      48.540   4.409  19.917  0.00  0.00    +0.000 NA
ATOM     25  C   UNL     1      48.327   4.375  18.590  0.00  0.00    +0.000 A 
ATOM     26  S   UNL     1      47.913   2.906  17.845  0.00  0.00    +0.000 S 
ATOM     27  C   UNL     1      47.824   3.648  16.319  0.00  0.00    +0.000 A 
ATOM     28  C   UNL     1      48.105   5.010  16.337  0.00  0.00    +0.000 A 
ATOM     29  C   UNL     1      48.406   5.441  17.701  0.00  0.00    +0.000 A 
BRANCH  21  31
ATOM     30  C   UNL     1      50.221   8.210  17.328  0.00  0.00    +0.000 C 
ATOM     31  O   UNL     1      48.874   7.811  17.565  0.00  0.00    +0.000 OA
ENDBRANCH  21  31
ENDBRANCH  17  28
ENDBRANCH   1  19
TORSDOF 7
ENDMDL
MODEL 3
REMARK VINA RESULT:    -7.785      2.138      3.499
REMARK INTER + INTRA:         -12.169
REMARK INTER:                 -10.999
REMARK INTRA:                  -1.170
REMARK UNBOUND:                -1.199
REMARK  Name = 
REMARK  8 active torsions:
REMARK  status: ('A' for Active; 'I' for Inactive)
REMARK    1  A    between atoms: C_1  and  O_2
REMARK    2  A    between atoms: O_2  and  C_3
REMARK    3  A    between atoms: C_10  and  C_11
REMARK    4  A    between atoms: N_13  and  C_14
REMARK    5  A    between atoms: C_14  and  C_15
REMARK    6  A    between atoms: C_18  and  N_19
REMARK    7  A    between atoms: N_19  and  C_20
REMARK    8  A    between atoms: C_20  and  C_21
REMARK                            x       y       z     vdW  Elec       q    Type
REMARK                         _______ _______ _______ _____ _____    ______ ____
ROOT
ATOM      1  C   UNL     1      46.712   4.074  14.667  0.00  0.00    +0.000 C 
ENDROOT
BRANCH   1   2
ATOM      2  C   UNL     1      46.174   4.423  13.302  0.00  0.00    +0.000 A 
ATOM      3  C   UNL     1      46.534   5.621  12.672  0.00  0.00    +0.000 A 
ATOM      4  C   UNL     1      46.126   5.887  11.357  0.00  0.00    +0.000 A 
ATOM      5  C   UNL     1      45.359   4.962  10.643  0.00  0.00    +0.000 A 
ATOM      6  C   UNL     1      44.891   3.835  11.325  0.00  0.00    +0.000 A 
ATOM      7  C   UNL     1      45.302   3.557  12.634  0.00  0.00    +0.000 A 
BRANCH   5   8
ATOM      8  N   UNL     1      45.001   5.111   9.299  0.00  0.00    +0.000 N 
ATOM      9  H   UNL     1      45.724   5.597   8.772  0.00  0.00    +0.000 HD
BRANCH   8  10
ATOM     10  C   UNL     1      44.460   3.959   8.587  0.00  0.00    +0.000 C 
BRANCH  10  11
ATOM     11  C   UNL     1      45.581   3.075   8.103  0.00  0.00    +0.000 A 
ATOM     12  C   UNL     1      46.543   3.544   7.200  0.00  0.00    +0.000 A 
ATOM     13  C   UNL     1      47.517   2.679   6.707  0.00  0.00    +0.000 A 
ATOM     14  C   UNL     1      47.499   1.363   7.136  0.00  0.00    +0.000 A 
ATOM     15  N   UNL     1      46.591   0.870   8.006  0.00  0.00    +0.000 NA
ATOM     16  C   UNL     1      45.654   1.735   8.465  0.00  0.00    +0.000 A 
ENDBRANCH  10  11
ENDBRANCH   8  10
ENDBRANCH   5   8
ENDBRANCH   1   2
BRANCH   1  19
ATOM     17  C   UNL     1      48.271   5.080  16.281  0.00  0.00    +0.000 C 
ATOM     18  O   UNL     1      48.649   3.977  16.661  0.00  0.00    +0.000 OA
ATOM     19  N   UNL     1      47.324   5.212  15.302  0.00  0.00    +0.000 N 
ATOM     20  H   UNL     1      46.985   6.125  15.043  0.00  0.00    +0.000 HD
BRANCH  17  28
ATOM     21  C   UNL     1      49.871   7.808  14.924  0.00  0.00    +0.000 A 
ATOM     22  N   UNL     1      50.493   8.974  14.660  0.00  0.00    +0.000 NA
ATOM     23  C   UNL     1      50.758   9.788  15.685  0.00  0.00    +0.000 A 
ATOM     24  N   UNL     1      50.476   9.579  16.968  0.00  0.00    +0.000 NA
ATOM     25  C   UNL     1      49.847   8.412  17.185  0.00  0.00    +0.000 A 
ATOM     26  S   UNL     1      49.409   7.976  18.767  0.00  0.00    +0.000 S 
ATOM     27  C   UNL     1      48.730   6.515  18.230  0.00  0.00    +0.000 A 
ATOM     28  C   UNL     1      48.820   6.322  16.856  0.00  0.00    +0.000 A 
ATOM     29  C   UNL     1      49.491   7.462  16.233  0.00  0.00    +0.000 A 
BRANCH  21  31
ATOM     30  C   UNL     1      49.700   7.614  12.595  0.00  0.00    +0.000 C 
ATOM     31  O   UNL     1      49.575   6.978  13.864  0.00  0.00    +0.000 OA
ENDBRANCH  21  31
ENDBRANCH  17  28
ENDBRANCH   1  19
TORSDOF 7
ENDMDL
MODEL 4
REMARK VINA RESULT:    -7.760      1.987      2.564
REMARK INTER + INTRA:         -12.134
REMARK INTER:                 -10.990
REMARK INTRA:                  -1.144
REMARK UNBOUND:                -1.199
REMARK  Name = 
REMARK  8 active torsions:
REMARK  status: ('A' for Active; 'I' for Inactive)
REMARK    1  A    between atoms: C_1  and  O_2
REMARK    2  A    between atoms: O_2  and  C_3
REMARK    3  A    between atoms: C_10  and  C_11
REMARK    4  A    between atoms: N_13  and  C_14
REMARK    5  A    between atoms: C_14  and  C_15
REMARK    6  A    between atoms: C_18  and  N_19
REMARK    7  A    between atoms: N_19  and  C_20
REMARK    8  A    between atoms: C_20  and  C_21
REMARK                            x       y       z     vdW  Elec       q    Type
REMARK                         _______ _______ _______ _____ _____    ______ ____
ROOT
ATOM      1  C   UNL     1      47.927   7.632  13.418  0.00  0.00    +0.000 C 
ENDROOT
BRANCH   1   2
ATOM      2  C   UNL     1      46.938   6.679  12.795  0.00  0.00    +0.000 A 
ATOM      3  C   UNL     1      46.271   7.006  11.608  0.00  0.00    +0.000 A 
ATOM      4  C   UNL     1      45.444   6.071  10.971  0.00  0.00    +0.000 A 
ATOM      5  C   UNL     1      45.270   4.789  11.501  0.00  0.00    +0.000 A 
ATOM      6  C   UNL     1      45.827   4.518  12.755  0.00  0.00    +0.000 A 
ATOM      7  C   UNL     1      46.663   5.443  13.391  0.00  0.00    +0.000 A 
BRANCH   5   8
ATOM      8  N   UNL     1      44.544   3.773  10.873  0.00  0.00    +0.000 N 
ATOM      9  H   UNL     1      43.708   3.530  11.401  0.00  0.00    +0.000 HD
BRANCH   8  10
ATOM     10  C   UNL     1      44.295   3.873   9.439  0.00  0.00    +0.000 C 
BRANCH  10  11
ATOM     11  C   UNL     1      45.340   3.101   8.676  0.00  0.00    +0.000 A 
ATOM     12  C   UNL     1      46.142   3.718   7.708  0.00  0.00    +0.000 A 
ATOM     13  C   UNL     1      47.041   2.960   6.961  0.00  0.00    +0.000 A 
ATOM     14  C   UNL     1      47.110   1.600   7.206  0.00  0.00    +0.000 A 
ATOM     15  N   UNL     1      46.356   0.966   8.130  0.00  0.00    +0.000 NA
ATOM     16  C   UNL     1      45.489   1.728   8.838  0.00  0.00    +0.000 A 
ENDBRANCH  10  11
ENDBRANCH   8  10
ENDBRANCH   5   8
ENDBRANCH   1   2
BRANCH   1  19
ATOM     17  C   UNL     1      48.928   7.065  15.591  0.00  0.00    +0.000 C 
ATOM     18  O   UNL     1      49.948   6.647  15.055  0.00  0.00    +0.000 OA
ATOM     19  N   UNL     1      47.890   7.569  14.856  0.00  0.00    +0.000 N 
ATOM     20  H   UNL     1      47.036   7.855  15.310  0.00  0.00    +0.000 HD
BRANCH  17  28
ATOM     21  C   UNL     1      48.819   4.546  17.934  0.00  0.00    +0.000 A 
ATOM     22  N   UNL     1      48.757   3.775  19.037  0.00  0.00    +0.000 NA
ATOM     23  C   UNL     1      48.590   4.382  20.216  0.00  0.00    +0.000 A 
ATOM     24  N   UNL     1      48.475   5.688  20.436  0.00  0.00    +0.000 NA
ATOM     25  C   UNL     1      48.553   6.420  19.312  0.00  0.00    +0.000 A 
ATOM     26  S   UNL     1      48.425   8.111  19.401  0.00  0.00    +0.000 S 
ATOM     27  C   UNL     1      48.610   8.263  17.719  0.00  0.00    +0.000 A 
ATOM     28  C   UNL     1      48.768   7.051  17.057  0.00  0.00    +0.000 A 
ATOM     29  C   UNL     1      48.733   5.948  18.016  0.00  0.00    +0.000 A 
BRANCH  21  31
ATOM     30  C   UNL     1      47.846   3.284  16.218  0.00  0.00    +0.000 C 
ATOM     31  O   UNL     1      49.015   3.925  16.720  0.00  0.00    +0.000 OA
ENDBRANCH  21  31
ENDBRANCH  17  28
ENDBRANCH   1  19
TORSDOF 7
ENDMDL
MODEL 5
REMARK VINA RESULT:    -7.559      1.697      2.230
REMARK INTER + INTRA:         -11.851
REMARK INTER:                 -10.690
REMARK INTRA:                  -1.161
REMARK UNBOUND:                -1.199
REMARK  Name = 
REMARK  8 active torsions:
REMARK  status: ('A' for Active; 'I' for Inactive)
REMARK    1  A    between atoms: C_1  and  O_2
REMARK    2  A    between atoms: O_2  and  C_3
REMARK    3  A    between atoms: C_10  and  C_11
REMARK    4  A    between atoms: N_13  and  C_14
REMARK    5  A    between atoms: C_14  and  C_15
REMARK    6  A    between atoms: C_18  and  N_19
REMARK    7  A    between atoms: N_19  and  C_20
REMARK    8  A    between atoms: C_20  and  C_21
REMARK                            x       y       z     vdW  Elec       q    Type
REMARK                         _______ _______ _______ _____ _____    ______ ____
ROOT
ATOM      1  C   UNL     1      46.153   7.294  13.186  0.00  0.00    +0.000 C 
ENDROOT
BRANCH   1   2
ATOM      2  C   UNL     1      45.704   6.049  12.462  0.00  0.00    +0.000 A 
ATOM      3  C   UNL     1      45.356   6.091  11.106  0.00  0.00    +0.000 A 
ATOM      4  C   UNL     1      45.053   4.913  10.410  0.00  0.00    +0.000 A 
ATOM      5  C   UNL     1      45.096   3.670  11.048  0.00  0.00    +0.000 A 
ATOM      6  C   UNL     1      45.308   3.652  12.431  0.00  0.00    +0.000 A 
ATOM      7  C   UNL     1      45.623   4.823  13.131  0.00  0.00    +0.000 A 
BRANCH   5   8
ATOM      8  N   UNL     1      44.906   2.447  10.398  0.00  0.00    +0.000 N 
ATOM      9  H   UNL     1      44.375   1.797  10.974  0.00  0.00    +0.000 HD
BRANCH   8  10
ATOM     10  C   UNL     1      44.467   2.454   9.007  0.00  0.00    +0.000 C 
BRANCH  10  11
ATOM     11  C   UNL     1      45.655   2.321   8.089  0.00  0.00    +0.000 A 
ATOM     12  C   UNL     1      46.007   3.342   7.197  0.00  0.00    +0.000 A 
ATOM     13  C   UNL     1      47.059   3.154   6.303  0.00  0.00    +0.000 A 
ATOM     14  C   UNL     1      47.729   1.944   6.328  0.00  0.00    +0.000 A 
ATOM     15  N   UNL     1      47.423   0.935   7.171  0.00  0.00    +0.000 NA
ATOM     16  C   UNL     1      46.394   1.145   8.026  0.00  0.00    +0.000 A 
ENDBRANCH  10  11
ENDBRANCH   8  10
ENDBRANCH   5   8
ENDBRANCH   1   2
BRANCH   1  19
ATOM     17  C   UNL     1      48.271   8.218  14.029  0.00  0.00    +0.000 C 
ATOM     18  O   UNL     1      47.877   9.368  13.867  0.00  0.00    +0.000 OA
ATOM     19  N   UNL     1      47.482   7.144  13.722  0.00  0.00    +0.000 N 
ATOM     20  H   UNL     1      47.843   6.206  13.808  0.00  0.00    +0.000 HD
BRANCH  17  28
ATOM     21  C   UNL     1      49.462   5.959  16.336  0.00  0.00    +0.000 A 
ATOM     22  N   UNL     1      50.182   5.187  17.173  0.00  0.00    +0.000 NA
ATOM     23  C   UNL     1      51.497   5.405  17.251  0.00  0.00    +0.000 A 
ATOM     24  N   UNL     1      52.199   6.318  16.586  0.00  0.00    +0.000 NA
ATOM     25  C   UNL     1      51.445   7.059  15.755  0.00  0.00    +0.000 A 
ATOM     26  S   UNL     1      52.173   8.278  14.823  0.00  0.00    +0.000 S 
ATOM     27  C   UNL     1      50.685   8.696  14.118  0.00  0.00    +0.000 A 
ATOM     28  C   UNL     1      49.613   7.934  14.569  0.00  0.00    +0.000 A 
ATOM     29  C   UNL     1      50.073   6.953  15.551  0.00  0.00    +0.000 A 
BRANCH  21  31
ATOM     30  C   UNL     1      47.786   4.335  16.134  0.00  0.00    +0.000 C 
ATOM     31  O   UNL     1      48.109   5.719  16.236  0.00  0.00    +0.000 OA
ENDBRANCH  21  31
ENDBRANCH  17  28
ENDBRANCH   1  19
TORSDOF 7
ENDMDL
MODEL 6
REMARK VINA RESULT:    -7.519      2.885      3.908
REMARK INTER + INTRA:         -11.795
REMARK INTER:                 -10.503
REMARK INTRA:                  -1.292
REMARK UNBOUND:                -1.199
REMARK  Name = 
REMARK  8 active torsions:
REMARK  status: ('A' for Active; 'I' for Inactive)
REMARK    1  A    between atoms: C_1  and  O_2
REMARK    2  A    between atoms: O_2  and  C_3
REMARK    3  A    between atoms: C_10  and  C_11
REMARK    4  A    between atoms: N_13  and  C_14
REMARK    5  A    between atoms: C_14  and  C_15
REMARK    6  A    between atoms: C_18  and  N_19
REMARK    7  A    between atoms: N_19  and  C_20
REMARK    8  A    between atoms: C_20  and  C_21
REMARK                            x       y       z     vdW  Elec       q    Type
REMARK                         _______ _______ _______ _____ _____    ______ ____
ROOT
ATOM      1  C   UNL     1      48.432   6.868  13.689  0.00  0.00    +0.000 C 
ENDROOT
BRANCH   1   2
ATOM      2  C   UNL     1      47.295   6.211  12.949  0.00  0.00    +0.000 A 
ATOM      3  C   UNL     1      46.818   6.741  11.743  0.00  0.00    +0.000 A 
ATOM      4  C   UNL     1      45.842   6.063  11.000  0.00  0.00    +0.000 A 
ATOM      5  C   UNL     1      45.327   4.840  11.439  0.00  0.00    +0.000 A 
ATOM      6  C   UNL     1      45.706   4.388  12.708  0.00  0.00    +0.000 A 
ATOM      7  C   UNL     1      46.688   5.054  13.450  0.00  0.00    +0.000 A 
BRANCH   5   8
ATOM      8  N   UNL     1      44.430   4.058  10.706  0.00  0.00    +0.000 N 
ATOM      9  H   UNL     1      43.509   4.041  11.139  0.00  0.00    +0.000 HD
BRANCH   8  10
ATOM     10  C   UNL     1      44.368   4.233   9.258  0.00  0.00    +0.000 C 
BRANCH  10  11
ATOM     11  C   UNL     1      45.356   3.318   8.583  0.00  0.00    +0.000 A 
ATOM     12  C   UNL     1      46.219   3.784   7.583  0.00  0.00    +0.000 A 
ATOM     13  C   UNL     1      47.061   2.896   6.920  0.00  0.00    +0.000 A 
ATOM     14  C   UNL     1      47.014   1.560   7.277  0.00  0.00    +0.000 A 
ATOM     15  N   UNL     1      46.199   1.069   8.235  0.00  0.00    +0.000 NA
ATOM     16  C   UNL     1      45.389   1.956   8.860  0.00  0.00    +0.000 A 
ENDBRANCH  10  11
ENDBRANCH   8  10
ENDBRANCH   5   8
ENDBRANCH   1   2
BRANCH   1  19
ATOM     17  C   UNL     1      48.878   6.556  16.088  0.00  0.00    +0.000 C 
ATOM     18  O   UNL     1      49.886   5.898  15.853  0.00  0.00    +0.000 OA
ATOM     19  N   UNL     1      48.112   7.071  15.079  0.00  0.00    +0.000 N 
ATOM     20  H   UNL     1      47.256   7.561  15.290  0.00  0.00    +0.000 HD
BRANCH  17  28
ATOM     21  C   UNL     1      47.973   9.428  17.754  0.00  0.00    +0.000 A 
ATOM     22  N   UNL     1      47.570  10.374  18.624  0.00  0.00    +0.000 NA
ATOM     23  C   UNL     1      47.275   9.994  19.870  0.00  0.00    +0.000 A 
ATOM     24  N   UNL     1      47.334   8.762  20.368  0.00  0.00    +0.000 NA
ATOM     25  C   UNL     1      47.729   7.849  19.465  0.00  0.00    +0.000 A 
ATOM     26  S   UNL     1      47.863   6.219  19.924  0.00  0.00    +0.000 S 
ATOM     27  C   UNL     1      48.364   5.770  18.364  0.00  0.00    +0.000 A 
ATOM     28  C   UNL     1      48.444   6.831  17.469  0.00  0.00    +0.000 A 
ATOM     29  C   UNL     1      48.062   8.076  18.134  0.00  0.00    +0.000 A 
BRANCH  21  31
ATOM     30  C   UNL     1      49.541  10.411  16.318  0.00  0.00    +0.000 C 
ATOM     31  O   UNL     1      48.255   9.814  16.462  0.00  0.00    +0.000 OA
ENDBRANCH  21  31
ENDBRANCH  17  28
ENDBRANCH   1  19
TORSDOF 7
ENDMDL
MODEL 7
REMARK VINA RESULT:    -7.262      2.259      3.298
REMARK INTER + INTRA:         -11.432
REMARK INTER:                 -10.737
REMARK INTRA:                  -0.695
REMARK UNBOUND:                -1.199
REMARK  Name = 
REMARK  8 active torsions:
REMARK  status: ('A' for Active; 'I' for Inactive)
REMARK    1  A    between atoms: C_1  and  O_2
REMARK    2  A    between atoms: O_2  and  C_3
REMARK    3  A    between atoms: C_10  and  C_11
REMARK    4  A    between atoms: N_13  and  C_14
REMARK    5  A    between atoms: C_14  and  C_15
REMARK    6  A    between atoms: C_18  and  N_19
REMARK    7  A    between atoms: N_19  and  C_20
REMARK    8  A    between atoms: C_20  and  C_21
REMARK                            x       y       z     vdW  Elec       q    Type
REMARK                         _______ _______ _______ _____ _____    ______ ____
ROOT
ATOM      1  C   UNL     1      46.126   4.483  14.771  0.00  0.00    +0.000 C 
ENDROOT
BRANCH   1   2
ATOM      2  C   UNL     1      45.912   4.556  13.280  0.00  0.00    +0.000 A 
ATOM      3  C   UNL     1      45.245   3.531  12.597  0.00  0.00    +0.000 A 
ATOM      4  C   UNL     1      44.946   3.659  11.233  0.00  0.00    +0.000 A 
ATOM      5  C   UNL     1      45.298   4.812  10.526  0.00  0.00    +0.000 A 
ATOM      6  C   UNL     1      46.082   5.767  11.181  0.00  0.00    +0.000 A 
ATOM      7  C   UNL     1      46.375   5.652  12.544  0.00  0.00    +0.000 A 
BRANCH   5   8
ATOM      8  N   UNL     1      44.945   5.054   9.194  0.00  0.00    +0.000 N 
ATOM      9  H   UNL     1      45.656   5.602   8.714  0.00  0.00    +0.000 HD
BRANCH   8  10
ATOM     10  C   UNL     1      44.449   3.943   8.389  0.00  0.00    +0.000 C 
BRANCH  10  11
ATOM     11  C   UNL     1      45.594   3.065   7.954  0.00  0.00    +0.000 A 
ATOM     12  C   UNL     1      46.560   3.520   7.048  0.00  0.00    +0.000 A 
ATOM     13  C   UNL     1      47.557   2.657   6.602  0.00  0.00    +0.000 A 
ATOM     14  C   UNL     1      47.558   1.357   7.077  0.00  0.00    +0.000 A 
ATOM     15  N   UNL     1      46.647   0.879   7.951  0.00  0.00    +0.000 NA
ATOM     16  C   UNL     1      45.687   1.740   8.365  0.00  0.00    +0.000 A 
ENDBRANCH  10  11
ENDBRANCH   8  10
ENDBRANCH   5   8
ENDBRANCH   1   2
BRANCH   1  19
ATOM     17  C   UNL     1      47.899   4.965  16.405  0.00  0.00    +0.000 C 
ATOM     18  O   UNL     1      47.371   4.246  17.247  0.00  0.00    +0.000 OA
ATOM     19  N   UNL     1      47.351   5.130  15.163  0.00  0.00    +0.000 N 
ATOM     20  H   UNL     1      47.768   5.769  14.503  0.00  0.00    +0.000 HD
BRANCH  17  28
ATOM     21  C   UNL     1      50.911   4.015  17.773  0.00  0.00    +0.000 A 
ATOM     22  N   UNL     1      52.166   3.913  18.253  0.00  0.00    +0.000 NA
ATOM     23  C   UNL     1      52.927   5.010  18.254  0.00  0.00    +0.000 A 
ATOM     24  N   UNL     1      52.586   6.223  17.828  0.00  0.00    +0.000 NA
ATOM     25  C   UNL     1      51.332   6.278  17.348  0.00  0.00    +0.000 A 
ATOM     26  S   UNL     1      50.723   7.751  16.760  0.00  0.00    +0.000 S 
ATOM     27  C   UNL     1      49.229   7.037  16.378  0.00  0.00    +0.000 A 
ATOM     28  C   UNL     1      49.155   5.684  16.686  0.00  0.00    +0.000 A 
ATOM     29  C   UNL     1      50.419   5.232  17.268  0.00  0.00    +0.000 A 
BRANCH  21  31
ATOM     30  C   UNL     1      50.727   1.801  17.032  0.00  0.00    +0.000 C 
ATOM     31  O   UNL     1      50.132   2.879  17.749  0.00  0.00    +0.000 OA
ENDBRANCH  21  31
ENDBRANCH  17  28
ENDBRANCH   1  19
TORSDOF 7
ENDMDL
MODEL 8
REMARK VINA RESULT:    -7.190      2.851      3.864
REMARK INTER + INTRA:         -11.331
REMARK INTER:                 -10.465
REMARK INTRA:                  -0.867
REMARK UNBOUND:                -1.199
REMARK  Name = 
REMARK  8 active torsions:
REMARK  status: ('A' for Active; 'I' for Inactive)
REMARK    1  A    between atoms: C_1  and  O_2
REMARK    2  A    between atoms: O_2  and  C_3
REMARK    3  A    between atoms: C_10  and  C_11
REMARK    4  A    between atoms: N_13  and  C_14
REMARK    5  A    between atoms: C_14  and  C_15
REMARK    6  A    between atoms: C_18  and  N_19
REMARK    7  A    between atoms: N_19  and  C_20
REMARK    8  A    between atoms: C_20  and  C_21
REMARK                            x       y       z     vdW  Elec       q    Type
REMARK                         _______ _______ _______ _____ _____    ______ ____
ROOT
ATOM      1  C   UNL     1      47.340   4.227  15.156  0.00  0.00    +0.000 C 
ENDROOT
BRANCH   1   2
ATOM      2  C   UNL     1      46.744   4.402  13.782  0.00  0.00    +0.000 A 
ATOM      3  C   UNL     1      45.958   3.397  13.205  0.00  0.00    +0.000 A 
ATOM      4  C   UNL     1      45.310   3.611  11.980  0.00  0.00    +0.000 A 
ATOM      5  C   UNL     1      45.428   4.832  11.310  0.00  0.00    +0.000 A 
ATOM      6  C   UNL     1      46.323   5.776  11.824  0.00  0.00    +0.000 A 
ATOM      7  C   UNL     1      46.964   5.574  13.051  0.00  0.00    +0.000 A 
BRANCH   5   8
ATOM      8  N   UNL     1      44.735   5.154  10.140  0.00  0.00    +0.000 N 
ATOM      9  H   UNL     1      45.255   5.815   9.567  0.00  0.00    +0.000 HD
BRANCH   8  10
ATOM     10  C   UNL     1      44.141   4.075   9.357  0.00  0.00    +0.000 C 
BRANCH  10  11
ATOM     11  C   UNL     1      45.220   3.285   8.663  0.00  0.00    +0.000 A 
ATOM     12  C   UNL     1      46.070   3.879   7.722  0.00  0.00    +0.000 A 
ATOM     13  C   UNL     1      47.002   3.103   7.036  0.00  0.00    +0.000 A 
ATOM     14  C   UNL     1      47.054   1.748   7.313  0.00  0.00    +0.000 A 
ATOM     15  N   UNL     1      46.255   1.136   8.213  0.00  0.00    +0.000 NA
ATOM     16  C   UNL     1      45.357   1.915   8.861  0.00  0.00    +0.000 A 
ENDBRANCH  10  11
ENDBRANCH   8  10
ENDBRANCH   5   8
ENDBRANCH   1   2
BRANCH   1  19
ATOM     17  C   UNL     1      48.657   5.824  16.485  0.00  0.00    +0.000 C 
ATOM     18  O   UNL     1      49.613   5.057  16.528  0.00  0.00    +0.000 OA
ATOM     19  N   UNL     1      47.504   5.491  15.827  0.00  0.00    +0.000 N 
ATOM     20  H   UNL     1      46.708   6.109  15.850  0.00  0.00    +0.000 HD
BRANCH  17  28
ATOM     21  C   UNL     1      47.828   6.940  19.633  0.00  0.00    +0.000 A 
ATOM     22  N   UNL     1      47.599   7.628  20.768  0.00  0.00    +0.000 NA
ATOM     23  C   UNL     1      47.855   8.938  20.769  0.00  0.00    +0.000 A 
ATOM     24  N   UNL     1      48.320   9.665  19.757  0.00  0.00    +0.000 NA
ATOM     25  C   UNL     1      48.545   8.939  18.648  0.00  0.00    +0.000 A 
ATOM     26  S   UNL     1      49.140   9.702  17.252  0.00  0.00    +0.000 S 
ATOM     27  C   UNL     1      49.147   8.235  16.394  0.00  0.00    +0.000 A 
ATOM     28  C   UNL     1      48.701   7.146  17.135  0.00  0.00    +0.000 A 
ATOM     29  C   UNL     1      48.341   7.573  18.486  0.00  0.00    +0.000 A 
BRANCH  21  31
ATOM     30  C   UNL     1      48.690   4.815  20.109  0.00  0.00    +0.000 C 
ATOM     31  O   UNL     1      47.587   5.583  19.637  0.00  0.00    +0.000 OA
ENDBRANCH  21  31
ENDBRANCH  17  28
ENDBRANCH   1  19
TORSDOF 7
ENDMDL
MODEL 9
REMARK VINA RESULT:    -6.786      4.205      8.809
REMARK INTER + INTRA:         -10.761
REMARK INTER:                  -9.860
REMARK INTRA:                  -0.901
REMARK UNBOUND:                -1.199
REMARK  Name = 
REMARK  8 active torsions:
REMARK  status: ('A' for Active; 'I' for Inactive)
REMARK    1  A    between atoms: C_1  and  O_2
REMARK    2  A    between atoms: O_2  and  C_3
REMARK    3  A    between atoms: C_10  and  C_11
REMARK    4  A    between atoms: N_13  and  C_14
REMARK    5  A    between atoms: C_14  and  C_15
REMARK    6  A    between atoms: C_18  and  N_19
REMARK    7  A    between atoms: N_19  and  C_20
REMARK    8  A    between atoms: C_20  and  C_21
REMARK                            x       y       z     vdW  Elec       q    Type
REMARK                         _______ _______ _______ _____ _____    ______ ____
ROOT
ATOM      1  C   UNL     1      47.480   3.544  16.957  0.00  0.00    +0.000 C 
ENDROOT
BRANCH   1   2
ATOM      2  C   UNL     1      48.977   3.490  17.128  0.00  0.00    +0.000 A 
ATOM      3  C   UNL     1      49.718   4.657  17.353  0.00  0.00    +0.000 A 
ATOM      4  C   UNL     1      51.091   4.589  17.628  0.00  0.00    +0.000 A 
ATOM      5  C   UNL     1      51.751   3.359  17.691  0.00  0.00    +0.000 A 
ATOM      6  C   UNL     1      51.034   2.213  17.329  0.00  0.00    +0.000 A 
ATOM      7  C   UNL     1      49.661   2.272  17.065  0.00  0.00    +0.000 A 
BRANCH   5   8
ATOM      8  N   UNL     1      53.091   3.205  18.057  0.00  0.00    +0.000 N 
ATOM      9  H   UNL     1      53.462   4.052  18.483  0.00  0.00    +0.000 HD
BRANCH   8  10
ATOM     10  C   UNL     1      53.488   1.995  18.770  0.00  0.00    +0.000 C 
BRANCH  10  11
ATOM     11  C   UNL     1      54.239   1.071  17.846  0.00  0.00    +0.000 A 
ATOM     12  C   UNL     1      55.006   1.566  16.784  0.00  0.00    +0.000 A 
ATOM     13  C   UNL     1      55.620   0.684  15.898  0.00  0.00    +0.000 A 
ATOM     14  C   UNL     1      55.445  -0.674  16.102  0.00  0.00    +0.000 A 
ATOM     15  N   UNL     1      54.715  -1.192  17.112  0.00  0.00    +0.000 NA
ATOM     16  C   UNL     1      54.128  -0.310  17.956  0.00  0.00    +0.000 A 
ENDBRANCH  10  11
ENDBRANCH   8  10
ENDBRANCH   5   8
ENDBRANCH   1   2
BRANCH   1  19
ATOM     17  C   UNL     1      47.050   4.316  14.662  0.00  0.00    +0.000 C 
ATOM     18  O   UNL     1      47.339   3.218  14.198  0.00  0.00    +0.000 OA
ATOM     19  N   UNL     1      47.091   4.555  16.008  0.00  0.00    +0.000 N 
ATOM     20  H   UNL     1      46.905   5.479  16.366  0.00  0.00    +0.000 HD
BRANCH  17  28
ATOM     21  C   UNL     1      44.342   4.838  12.603  0.00  0.00    +0.000 A 
ATOM     22  N   UNL     1      43.402   5.297  11.755  0.00  0.00    +0.000 NA
ATOM     23  C   UNL     1      43.579   6.508  11.220  0.00  0.00    +0.000 A 
ATOM     24  N   UNL     1      44.599   7.335  11.428  0.00  0.00    +0.000 NA
ATOM     25  C   UNL     1      45.508   6.843  12.288  0.00  0.00    +0.000 A 
ATOM     26  S   UNL     1      46.883   7.763  12.673  0.00  0.00    +0.000 S 
ATOM     27  C   UNL     1      47.462   6.552  13.715  0.00  0.00    +0.000 A 
ATOM     28  C   UNL     1      46.639   5.434  13.793  0.00  0.00    +0.000 A 
ATOM     29  C   UNL     1      45.468   5.612  12.935  0.00  0.00    +0.000 A 
BRANCH  21  31
ATOM     30  C   UNL     1      43.497   2.673  12.310  0.00  0.00    +0.000 C 
ATOM     31  O   UNL     1      44.149   3.598  13.174  0.00  0.00    +0.000 OA
ENDBRANCH  21  31
ENDBRANCH  17  28
ENDBRANCH   1  19
TORSDOF 7
ENDMDL
