MODEL 1
REMARK VINA RESULT:    -8.668      0.000      0.000
REMARK INTER + INTRA:         -13.446
REMARK INTER:                 -12.215
REMARK INTRA:                  -1.232
REMARK UNBOUND:                -1.232
REMARK  Name = 
REMARK  8 active torsions:
REMARK  status: ('A' for Active; 'I' for Inactive)
REMARK    1  A    between atoms: C_1  and  C_2
REMARK    2  A    between atoms: C_2  and  N_3
REMARK    3  A    between atoms: C_2  and  C_25
REMARK    4  A    between atoms: N_3  and  C_4
REMARK    5  A    between atoms: C_4  and  C_5
REMARK    6  A    between atoms: C_8  and  C_9
REMARK    7  A    between atoms: C_9  and  N_10
REMARK    8  A    between atoms: C_11  and  C_13
REMARK                            x       y       z     vdW  Elec       q    Type
REMARK                         _______ _______ _______ _____ _____    ______ ____
ROOT
ATOM      1  C   UNL     1      44.536   5.660  11.023  0.00  0.00    +0.000 A 
ATOM      2  C   UNL     1      45.860   5.840  10.616  0.00  0.00    +0.000 A 
ATOM      3  C   UNL     1      46.709   6.661  11.354  0.00  0.00    +0.000 A 
ATOM      4  C   UNL     1      46.206   7.306  12.479  0.00  0.00    +0.000 A 
ATOM      5  N   UNL     1      44.935   7.127  12.914  0.00  0.00    +0.000 NA
ATOM      6  C   UNL     1      44.139   6.314  12.185  0.00  0.00    +0.000 A 
ENDROOT
BRANCH   1   7
ATOM      7  C   UNL     1      43.586   4.779  10.255  0.00  0.00    +0.000 C 
BRANCH   7   8
ATOM      8  N   UNL     1      44.143   4.378   8.964  0.00  0.00    +0.000 NA
ATOM      9  H   UNL     1      43.494   4.639   8.223  0.00  0.00    +0.000 HD
BRANCH   8  11
ATOM     10  C   UNL     1      44.506   2.235  10.201  0.00  0.00    +0.000 C 
ATOM     11  C   UNL     1      44.383   2.930   8.841  0.00  0.00    +0.000 C 
BRANCH  11  12
ATOM     12  C   UNL     1      45.637   2.647   8.014  0.00  0.00    +0.000 A 
ATOM     13  C   UNL     1      46.144   3.643   7.160  0.00  0.00    +0.000 A 
ATOM     14  C   UNL     1      47.261   3.401   6.358  0.00  0.00    +0.000 A 
ATOM     15  C   UNL     1      47.896   2.162   6.398  0.00  0.00    +0.000 A 
ATOM     16  C   UNL     1      47.412   1.164   7.241  0.00  0.00    +0.000 A 
ATOM     17  C   UNL     1      46.286   1.401   8.035  0.00  0.00    +0.000 A 
ENDBRANCH  11  12
ENDBRANCH   8  11
ENDBRANCH   7   8
ENDBRANCH   1   7
BRANCH   4  18
ATOM     18  C   UNL     1      47.083   8.234  13.280  0.00  0.00    +0.000 C 
BRANCH  18  19
ATOM     19  N   UNL     1      47.497   7.647  14.531  0.00  0.00    +0.000 N 
ATOM     20  C   UNL     1      48.608   6.857  14.644  0.00  0.00    +0.000 C 
ATOM     21  O   UNL     1      49.326   6.590  13.684  0.00  0.00    +0.000 OA
ATOM     22  H   UNL     1      46.788   7.628  15.257  0.00  0.00    +0.000 HD
BRANCH  20  23
ATOM     23  C   UNL     1      48.937   6.403  16.000  0.00  0.00    +0.000 A 
ATOM     24  C   UNL     1      49.773   7.172  16.798  0.00  0.00    +0.000 A 
ATOM     25  S   UNL     1      50.015   6.524  18.357  0.00  0.00    +0.000 S 
ATOM     26  C   UNL     1      49.046   5.170  18.005  0.00  0.00    +0.000 A 
ATOM     27  N   UNL     1      48.859   4.186  18.924  0.00  0.00    +0.000 NA
ATOM     28  C   UNL     1      48.122   3.207  18.516  0.00  0.00    +0.000 A 
ATOM     29  N   UNL     1      47.547   3.129  17.276  0.00  0.00    +0.000 N 
ATOM     30  C   UNL     1      47.664   4.120  16.332  0.00  0.00    +0.000 A 
ATOM     31  O   UNL     1      47.063   4.063  15.266  0.00  0.00    +0.000 OA
ATOM     32  C   UNL     1      48.517   5.228  16.726  0.00  0.00    +0.000 A 
ATOM     33  H   UNL     1      46.958   2.345  17.023  0.00  0.00    +0.000 HD
ENDBRANCH  20  23
ENDBRANCH  18  19
ENDBRANCH   4  18
TORSDOF 7
ENDMDL
MODEL 2
REMARK VINA RESULT:    -8.203      1.393      1.800
REMARK INTER + INTRA:         -12.792
REMARK INTER:                 -11.737
REMARK INTRA:                  -1.055
REMARK UNBOUND:                -1.232
REMARK  Name = 
REMARK  8 active torsions:
REMARK  status: ('A' for Active; 'I' for Inactive)
REMARK    1  A    between atoms: C_1  and  C_2
REMARK    2  A    between atoms: C_2  and  N_3
REMARK    3  A    between atoms: C_2  and  C_25
REMARK    4  A    between atoms: N_3  and  C_4
REMARK    5  A    between atoms: C_4  and  C_5
REMARK    6  A    between atoms: C_8  and  C_9
REMARK    7  A    between atoms: C_9  and  N_10
REMARK    8  A    between atoms: C_11  and  C_13
REMARK                            x       y       z     vdW  Elec       q    Type
REMARK                         _______ _______ _______ _____ _____    ______ ____
ROOT
ATOM      1  C   UNL     1      44.942   5.620  11.457  0.00  0.00    +0.000 A 
ATOM      2  C   UNL     1      45.958   6.261  10.744  0.00  0.00    +0.000 A 
ATOM      3  C   UNL     1      47.074   6.755  11.417  0.00  0.00    +0.000 A 
ATOM      4  C   UNL     1      47.139   6.614  12.799  0.00  0.00    +0.000 A 
ATOM      5  N   UNL     1      46.182   5.971  13.513  0.00  0.00    +0.000 NA
ATOM      6  C   UNL     1      45.119   5.491  12.831  0.00  0.00    +0.000 A 
ENDROOT
BRANCH   1   7
ATOM      7  C   UNL     1      43.721   5.069  10.768  0.00  0.00    +0.000 C 
BRANCH   7   8
ATOM      8  N   UNL     1      44.024   4.612   9.412  0.00  0.00    +0.000 NA
ATOM      9  H   UNL     1      43.273   4.900   8.786  0.00  0.00    +0.000 HD
BRANCH   8  11
ATOM     10  C   UNL     1      44.279   2.454  10.650  0.00  0.00    +0.000 C 
ATOM     11  C   UNL     1      44.156   3.151   9.290  0.00  0.00    +0.000 C 
BRANCH  11  12
ATOM     12  C   UNL     1      45.355   2.776   8.420  0.00  0.00    +0.000 A 
ATOM     13  C   UNL     1      45.809   1.445   8.404  0.00  0.00    +0.000 A 
ATOM     14  C   UNL     1      46.928   1.077   7.654  0.00  0.00    +0.000 A 
ATOM     15  C   UNL     1      47.610   2.030   6.902  0.00  0.00    +0.000 A 
ATOM     16  C   UNL     1      47.173   3.353   6.901  0.00  0.00    +0.000 A 
ATOM     17  C   UNL     1      46.060   3.725   7.662  0.00  0.00    +0.000 A 
ENDBRANCH  11  12
ENDBRANCH   8  11
ENDBRANCH   7   8
ENDBRANCH   1   7
BRANCH   4  18
ATOM     18  C   UNL     1      48.311   7.171  13.566  0.00  0.00    +0.000 C 
BRANCH  18  19
ATOM     19  N   UNL     1      48.114   7.093  14.993  0.00  0.00    +0.000 N 
ATOM     20  C   UNL     1      49.129   6.807  15.864  0.00  0.00    +0.000 C 
ATOM     21  O   UNL     1      50.279   6.593  15.488  0.00  0.00    +0.000 OA
ATOM     22  H   UNL     1      47.149   6.996  15.293  0.00  0.00    +0.000 HD
BRANCH  20  23
ATOM     23  C   UNL     1      48.781   6.844  17.289  0.00  0.00    +0.000 A 
ATOM     24  C   UNL     1      48.333   8.030  17.857  0.00  0.00    +0.000 A 
ATOM     25  S   UNL     1      47.931   7.886  19.508  0.00  0.00    +0.000 S 
ATOM     26  C   UNL     1      48.382   6.245  19.533  0.00  0.00    +0.000 A 
ATOM     27  N   UNL     1      48.311   5.518  20.679  0.00  0.00    +0.000 NA
ATOM     28  C   UNL     1      48.708   4.295  20.561  0.00  0.00    +0.000 A 
ATOM     29  N   UNL     1      49.159   3.731  19.398  0.00  0.00    +0.000 N 
ATOM     30  C   UNL     1      49.203   4.409  18.204  0.00  0.00    +0.000 A 
ATOM     31  O   UNL     1      49.525   3.851  17.162  0.00  0.00    +0.000 OA
ATOM     32  C   UNL     1      48.804   5.803  18.290  0.00  0.00    +0.000 A 
ATOM     33  H   UNL     1      49.434   2.757  19.363  0.00  0.00    +0.000 HD
ENDBRANCH  20  23
ENDBRANCH  18  19
ENDBRANCH   4  18
TORSDOF 7
ENDMDL
MODEL 3
REMARK VINA RESULT:    -8.075      2.276      2.816
REMARK INTER + INTRA:         -12.610
REMARK INTER:                 -11.473
REMARK INTRA:                  -1.138
REMARK UNBOUND:                -1.232
REMARK  Name = 
REMARK  8 active torsions:
REMARK  status: ('A' for Active; 'I' for Inactive)
REMARK    1  A    between atoms: C_1  and  C_2
REMARK    2  A    between atoms: C_2  and  N_3
REMARK    3  A    between atoms: C_2  and  C_25
REMARK    4  A    between atoms: N_3  and  C_4
REMARK    5  A    between atoms: C_4  and  C_5
REMARK    6  A    between atoms: C_8  and  C_9
REMARK    7  A    between atoms: C_9  and  N_10
REMARK    8  A    between atoms: C_11  and  C_13
REMARK                            x       y       z     vdW  Elec       q    Type
REMARK                         _______ _______ _______ _____ _____    ______ ____
ROOT
ATOM      1  C   UNL     1      45.493   5.613  11.732  0.00  0.00    +0.000 A 
ATOM      2  C   UNL     1      46.234   6.732  11.344  0.00  0.00    +0.000 A 
ATOM      3  C   UNL     1      47.293   7.172  12.135  0.00  0.00    +0.000 A 
ATOM      4  C   UNL     1      47.576   6.492  13.315  0.00  0.00    +0.000 A 
ATOM      5  N   UNL     1      46.893   5.386  13.700  0.00  0.00    +0.000 NA
ATOM      6  C   UNL     1      45.881   4.975  12.906  0.00  0.00    +0.000 A 
ENDROOT
BRANCH   1   7
ATOM      7  C   UNL     1      44.343   5.102  10.904  0.00  0.00    +0.000 C 
BRANCH   7   8
ATOM      8  N   UNL     1      44.753   4.805   9.532  0.00  0.00    +0.000 NA
ATOM      9  H   UNL     1      44.283   5.447   8.895  0.00  0.00    +0.000 HD
BRANCH   8  11
ATOM     10  C   UNL     1      44.171   2.487  10.268  0.00  0.00    +0.000 C 
ATOM     11  C   UNL     1      44.425   3.439   9.093  0.00  0.00    +0.000 C 
BRANCH  11  12
ATOM     12  C   UNL     1      45.528   2.863   8.206  0.00  0.00    +0.000 A 
ATOM     13  C   UNL     1      46.062   3.647   7.168  0.00  0.00    +0.000 A 
ATOM     14  C   UNL     1      47.039   3.136   6.311  0.00  0.00    +0.000 A 
ATOM     15  C   UNL     1      47.506   1.835   6.479  0.00  0.00    +0.000 A 
ATOM     16  C   UNL     1      46.993   1.044   7.505  0.00  0.00    +0.000 A 
ATOM     17  C   UNL     1      46.005   1.550   8.355  0.00  0.00    +0.000 A 
ENDBRANCH  11  12
ENDBRANCH   8  11
ENDBRANCH   7   8
ENDBRANCH   1   7
BRANCH   4  18
ATOM     18  C   UNL     1      48.688   6.962  14.217  0.00  0.00    +0.000 C 
BRANCH  18  19
ATOM     19  N   UNL     1      48.369   6.786  15.612  0.00  0.00    +0.000 N 
ATOM     20  C   UNL     1      49.267   6.298  16.520  0.00  0.00    +0.000 C 
ATOM     21  O   UNL     1      50.410   5.972  16.206  0.00  0.00    +0.000 OA
ATOM     22  H   UNL     1      47.378   6.788  15.834  0.00  0.00    +0.000 HD
BRANCH  20  23
ATOM     23  C   UNL     1      48.813   6.255  17.914  0.00  0.00    +0.000 A 
ATOM     24  C   UNL     1      48.893   5.067  18.628  0.00  0.00    +0.000 A 
ATOM     25  S   UNL     1      48.366   5.204  20.244  0.00  0.00    +0.000 S 
ATOM     26  C   UNL     1      47.970   6.846  20.034  0.00  0.00    +0.000 A 
ATOM     27  N   UNL     1      47.427   7.569  21.049  0.00  0.00    +0.000 NA
ATOM     28  C   UNL     1      47.153   8.794  20.745  0.00  0.00    +0.000 A 
ATOM     29  N   UNL     1      47.382   9.363  19.521  0.00  0.00    +0.000 N 
ATOM     30  C   UNL     1      47.974   8.689  18.480  0.00  0.00    +0.000 A 
ATOM     31  O   UNL     1      48.249   9.250  17.427  0.00  0.00    +0.000 OA
ATOM     32  C   UNL     1      48.267   7.293  18.757  0.00  0.00    +0.000 A 
ATOM     33  H   UNL     1      47.168  10.338  19.350  0.00  0.00    +0.000 HD
ENDBRANCH  20  23
ENDBRANCH  18  19
ENDBRANCH   4  18
TORSDOF 7
ENDMDL
MODEL 4
REMARK VINA RESULT:    -7.947      2.743      3.427
REMARK INTER + INTRA:         -12.430
REMARK INTER:                 -11.463
REMARK INTRA:                  -0.967
REMARK UNBOUND:                -1.232
REMARK  Name = 
REMARK  8 active torsions:
REMARK  status: ('A' for Active; 'I' for Inactive)
REMARK    1  A    between atoms: C_1  and  C_2
REMARK    2  A    between atoms: C_2  and  N_3
REMARK    3  A    between atoms: C_2  and  C_25
REMARK    4  A    between atoms: N_3  and  C_4
REMARK    5  A    between atoms: C_4  and  C_5
REMARK    6  A    between atoms: C_8  and  C_9
REMARK    7  A    between atoms: C_9  and  N_10
REMARK    8  A    between atoms: C_11  and  C_13
REMARK                            x       y       z     vdW  Elec       q    Type
REMARK                         _______ _______ _______ _____ _____    ______ ____
ROOT
ATOM      1  C   UNL     1      46.490   5.073  13.356  0.00  0.00    +0.000 A 
ATOM      2  C   UNL     1      46.961   6.327  12.958  0.00  0.00    +0.000 A 
ATOM      3  C   UNL     1      47.890   7.002  13.746  0.00  0.00    +0.000 A 
ATOM      4  C   UNL     1      48.315   6.415  14.933  0.00  0.00    +0.000 A 
ATOM      5  N   UNL     1      47.897   5.187  15.330  0.00  0.00    +0.000 NA
ATOM      6  C   UNL     1      47.007   4.551  14.538  0.00  0.00    +0.000 A 
ENDROOT
BRANCH   1   7
ATOM      7  C   UNL     1      45.488   4.308  12.532  0.00  0.00    +0.000 C 
BRANCH   7   8
ATOM      8  N   UNL     1      45.184   4.994  11.276  0.00  0.00    +0.000 NA
ATOM      9  H   UNL     1      44.693   5.864  11.480  0.00  0.00    +0.000 HD
BRANCH   8  11
ATOM     10  C   UNL     1      43.548   3.112  11.084  0.00  0.00    +0.000 C 
ATOM     11  C   UNL     1      44.329   4.218  10.363  0.00  0.00    +0.000 C 
BRANCH  11  12
ATOM     12  C   UNL     1      45.148   3.601   9.230  0.00  0.00    +0.000 A 
ATOM     13  C   UNL     1      45.344   2.209   9.195  0.00  0.00    +0.000 A 
ATOM     14  C   UNL     1      46.125   1.618   8.199  0.00  0.00    +0.000 A 
ATOM     15  C   UNL     1      46.718   2.406   7.216  0.00  0.00    +0.000 A 
ATOM     16  C   UNL     1      46.532   3.787   7.231  0.00  0.00    +0.000 A 
ATOM     17  C   UNL     1      45.762   4.381   8.235  0.00  0.00    +0.000 A 
ENDBRANCH  11  12
ENDBRANCH   8  11
ENDBRANCH   7   8
ENDBRANCH   1   7
BRANCH   4  18
ATOM     18  C   UNL     1      49.289   7.132  15.833  0.00  0.00    +0.000 C 
BRANCH  18  19
ATOM     19  N   UNL     1      50.314   6.253  16.337  0.00  0.00    +0.000 N 
ATOM     20  C   UNL     1      50.418   5.920  17.659  0.00  0.00    +0.000 C 
ATOM     21  O   UNL     1      49.644   6.353  18.509  0.00  0.00    +0.000 OA
ATOM     22  H   UNL     1      51.106   6.109  15.716  0.00  0.00    +0.000 HD
BRANCH  20  23
ATOM     23  C   UNL     1      51.468   4.952  17.997  0.00  0.00    +0.000 A 
ATOM     24  C   UNL     1      52.653   5.394  18.570  0.00  0.00    +0.000 A 
ATOM     25  S   UNL     1      53.742   4.136  18.941  0.00  0.00    +0.000 S 
ATOM     26  C   UNL     1      52.688   2.961  18.307  0.00  0.00    +0.000 A 
ATOM     27  N   UNL     1      53.037   1.647  18.288  0.00  0.00    +0.000 NA
ATOM     28  C   UNL     1      52.154   0.868  17.757  0.00  0.00    +0.000 A 
ATOM     29  N   UNL     1      50.949   1.283  17.255  0.00  0.00    +0.000 N 
ATOM     30  C   UNL     1      50.530   2.591  17.298  0.00  0.00    +0.000 A 
ATOM     31  O   UNL     1      49.411   2.917  16.924  0.00  0.00    +0.000 OA
ATOM     32  C   UNL     1      51.504   3.516  17.850  0.00  0.00    +0.000 A 
ATOM     33  H   UNL     1      50.287   0.619  16.873  0.00  0.00    +0.000 HD
ENDBRANCH  20  23
ENDBRANCH  18  19
ENDBRANCH   4  18
TORSDOF 7
ENDMDL
MODEL 5
REMARK VINA RESULT:    -7.697      1.661      2.008
REMARK INTER + INTRA:         -12.078
REMARK INTER:                 -10.913
REMARK INTRA:                  -1.165
REMARK UNBOUND:                -1.232
REMARK  Name = 
REMARK  8 active torsions:
REMARK  status: ('A' for Active; 'I' for Inactive)
REMARK    1  A    between atoms: C_1  and  C_2
REMARK    2  A    between atoms: C_2  and  N_3
REMARK    3  A    between atoms: C_2  and  C_25
REMARK    4  A    between atoms: N_3  and  C_4
REMARK    5  A    between atoms: C_4  and  C_5
REMARK    6  A    between atoms: C_8  and  C_9
REMARK    7  A    between atoms: C_9  and  N_10
REMARK    8  A    between atoms: C_11  and  C_13
REMARK                            x       y       z     vdW  Elec       q    Type
REMARK                         _______ _______ _______ _____ _____    ______ ____
ROOT
ATOM      1  C   UNL     1      45.352   6.425  11.997  0.00  0.00    +0.000 A 
ATOM      2  C   UNL     1      46.488   5.721  12.403  0.00  0.00    +0.000 A 
ATOM      3  C   UNL     1      47.461   6.355  13.173  0.00  0.00    +0.000 A 
ATOM      4  C   UNL     1      47.284   7.695  13.504  0.00  0.00    +0.000 A 
ATOM      5  N   UNL     1      46.178   8.394  13.149  0.00  0.00    +0.000 NA
ATOM      6  C   UNL     1      45.246   7.748  12.414  0.00  0.00    +0.000 A 
ENDROOT
BRANCH   1   7
ATOM      7  C   UNL     1      44.276   5.775  11.166  0.00  0.00    +0.000 C 
BRANCH   7   8
ATOM      8  N   UNL     1      44.796   5.294   9.887  0.00  0.00    +0.000 NA
ATOM      9  H   UNL     1      44.510   5.933   9.147  0.00  0.00    +0.000 HD
BRANCH   8  11
ATOM     10  C   UNL     1      43.986   3.084  10.732  0.00  0.00    +0.000 C 
ATOM     11  C   UNL     1      44.315   3.954   9.513  0.00  0.00    +0.000 C 
BRANCH  11  12
ATOM     12  C   UNL     1      45.332   3.227   8.633  0.00  0.00    +0.000 A 
ATOM     13  C   UNL     1      45.496   1.837   8.768  0.00  0.00    +0.000 A 
ATOM     14  C   UNL     1      46.448   1.150   8.011  0.00  0.00    +0.000 A 
ATOM     15  C   UNL     1      47.248   1.837   7.102  0.00  0.00    +0.000 A 
ATOM     16  C   UNL     1      47.097   3.214   6.951  0.00  0.00    +0.000 A 
ATOM     17  C   UNL     1      46.154   3.905   7.717  0.00  0.00    +0.000 A 
ENDBRANCH  11  12
ENDBRANCH   8  11
ENDBRANCH   7   8
ENDBRANCH   1   7
BRANCH   4  18
ATOM     18  C   UNL     1      48.333   8.426  14.302  0.00  0.00    +0.000 C 
BRANCH  18  19
ATOM     19  N   UNL     1      49.266   7.525  14.932  0.00  0.00    +0.000 N 
ATOM     20  C   UNL     1      49.265   7.283  16.278  0.00  0.00    +0.000 C 
ATOM     21  O   UNL     1      48.469   7.822  17.043  0.00  0.00    +0.000 OA
ATOM     22  H   UNL     1      50.083   7.290  14.377  0.00  0.00    +0.000 HD
BRANCH  20  23
ATOM     23  C   UNL     1      50.226   6.280  16.750  0.00  0.00    +0.000 A 
ATOM     24  C   UNL     1      51.535   6.656  17.021  0.00  0.00    +0.000 A 
ATOM     25  S   UNL     1      52.504   5.380  17.603  0.00  0.00    +0.000 S 
ATOM     26  C   UNL     1      51.221   4.270  17.471  0.00  0.00    +0.000 A 
ATOM     27  N   UNL     1      51.395   2.960  17.789  0.00  0.00    +0.000 NA
ATOM     28  C   UNL     1      50.346   2.225  17.618  0.00  0.00    +0.000 A 
ATOM     29  N   UNL     1      49.137   2.685  17.169  0.00  0.00    +0.000 N 
ATOM     30  C   UNL     1      48.898   4.008  16.883  0.00  0.00    +0.000 A 
ATOM     31  O   UNL     1      47.782   4.404  16.570  0.00  0.00    +0.000 OA
ATOM     32  C   UNL     1      50.058   4.871  17.021  0.00  0.00    +0.000 A 
ATOM     33  H   UNL     1      48.344   2.063  17.079  0.00  0.00    +0.000 HD
ENDBRANCH  20  23
ENDBRANCH  18  19
ENDBRANCH   4  18
TORSDOF 7
ENDMDL
MODEL 6
REMARK VINA RESULT:    -7.274      2.965      8.551
REMARK INTER + INTRA:         -11.482
REMARK INTER:                  -9.672
REMARK INTRA:                  -1.811
REMARK UNBOUND:                -1.232
REMARK  Name = 
REMARK  8 active torsions:
REMARK  status: ('A' for Active; 'I' for Inactive)
REMARK    1  A    between atoms: C_1  and  C_2
REMARK    2  A    between atoms: C_2  and  N_3
REMARK    3  A    between atoms: C_2  and  C_25
REMARK    4  A    between atoms: N_3  and  C_4
REMARK    5  A    between atoms: C_4  and  C_5
REMARK    6  A    between atoms: C_8  and  C_9
REMARK    7  A    between atoms: C_9  and  N_10
REMARK    8  A    between atoms: C_11  and  C_13
REMARK                            x       y       z     vdW  Elec       q    Type
REMARK                         _______ _______ _______ _____ _____    ______ ____
ROOT
ATOM      1  C   UNL     1      48.802   8.006  16.119  0.00  0.00    +0.000 A 
ATOM      2  C   UNL     1      48.848   6.777  15.457  0.00  0.00    +0.000 A 
ATOM      3  C   UNL     1      48.378   6.673  14.150  0.00  0.00    +0.000 A 
ATOM      4  C   UNL     1      47.848   7.803  13.537  0.00  0.00    +0.000 A 
ATOM      5  N   UNL     1      47.817   9.015  14.144  0.00  0.00    +0.000 NA
ATOM      6  C   UNL     1      48.294   9.088  15.406  0.00  0.00    +0.000 A 
ENDROOT
BRANCH   1   7
ATOM      7  C   UNL     1      49.303   8.163  17.531  0.00  0.00    +0.000 C 
BRANCH   7   8
ATOM      8  N   UNL     1      48.377   7.580  18.502  0.00  0.00    +0.000 NA
ATOM      9  H   UNL     1      48.129   8.286  19.194  0.00  0.00    +0.000 HD
BRANCH   8  11
ATOM     10  C   UNL     1      50.424   6.577  19.530  0.00  0.00    +0.000 C 
ATOM     11  C   UNL     1      48.927   6.428  19.234  0.00  0.00    +0.000 C 
BRANCH  11  12
ATOM     12  C   UNL     1      48.690   5.124  18.472  0.00  0.00    +0.000 A 
ATOM     13  C   UNL     1      49.788   4.322  18.114  0.00  0.00    +0.000 A 
ATOM     14  C   UNL     1      49.610   3.148  17.379  0.00  0.00    +0.000 A 
ATOM     15  C   UNL     1      48.332   2.750  16.994  0.00  0.00    +0.000 A 
ATOM     16  C   UNL     1      47.231   3.529  17.344  0.00  0.00    +0.000 A 
ATOM     17  C   UNL     1      47.409   4.712  18.068  0.00  0.00    +0.000 A 
ENDBRANCH  11  12
ENDBRANCH   8  11
ENDBRANCH   7   8
ENDBRANCH   1   7
BRANCH   4  18
ATOM     18  C   UNL     1      47.292   7.721  12.139  0.00  0.00    +0.000 C 
BRANCH  18  19
ATOM     19  N   UNL     1      46.613   6.473  11.895  0.00  0.00    +0.000 N 
ATOM     20  C   UNL     1      45.256   6.386  11.746  0.00  0.00    +0.000 C 
ATOM     21  O   UNL     1      44.523   7.370  11.813  0.00  0.00    +0.000 OA
ATOM     22  H   UNL     1      47.152   5.637  12.104  0.00  0.00    +0.000 HD
BRANCH  20  23
ATOM     23  C   UNL     1      44.729   5.056  11.423  0.00  0.00    +0.000 A 
ATOM     24  C   UNL     1      43.950   4.381  12.354  0.00  0.00    +0.000 A 
ATOM     25  S   UNL     1      43.383   2.871  11.802  0.00  0.00    +0.000 S 
ATOM     26  C   UNL     1      44.195   3.046  10.316  0.00  0.00    +0.000 A 
ATOM     27  N   UNL     1      44.146   2.067   9.374  0.00  0.00    +0.000 NA
ATOM     28  C   UNL     1      44.828   2.320   8.306  0.00  0.00    +0.000 A 
ATOM     29  N   UNL     1      45.543   3.468   8.092  0.00  0.00    +0.000 N 
ATOM     30  C   UNL     1      45.581   4.506   8.991  0.00  0.00    +0.000 A 
ATOM     31  O   UNL     1      46.155   5.556   8.732  0.00  0.00    +0.000 OA
ATOM     32  C   UNL     1      44.863   4.255  10.228  0.00  0.00    +0.000 A 
ATOM     33  H   UNL     1      46.037   3.619   7.221  0.00  0.00    +0.000 HD
ENDBRANCH  20  23
ENDBRANCH  18  19
ENDBRANCH   4  18
TORSDOF 7
ENDMDL
MODEL 7
REMARK VINA RESULT:    -7.048      3.338      5.885
REMARK INTER + INTRA:         -11.164
REMARK INTER:                  -9.719
REMARK INTRA:                  -1.445
REMARK UNBOUND:                -1.232
REMARK  Name = 
REMARK  8 active torsions:
REMARK  status: ('A' for Active; 'I' for Inactive)
REMARK    1  A    between atoms: C_1  and  C_2
REMARK    2  A    between atoms: C_2  and  N_3
REMARK    3  A    between atoms: C_2  and  C_25
REMARK    4  A    between atoms: N_3  and  C_4
REMARK    5  A    between atoms: C_4  and  C_5
REMARK    6  A    between atoms: C_8  and  C_9
REMARK    7  A    between atoms: C_9  and  N_10
REMARK    8  A    between atoms: C_11  and  C_13
REMARK                            x       y       z     vdW  Elec       q    Type
REMARK                         _______ _______ _______ _____ _____    ______ ____
ROOT
ATOM      1  C   UNL     1      47.761   5.952  14.545  0.00  0.00    +0.000 A 
ATOM      2  C   UNL     1      47.102   4.724  14.451  0.00  0.00    +0.000 A 
ATOM      3  C   UNL     1      47.188   3.807  15.496  0.00  0.00    +0.000 A 
ATOM      4  C   UNL     1      47.955   4.131  16.611  0.00  0.00    +0.000 A 
ATOM      5  N   UNL     1      48.581   5.327  16.741  0.00  0.00    +0.000 NA
ATOM      6  C   UNL     1      48.467   6.201  15.718  0.00  0.00    +0.000 A 
ENDROOT
BRANCH   1   7
ATOM      7  C   UNL     1      47.691   6.972  13.439  0.00  0.00    +0.000 C 
BRANCH   7   8
ATOM      8  N   UNL     1      46.348   7.536  13.308  0.00  0.00    +0.000 NA
ATOM      9  H   UNL     1      45.732   7.095  13.989  0.00  0.00    +0.000 HD
BRANCH   8  11
ATOM     10  C   UNL     1      44.819   8.489  11.573  0.00  0.00    +0.000 C 
ATOM     11  C   UNL     1      45.743   7.335  11.981  0.00  0.00    +0.000 C 
BRANCH  11  12
ATOM     12  C   UNL     1      44.967   6.020  11.921  0.00  0.00    +0.000 A 
ATOM     13  C   UNL     1      45.153   5.155  10.829  0.00  0.00    +0.000 A 
ATOM     14  C   UNL     1      44.427   3.967  10.721  0.00  0.00    +0.000 A 
ATOM     15  C   UNL     1      43.506   3.619  11.706  0.00  0.00    +0.000 A 
ATOM     16  C   UNL     1      43.310   4.461  12.799  0.00  0.00    +0.000 A 
ATOM     17  C   UNL     1      44.027   5.657  12.900  0.00  0.00    +0.000 A 
ENDBRANCH  11  12
ENDBRANCH   8  11
ENDBRANCH   7   8
ENDBRANCH   1   7
BRANCH   4  18
ATOM     18  C   UNL     1      48.105   3.150  17.744  0.00  0.00    +0.000 C 
BRANCH  18  19
ATOM     19  N   UNL     1      49.487   2.845  18.022  0.00  0.00    +0.000 N 
ATOM     20  C   UNL     1      50.265   2.104  17.176  0.00  0.00    +0.000 C 
ATOM     21  O   UNL     1      49.836   1.644  16.121  0.00  0.00    +0.000 OA
ATOM     22  H   UNL     1      49.774   2.977  18.987  0.00  0.00    +0.000 HD
BRANCH  20  23
ATOM     23  C   UNL     1      51.671   1.952  17.565  0.00  0.00    +0.000 A 
ATOM     24  C   UNL     1      52.198   0.682  17.757  0.00  0.00    +0.000 A 
ATOM     25  S   UNL     1      53.855   0.684  18.160  0.00  0.00    +0.000 S 
ATOM     26  C   UNL     1      53.916   2.384  18.136  0.00  0.00    +0.000 A 
ATOM     27  N   UNL     1      55.066   3.046  18.433  0.00  0.00    +0.000 NA
ATOM     28  C   UNL     1      54.963   4.334  18.402  0.00  0.00    +0.000 A 
ATOM     29  N   UNL     1      53.819   5.017  18.089  0.00  0.00    +0.000 N 
ATOM     30  C   UNL     1      52.647   4.394  17.734  0.00  0.00    +0.000 A 
ATOM     31  O   UNL     1      51.667   5.032  17.372  0.00  0.00    +0.000 OA
ATOM     32  C   UNL     1      52.697   2.943  17.792  0.00  0.00    +0.000 A 
ATOM     33  H   UNL     1      53.808   6.029  18.057  0.00  0.00    +0.000 HD
ENDBRANCH  20  23
ENDBRANCH  18  19
ENDBRANCH   4  18
TORSDOF 7
ENDMDL
MODEL 8
REMARK VINA RESULT:    -6.573      3.476      5.492
REMARK INTER + INTRA:         -10.494
REMARK INTER:                  -9.066
REMARK INTRA:                  -1.428
REMARK UNBOUND:                -1.232
REMARK  Name = 
REMARK  8 active torsions:
REMARK  status: ('A' for Active; 'I' for Inactive)
REMARK    1  A    between atoms: C_1  and  C_2
REMARK    2  A    between atoms: C_2  and  N_3
REMARK    3  A    between atoms: C_2  and  C_25
REMARK    4  A    between atoms: N_3  and  C_4
REMARK    5  A    between atoms: C_4  and  C_5
REMARK    6  A    between atoms: C_8  and  C_9
REMARK    7  A    between atoms: C_9  and  N_10
REMARK    8  A    between atoms: C_11  and  C_13
REMARK                            x       y       z     vdW  Elec       q    Type
REMARK                         _______ _______ _______ _____ _____    ______ ____
ROOT
ATOM      1  C   UNL     1      47.568   6.087  13.689  0.00  0.00    +0.000 A 
ATOM      2  C   UNL     1      46.900   4.898  13.992  0.00  0.00    +0.000 A 
ATOM      3  C   UNL     1      47.174   4.231  15.185  0.00  0.00    +0.000 A 
ATOM      4  C   UNL     1      48.132   4.761  16.043  0.00  0.00    +0.000 A 
ATOM      5  N   UNL     1      48.773   5.928  15.788  0.00  0.00    +0.000 NA
ATOM      6  C   UNL     1      48.476   6.559  14.631  0.00  0.00    +0.000 A 
ENDROOT
BRANCH   1   7
ATOM      7  C   UNL     1      47.299   6.839  12.412  0.00  0.00    +0.000 C 
BRANCH   7   8
ATOM      8  N   UNL     1      46.046   7.592  12.481  0.00  0.00    +0.000 NA
ATOM      9  H   UNL     1      45.561   7.355  13.346  0.00  0.00    +0.000 HD
BRANCH   8  11
ATOM     10  C   UNL     1      44.000   8.353  11.262  0.00  0.00    +0.000 C 
ATOM     11  C   UNL     1      45.120   7.311  11.372  0.00  0.00    +0.000 C 
BRANCH  11  12
ATOM     12  C   UNL     1      44.504   5.919  11.506  0.00  0.00    +0.000 A 
ATOM     13  C   UNL     1      43.700   5.622  12.620  0.00  0.00    +0.000 A 
ATOM     14  C   UNL     1      43.158   4.346  12.795  0.00  0.00    +0.000 A 
ATOM     15  C   UNL     1      43.404   3.347  11.857  0.00  0.00    +0.000 A 
ATOM     16  C   UNL     1      44.195   3.624  10.743  0.00  0.00    +0.000 A 
ATOM     17  C   UNL     1      44.748   4.896  10.574  0.00  0.00    +0.000 A 
ENDBRANCH  11  12
ENDBRANCH   8  11
ENDBRANCH   7   8
ENDBRANCH   1   7
BRANCH   4  18
ATOM     18  C   UNL     1      48.484   4.049  17.324  0.00  0.00    +0.000 C 
BRANCH  18  19
ATOM     19  N   UNL     1      49.893   3.754  17.413  0.00  0.00    +0.000 N 
ATOM     20  C   UNL     1      50.672   4.178  18.454  0.00  0.00    +0.000 C 
ATOM     21  O   UNL     1      50.223   4.843  19.384  0.00  0.00    +0.000 OA
ATOM     22  H   UNL     1      50.329   3.453  16.546  0.00  0.00    +0.000 HD
BRANCH  20  23
ATOM     23  C   UNL     1      52.069   3.727  18.436  0.00  0.00    +0.000 A 
ATOM     24  C   UNL     1      53.073   4.581  18.872  0.00  0.00    +0.000 A 
ATOM     25  S   UNL     1      54.628   3.884  18.827  0.00  0.00    +0.000 S 
ATOM     26  C   UNL     1      54.020   2.432  18.182  0.00  0.00    +0.000 A 
ATOM     27  N   UNL     1      54.853   1.403  17.872  0.00  0.00    +0.000 NA
ATOM     28  C   UNL     1      54.261   0.371  17.367  0.00  0.00    +0.000 A 
ATOM     29  N   UNL     1      52.912   0.273  17.154  0.00  0.00    +0.000 N 
ATOM     30  C   UNL     1      52.025   1.265  17.497  0.00  0.00    +0.000 A 
ATOM     31  O   UNL     1      50.816   1.112  17.378  0.00  0.00    +0.000 OA
ATOM     32  C   UNL     1      52.644   2.465  18.033  0.00  0.00    +0.000 A 
ATOM     33  H   UNL     1      52.504  -0.573  16.777  0.00  0.00    +0.000 HD
ENDBRANCH  20  23
ENDBRANCH  18  19
ENDBRANCH   4  18
TORSDOF 7
ENDMDL
MODEL 9
REMARK VINA RESULT:    -6.412      4.765      7.742
REMARK INTER + INTRA:         -10.268
REMARK INTER:                  -9.007
REMARK INTRA:                  -1.261
REMARK UNBOUND:                -1.232
REMARK  Name = 
REMARK  8 active torsions:
REMARK  status: ('A' for Active; 'I' for Inactive)
REMARK    1  A    between atoms: C_1  and  C_2
REMARK    2  A    between atoms: C_2  and  N_3
REMARK    3  A    between atoms: C_2  and  C_25
REMARK    4  A    between atoms: N_3  and  C_4
REMARK    5  A    between atoms: C_4  and  C_5
REMARK    6  A    between atoms: C_8  and  C_9
REMARK    7  A    between atoms: C_9  and  N_10
REMARK    8  A    between atoms: C_11  and  C_13
REMARK                            x       y       z     vdW  Elec       q    Type
REMARK                         _______ _______ _______ _____ _____    ______ ____
ROOT
ATOM      1  C   UNL     1      50.260   8.828  12.102  0.00  0.00    +0.000 A 
ATOM      2  C   UNL     1      49.755   7.591  11.695  0.00  0.00    +0.000 A 
ATOM      3  C   UNL     1      48.380   7.365  11.701  0.00  0.00    +0.000 A 
ATOM      4  C   UNL     1      47.536   8.380  12.136  0.00  0.00    +0.000 A 
ATOM      5  N   UNL     1      47.996   9.601  12.509  0.00  0.00    +0.000 NA
ATOM      6  C   UNL     1      49.333   9.795  12.479  0.00  0.00    +0.000 A 
ENDROOT
BRANCH   1   7
ATOM      7  C   UNL     1      51.739   9.115  12.107  0.00  0.00    +0.000 C 
BRANCH   7   8
ATOM      8  N   UNL     1      52.512   7.976  11.614  0.00  0.00    +0.000 NA
ATOM      9  H   UNL     1      53.097   7.617  12.368  0.00  0.00    +0.000 HD
BRANCH   8  11
ATOM     10  C   UNL     1      53.048   9.635   9.821  0.00  0.00    +0.000 C 
ATOM     11  C   UNL     1      53.405   8.303  10.490  0.00  0.00    +0.000 C 
BRANCH  11  12
ATOM     12  C   UNL     1      53.400   7.192   9.440  0.00  0.00    +0.000 A 
ATOM     13  C   UNL     1      54.247   6.082   9.602  0.00  0.00    +0.000 A 
ATOM     14  C   UNL     1      54.299   5.071   8.639  0.00  0.00    +0.000 A 
ATOM     15  C   UNL     1      53.502   5.149   7.500  0.00  0.00    +0.000 A 
ATOM     16  C   UNL     1      52.652   6.239   7.324  0.00  0.00    +0.000 A 
ATOM     17  C   UNL     1      52.609   7.258   8.280  0.00  0.00    +0.000 A 
ENDBRANCH  11  12
ENDBRANCH   8  11
ENDBRANCH   7   8
ENDBRANCH   1   7
BRANCH   4  18
ATOM     18  C   UNL     1      46.047   8.160  12.195  0.00  0.00    +0.000 C 
BRANCH  18  19
ATOM     19  N   UNL     1      45.688   6.788  11.932  0.00  0.00    +0.000 N 
ATOM     20  C   UNL     1      44.441   6.418  11.510  0.00  0.00    +0.000 C 
ATOM     21  O   UNL     1      43.538   7.233  11.330  0.00  0.00    +0.000 OA
ATOM     22  H   UNL     1      46.314   6.093  12.327  0.00  0.00    +0.000 HD
BRANCH  20  23
ATOM     23  C   UNL     1      44.261   4.994  11.210  0.00  0.00    +0.000 A 
ATOM     24  C   UNL     1      43.483   4.207  12.050  0.00  0.00    +0.000 A 
ATOM     25  S   UNL     1      43.342   2.589  11.531  0.00  0.00    +0.000 S 
ATOM     26  C   UNL     1      44.351   2.872  10.190  0.00  0.00    +0.000 A 
ATOM     27  N   UNL     1      44.670   1.867   9.332  0.00  0.00    +0.000 NA
ATOM     28  C   UNL     1      45.464   2.215   8.374  0.00  0.00    +0.000 A 
ATOM     29  N   UNL     1      45.957   3.479   8.191  0.00  0.00    +0.000 N 
ATOM     30  C   UNL     1      45.624   4.538   9.001  0.00  0.00    +0.000 A 
ATOM     31  O   UNL     1      46.008   5.675   8.759  0.00  0.00    +0.000 OA
ATOM     32  C   UNL     1      44.764   4.191  10.119  0.00  0.00    +0.000 A 
ATOM     33  H   UNL     1      46.556   3.696   7.405  0.00  0.00    +0.000 HD
ENDBRANCH  20  23
ENDBRANCH  18  19
ENDBRANCH   4  18
TORSDOF 7
ENDMDL
