MODEL 1
REMARK VINA RESULT:    -8.853      0.000      0.000
REMARK INTER + INTRA:         -12.236
REMARK INTER:                 -11.441
REMARK INTRA:                  -0.795
REMARK UNBOUND:                -0.795
REMARK  Name = 
REMARK  6 active torsions:
REMARK  status: ('A' for Active; 'I' for Inactive)
REMARK    1  A    between atoms: C_1  and  N_2
REMARK    2  A    between atoms: N_2  and  C_3
REMARK    3  A    between atoms: C_3  and  C_4
REMARK    4  A    between atoms: C_13  and  C_14
REMARK    5  A    between atoms: C_14  and  N_15
REMARK    6  A    between atoms: C_16  and  C_18
REMARK                            x       y       z     vdW  Elec       q    Type
REMARK                         _______ _______ _______ _____ _____    ______ ____
ROOT
ATOM      1  C   UNL     1      46.968   7.974  13.065  0.00  0.00    +0.000 C 
ENDROOT
BRANCH   1   7
ATOM      2  C   UNL     1      43.699   2.903  10.849  0.00  0.00    +0.000 C 
ATOM      3  N   UNL     1      44.627   3.775  10.162  0.00  0.00    +0.000 N 
ATOM      4  C   UNL     1      45.209   4.795  10.876  0.00  0.00    +0.000 A 
ATOM      5  N   UNL     1      44.917   4.932  12.184  0.00  0.00    +0.000 NA
ATOM      6  C   UNL     1      45.486   5.954  12.857  0.00  0.00    +0.000 A 
ATOM      7  C   UNL     1      46.355   6.859  12.292  0.00  0.00    +0.000 A 
ATOM      8  C   UNL     1      46.625   6.621  10.967  0.00  0.00    +0.000 A 
ATOM      9  N   UNL     1      46.066   5.626  10.255  0.00  0.00    +0.000 NA
BRANCH   3  10
ATOM     10  C   UNL     1      44.626   3.832   8.707  0.00  0.00    +0.000 C 
BRANCH  10  11
ATOM     11  C   UNL     1      45.732   2.982   8.119  0.00  0.00    +0.000 A 
ATOM     12  C   UNL     1      45.793   1.607   8.366  0.00  0.00    +0.000 A 
ATOM     13  C   UNL     1      46.804   0.866   7.769  0.00  0.00    +0.000 A 
ATOM     14  N   UNL     1      47.742   1.389   6.954  0.00  0.00    +0.000 NA
ATOM     15  C   UNL     1      47.663   2.717   6.722  0.00  0.00    +0.000 A 
ATOM     16  C   UNL     1      46.692   3.540   7.268  0.00  0.00    +0.000 A 
ENDBRANCH  10  11
ENDBRANCH   3  10
ENDBRANCH   1   7
BRANCH   1  17
ATOM     17  N   UNL     1      47.349   7.567  14.392  0.00  0.00    +0.000 N 
ATOM     18  C   UNL     1      48.571   6.980  14.624  0.00  0.00    +0.000 C 
ATOM     19  O   UNL     1      49.369   6.776  13.712  0.00  0.00    +0.000 OA
ATOM     20  H   UNL     1      46.848   7.978  15.174  0.00  0.00    +0.000 HD
BRANCH  18  21
ATOM     21  C   UNL     1      48.833   6.520  15.994  0.00  0.00    +0.000 A 
ATOM     22  C   UNL     1      49.566   7.301  16.876  0.00  0.00    +0.000 A 
ATOM     23  S   UNL     1      50.062   6.449  18.274  0.00  0.00    +0.000 S 
ATOM     24  C   UNL     1      49.249   5.042  17.768  0.00  0.00    +0.000 A 
ATOM     25  N   UNL     1      49.361   3.866  18.441  0.00  0.00    +0.000 NA
ATOM     26  C   UNL     1      48.639   2.907  17.958  0.00  0.00    +0.000 A 
ATOM     27  N   UNL     1      47.773   3.034  16.903  0.00  0.00    +0.000 N 
ATOM     28  C   UNL     1      47.602   4.213  16.225  0.00  0.00    +0.000 A 
ATOM     29  O   UNL     1      46.741   4.347  15.359  0.00  0.00    +0.000 OA
ATOM     30  C   UNL     1      48.498   5.274  16.632  0.00  0.00    +0.000 A 
ATOM     31  H   UNL     1      47.170   2.270  16.632  0.00  0.00    +0.000 HD
ENDBRANCH  18  21
ENDBRANCH   1  17
TORSDOF 5
ENDMDL
MODEL 2
REMARK VINA RESULT:    -7.739      1.774      2.549
REMARK INTER + INTRA:         -10.795
REMARK INTER:                 -10.042
REMARK INTRA:                  -0.753
REMARK UNBOUND:                -0.795
REMARK  Name = 
REMARK  6 active torsions:
REMARK  status: ('A' for Active; 'I' for Inactive)
REMARK    1  A    between atoms: C_1  and  N_2
REMARK    2  A    between atoms: N_2  and  C_3
REMARK    3  A    between atoms: C_3  and  C_4
REMARK    4  A    between atoms: C_13  and  C_14
REMARK    5  A    between atoms: C_14  and  N_15
REMARK    6  A    between atoms: C_16  and  C_18
REMARK                            x       y       z     vdW  Elec       q    Type
REMARK                         _______ _______ _______ _____ _____    ______ ____
ROOT
ATOM      1  C   UNL     1      47.229   8.061  13.345  0.00  0.00    +0.000 C 
ENDROOT
BRANCH   1   7
ATOM      2  C   UNL     1      43.658   3.137  11.269  0.00  0.00    +0.000 C 
ATOM      3  N   UNL     1      44.549   4.007  10.532  0.00  0.00    +0.000 N 
ATOM      4  C   UNL     1      45.214   4.991  11.223  0.00  0.00    +0.000 A 
ATOM      5  N   UNL     1      45.034   5.096  12.554  0.00  0.00    +0.000 NA
ATOM      6  C   UNL     1      45.683   6.084  13.205  0.00  0.00    +0.000 A 
ATOM      7  C   UNL     1      46.526   6.984  12.595  0.00  0.00    +0.000 A 
ATOM      8  C   UNL     1      46.680   6.780  11.247  0.00  0.00    +0.000 A 
ATOM      9  N   UNL     1      46.039   5.819  10.557  0.00  0.00    +0.000 NA
BRANCH   3  10
ATOM     10  C   UNL     1      44.430   4.106   9.084  0.00  0.00    +0.000 C 
BRANCH  10  11
ATOM     11  C   UNL     1      45.458   3.245   8.384  0.00  0.00    +0.000 A 
ATOM     12  C   UNL     1      46.385   3.805   7.498  0.00  0.00    +0.000 A 
ATOM     13  C   UNL     1      47.334   2.978   6.914  0.00  0.00    +0.000 A 
ATOM     14  N   UNL     1      47.427   1.653   7.148  0.00  0.00    +0.000 NA
ATOM     15  C   UNL     1      46.529   1.131   8.011  0.00  0.00    +0.000 A 
ATOM     16  C   UNL     1      45.546   1.874   8.646  0.00  0.00    +0.000 A 
ENDBRANCH  10  11
ENDBRANCH   3  10
ENDBRANCH   1   7
BRANCH   1  17
ATOM     17  N   UNL     1      47.490   7.687  14.710  0.00  0.00    +0.000 N 
ATOM     18  C   UNL     1      48.641   7.016  15.049  0.00  0.00    +0.000 C 
ATOM     19  O   UNL     1      49.475   6.705  14.202  0.00  0.00    +0.000 OA
ATOM     20  H   UNL     1      46.977   8.174  15.439  0.00  0.00    +0.000 HD
BRANCH  18  21
ATOM     21  C   UNL     1      48.777   6.601  16.451  0.00  0.00    +0.000 A 
ATOM     22  C   UNL     1      49.135   5.299  16.773  0.00  0.00    +0.000 A 
ATOM     23  S   UNL     1      48.890   4.925  18.424  0.00  0.00    +0.000 S 
ATOM     24  C   UNL     1      48.371   6.511  18.759  0.00  0.00    +0.000 A 
ATOM     25  N   UNL     1      47.877   6.863  19.977  0.00  0.00    +0.000 NA
ATOM     26  C   UNL     1      47.577   8.116  20.086  0.00  0.00    +0.000 A 
ATOM     27  N   UNL     1      47.782   9.058  19.110  0.00  0.00    +0.000 N 
ATOM     28  C   UNL     1      48.315   8.750  17.885  0.00  0.00    +0.000 A 
ATOM     29  O   UNL     1      48.602   9.616  17.064  0.00  0.00    +0.000 OA
ATOM     30  C   UNL     1      48.527   7.336  17.663  0.00  0.00    +0.000 A 
ATOM     31  H   UNL     1      47.610  10.038  19.290  0.00  0.00    +0.000 HD
ENDBRANCH  18  21
ENDBRANCH   1  17
TORSDOF 5
ENDMDL
MODEL 3
REMARK VINA RESULT:    -7.441      3.237      7.920
REMARK INTER + INTRA:         -10.411
REMARK INTER:                  -9.740
REMARK INTRA:                  -0.671
REMARK UNBOUND:                -0.795
REMARK  Name = 
REMARK  6 active torsions:
REMARK  status: ('A' for Active; 'I' for Inactive)
REMARK    1  A    between atoms: C_1  and  N_2
REMARK    2  A    between atoms: N_2  and  C_3
REMARK    3  A    between atoms: C_3  and  C_4
REMARK    4  A    between atoms: C_13  and  C_14
REMARK    5  A    between atoms: C_14  and  N_15
REMARK    6  A    between atoms: C_16  and  C_18
REMARK                            x       y       z     vdW  Elec       q    Type
REMARK                         _______ _______ _______ _____ _____    ______ ____
ROOT
ATOM      1  C   UNL     1      48.014   8.149  12.498  0.00  0.00    +0.000 C 
ENDROOT
BRANCH   1   7
ATOM      2  C   UNL     1      52.052   7.162  17.401  0.00  0.00    +0.000 C 
ATOM      3  N   UNL     1      50.844   6.451  17.042  0.00  0.00    +0.000 N 
ATOM      4  C   UNL     1      50.159   6.859  15.923  0.00  0.00    +0.000 A 
ATOM      5  N   UNL     1      50.643   7.882  15.192  0.00  0.00    +0.000 NA
ATOM      6  C   UNL     1      49.939   8.276  14.110  0.00  0.00    +0.000 A 
ATOM      7  C   UNL     1      48.764   7.691  13.700  0.00  0.00    +0.000 A 
ATOM      8  C   UNL     1      48.365   6.634  14.480  0.00  0.00    +0.000 A 
ATOM      9  N   UNL     1      49.027   6.220  15.576  0.00  0.00    +0.000 NA
BRANCH   3  10
ATOM     10  C   UNL     1      50.167   5.627  18.034  0.00  0.00    +0.000 C 
BRANCH  10  11
ATOM     11  C   UNL     1      50.284   4.155  17.703  0.00  0.00    +0.000 A 
ATOM     12  C   UNL     1      49.168   3.417  17.295  0.00  0.00    +0.000 A 
ATOM     13  C   UNL     1      49.337   2.080  16.964  0.00  0.00    +0.000 A 
ATOM     14  N   UNL     1      50.521   1.436  17.005  0.00  0.00    +0.000 NA
ATOM     15  C   UNL     1      51.588   2.166  17.394  0.00  0.00    +0.000 A 
ATOM     16  C   UNL     1      51.522   3.506  17.742  0.00  0.00    +0.000 A 
ENDBRANCH  10  11
ENDBRANCH   3  10
ENDBRANCH   1   7
BRANCH   1  17
ATOM     17  N   UNL     1      47.505   7.046  11.726  0.00  0.00    +0.000 N 
ATOM     18  C   UNL     1      46.152   6.825  11.622  0.00  0.00    +0.000 C 
ATOM     19  O   UNL     1      45.338   7.550  12.190  0.00  0.00    +0.000 OA
ATOM     20  H   UNL     1      48.122   6.628  11.036  0.00  0.00    +0.000 HD
BRANCH  18  21
ATOM     21  C   UNL     1      45.732   5.625  10.886  0.00  0.00    +0.000 A 
ATOM     22  C   UNL     1      45.852   5.564   9.505  0.00  0.00    +0.000 A 
ATOM     23  S   UNL     1      44.991   4.257   8.814  0.00  0.00    +0.000 S 
ATOM     24  C   UNL     1      44.501   3.703  10.348  0.00  0.00    +0.000 A 
ATOM     25  N   UNL     1      43.622   2.676  10.493  0.00  0.00    +0.000 NA
ATOM     26  C   UNL     1      43.394   2.342  11.722  0.00  0.00    +0.000 A 
ATOM     27  N   UNL     1      44.010   2.901  12.812  0.00  0.00    +0.000 N 
ATOM     28  C   UNL     1      44.932   3.910  12.704  0.00  0.00    +0.000 A 
ATOM     29  O   UNL     1      45.563   4.322  13.673  0.00  0.00    +0.000 OA
ATOM     30  C   UNL     1      45.108   4.419  11.361  0.00  0.00    +0.000 A 
ATOM     31  H   UNL     1      43.856   2.533  13.741  0.00  0.00    +0.000 HD
ENDBRANCH  18  21
ENDBRANCH   1  17
TORSDOF 5
ENDMDL
MODEL 4
REMARK VINA RESULT:    -7.298      3.835      8.756
REMARK INTER + INTRA:         -10.225
REMARK INTER:                  -9.571
REMARK INTRA:                  -0.654
REMARK UNBOUND:                -0.795
REMARK  Name = 
REMARK  6 active torsions:
REMARK  status: ('A' for Active; 'I' for Inactive)
REMARK    1  A    between atoms: C_1  and  N_2
REMARK    2  A    between atoms: N_2  and  C_3
REMARK    3  A    between atoms: C_3  and  C_4
REMARK    4  A    between atoms: C_13  and  C_14
REMARK    5  A    between atoms: C_14  and  N_15
REMARK    6  A    between atoms: C_16  and  C_18
REMARK                            x       y       z     vdW  Elec       q    Type
REMARK                         _______ _______ _______ _____ _____    ______ ____
ROOT
ATOM      1  C   UNL     1      47.189   3.907  16.990  0.00  0.00    +0.000 C 
ENDROOT
BRANCH   1   7
ATOM      2  C   UNL     1      53.410   5.368  17.684  0.00  0.00    +0.000 C 
ATOM      3  N   UNL     1      52.740   4.092  17.820  0.00  0.00    +0.000 N 
ATOM      4  C   UNL     1      51.383   4.045  17.604  0.00  0.00    +0.000 A 
ATOM      5  N   UNL     1      50.734   5.173  17.255  0.00  0.00    +0.000 NA
ATOM      6  C   UNL     1      49.399   5.103  17.069  0.00  0.00    +0.000 A 
ATOM      7  C   UNL     1      48.662   3.949  17.205  0.00  0.00    +0.000 A 
ATOM      8  C   UNL     1      49.409   2.844  17.526  0.00  0.00    +0.000 A 
ATOM      9  N   UNL     1      50.737   2.873  17.737  0.00  0.00    +0.000 NA
BRANCH   3  10
ATOM     10  C   UNL     1      53.386   3.009  18.548  0.00  0.00    +0.000 C 
BRANCH  10  11
ATOM     11  C   UNL     1      54.052   2.030  17.607  0.00  0.00    +0.000 A 
ATOM     12  C   UNL     1      55.177   2.397  16.861  0.00  0.00    +0.000 A 
ATOM     13  C   UNL     1      55.774   1.448  16.044  0.00  0.00    +0.000 A 
ATOM     14  N   UNL     1      55.341   0.177  15.921  0.00  0.00    +0.000 NA
ATOM     15  C   UNL     1      54.258  -0.162  16.653  0.00  0.00    +0.000 A 
ATOM     16  C   UNL     1      53.594   0.712  17.498  0.00  0.00    +0.000 A 
ENDBRANCH  10  11
ENDBRANCH   3  10
ENDBRANCH   1   7
BRANCH   1  17
ATOM     17  N   UNL     1      46.785   4.698  15.857  0.00  0.00    +0.000 N 
ATOM     18  C   UNL     1      46.875   4.195  14.580  0.00  0.00    +0.000 C 
ATOM     19  O   UNL     1      47.309   3.066  14.365  0.00  0.00    +0.000 OA
ATOM     20  H   UNL     1      46.173   5.490  16.028  0.00  0.00    +0.000 HD
BRANCH  18  21
ATOM     21  C   UNL     1      46.523   5.107  13.484  0.00  0.00    +0.000 A 
ATOM     22  C   UNL     1      47.357   6.163  13.145  0.00  0.00    +0.000 A 
ATOM     23  S   UNL     1      46.613   7.300  12.108  0.00  0.00    +0.000 S 
ATOM     24  C   UNL     1      45.188   6.372  12.028  0.00  0.00    +0.000 A 
ATOM     25  N   UNL     1      44.069   6.825  11.402  0.00  0.00    +0.000 NA
ATOM     26  C   UNL     1      43.091   5.979  11.385  0.00  0.00    +0.000 A 
ATOM     27  N   UNL     1      43.150   4.702  11.883  0.00  0.00    +0.000 N 
ATOM     28  C   UNL     1      44.273   4.196  12.486  0.00  0.00    +0.000 A 
ATOM     29  O   UNL     1      44.355   3.018  12.823  0.00  0.00    +0.000 OA
ATOM     30  C   UNL     1      45.342   5.154  12.662  0.00  0.00    +0.000 A 
ATOM     31  H   UNL     1      42.381   4.060  11.758  0.00  0.00    +0.000 HD
ENDBRANCH  18  21
ENDBRANCH   1  17
TORSDOF 5
ENDMDL
MODEL 5
REMARK VINA RESULT:    -7.200      3.054      8.432
REMARK INTER + INTRA:         -10.099
REMARK INTER:                  -9.468
REMARK INTRA:                  -0.631
REMARK UNBOUND:                -0.795
REMARK  Name = 
REMARK  6 active torsions:
REMARK  status: ('A' for Active; 'I' for Inactive)
REMARK    1  A    between atoms: C_1  and  N_2
REMARK    2  A    between atoms: N_2  and  C_3
REMARK    3  A    between atoms: C_3  and  C_4
REMARK    4  A    between atoms: C_13  and  C_14
REMARK    5  A    between atoms: C_14  and  N_15
REMARK    6  A    between atoms: C_16  and  C_18
REMARK                            x       y       z     vdW  Elec       q    Type
REMARK                         _______ _______ _______ _____ _____    ______ ____
ROOT
ATOM      1  C   UNL     1      47.415   7.315  12.507  0.00  0.00    +0.000 C 
ENDROOT
BRANCH   1   7
ATOM      2  C   UNL     1      51.002   7.400  17.840  0.00  0.00    +0.000 C 
ATOM      3  N   UNL     1      50.148   6.355  17.318  0.00  0.00    +0.000 N 
ATOM      4  C   UNL     1      49.490   6.586  16.134  0.00  0.00    +0.000 A 
ATOM      5  N   UNL     1      49.677   7.757  15.495  0.00  0.00    +0.000 NA
ATOM      6  C   UNL     1      49.002   7.966  14.345  0.00  0.00    +0.000 A 
ATOM      7  C   UNL     1      48.143   7.052  13.780  0.00  0.00    +0.000 A 
ATOM      8  C   UNL     1      48.041   5.875  14.478  0.00  0.00    +0.000 A 
ATOM      9  N   UNL     1      48.682   5.633  15.635  0.00  0.00    +0.000 NA
BRANCH   3  10
ATOM     10  C   UNL     1      49.686   5.291  18.198  0.00  0.00    +0.000 C 
BRANCH  10  11
ATOM     11  C   UNL     1      50.493   4.026  18.009  0.00  0.00    +0.000 A 
ATOM     12  C   UNL     1      49.925   2.888  17.428  0.00  0.00    +0.000 A 
ATOM     13  C   UNL     1      50.720   1.766  17.239  0.00  0.00    +0.000 A 
ATOM     14  N   UNL     1      52.024   1.700  17.579  0.00  0.00    +0.000 NA
ATOM     15  C   UNL     1      52.557   2.810  18.132  0.00  0.00    +0.000 A 
ATOM     16  C   UNL     1      51.847   3.978  18.359  0.00  0.00    +0.000 A 
ENDBRANCH  10  11
ENDBRANCH   3  10
ENDBRANCH   1   7
BRANCH   1  17
ATOM     17  N   UNL     1      46.677   6.163  12.059  0.00  0.00    +0.000 N 
ATOM     18  C   UNL     1      45.433   6.302  11.491  0.00  0.00    +0.000 C 
ATOM     19  O   UNL     1      44.908   7.405  11.357  0.00  0.00    +0.000 OA
ATOM     20  H   UNL     1      47.195   5.304  11.897  0.00  0.00    +0.000 HD
BRANCH  18  21
ATOM     21  C   UNL     1      44.721   5.064  11.147  0.00  0.00    +0.000 A 
ATOM     22  C   UNL     1      43.739   4.554  11.984  0.00  0.00    +0.000 A 
ATOM     23  S   UNL     1      43.294   2.949  11.598  0.00  0.00    +0.000 S 
ATOM     24  C   UNL     1      44.348   2.924  10.261  0.00  0.00    +0.000 A 
ATOM     25  N   UNL     1      44.567   1.792   9.540  0.00  0.00    +0.000 NA
ATOM     26  C   UNL     1      45.352   1.953   8.525  0.00  0.00    +0.000 A 
ATOM     27  N   UNL     1      45.889   3.153   8.132  0.00  0.00    +0.000 N 
ATOM     28  C   UNL     1      45.659   4.322   8.810  0.00  0.00    +0.000 A 
ATOM     29  O   UNL     1      46.047   5.407   8.385  0.00  0.00    +0.000 OA
ATOM     30  C   UNL     1      44.909   4.167  10.037  0.00  0.00    +0.000 A 
ATOM     31  H   UNL     1      46.422   3.228   7.277  0.00  0.00    +0.000 HD
ENDBRANCH  18  21
ENDBRANCH   1  17
TORSDOF 5
ENDMDL
MODEL 6
REMARK VINA RESULT:    -6.985      2.525      3.306
REMARK INTER + INTRA:          -9.822
REMARK INTER:                  -9.437
REMARK INTRA:                  -0.385
REMARK UNBOUND:                -0.795
REMARK  Name = 
REMARK  6 active torsions:
REMARK  status: ('A' for Active; 'I' for Inactive)
REMARK    1  A    between atoms: C_1  and  N_2
REMARK    2  A    between atoms: N_2  and  C_3
REMARK    3  A    between atoms: C_3  and  C_4
REMARK    4  A    between atoms: C_13  and  C_14
REMARK    5  A    between atoms: C_14  and  N_15
REMARK    6  A    between atoms: C_16  and  C_18
REMARK                            x       y       z     vdW  Elec       q    Type
REMARK                         _______ _______ _______ _____ _____    ______ ____
ROOT
ATOM      1  C   UNL     1      47.913   4.645  15.176  0.00  0.00    +0.000 C 
ENDROOT
BRANCH   1   7
ATOM      2  C   UNL     1      43.401   5.240  10.637  0.00  0.00    +0.000 C 
ATOM      3  N   UNL     1      44.061   4.052  11.133  0.00  0.00    +0.000 N 
ATOM      4  C   UNL     1      44.994   4.196  12.132  0.00  0.00    +0.000 A 
ATOM      5  N   UNL     1      45.244   5.425  12.625  0.00  0.00    +0.000 NA
ATOM      6  C   UNL     1      46.180   5.541  13.590  0.00  0.00    +0.000 A 
ATOM      7  C   UNL     1      46.888   4.481  14.108  0.00  0.00    +0.000 A 
ATOM      8  C   UNL     1      46.543   3.265  13.574  0.00  0.00    +0.000 A 
ATOM      9  N   UNL     1      45.629   3.107  12.600  0.00  0.00    +0.000 NA
BRANCH   3  10
ATOM     10  C   UNL     1      44.046   2.831  10.339  0.00  0.00    +0.000 C 
BRANCH  10  11
ATOM     11  C   UNL     1      45.041   2.898   9.202  0.00  0.00    +0.000 A 
ATOM     12  C   UNL     1      45.400   4.122   8.629  0.00  0.00    +0.000 A 
ATOM     13  C   UNL     1      46.348   4.133   7.615  0.00  0.00    +0.000 A 
ATOM     14  N   UNL     1      46.959   3.028   7.142  0.00  0.00    +0.000 NA
ATOM     15  C   UNL     1      46.605   1.856   7.711  0.00  0.00    +0.000 A 
ATOM     16  C   UNL     1      45.671   1.742   8.728  0.00  0.00    +0.000 A 
ENDBRANCH  10  11
ENDBRANCH   3  10
ENDBRANCH   1   7
BRANCH   1  17
ATOM     17  N   UNL     1      47.793   5.911  15.850  0.00  0.00    +0.000 N 
ATOM     18  C   UNL     1      48.910   6.651  16.162  0.00  0.00    +0.000 C 
ATOM     19  O   UNL     1      50.040   6.254  15.886  0.00  0.00    +0.000 OA
ATOM     20  H   UNL     1      46.891   6.377  15.823  0.00  0.00    +0.000 HD
BRANCH  18  21
ATOM     21  C   UNL     1      48.693   7.886  16.927  0.00  0.00    +0.000 A 
ATOM     22  C   UNL     1      49.005   9.122  16.380  0.00  0.00    +0.000 A 
ATOM     23  S   UNL     1      49.022  10.383  17.536  0.00  0.00    +0.000 S 
ATOM     24  C   UNL     1      48.541   9.320  18.776  0.00  0.00    +0.000 A 
ATOM     25  N   UNL     1      48.482   9.714  20.077  0.00  0.00    +0.000 NA
ATOM     26  C   UNL     1      48.048   8.804  20.887  0.00  0.00    +0.000 A 
ATOM     27  N   UNL     1      47.612   7.561  20.508  0.00  0.00    +0.000 N 
ATOM     28  C   UNL     1      47.618   7.142  19.203  0.00  0.00    +0.000 A 
ATOM     29  O   UNL     1      47.118   6.074  18.859  0.00  0.00    +0.000 OA
ATOM     30  C   UNL     1      48.234   8.068  18.279  0.00  0.00    +0.000 A 
ATOM     31  H   UNL     1      47.199   6.928  21.179  0.00  0.00    +0.000 HD
ENDBRANCH  18  21
ENDBRANCH   1  17
TORSDOF 5
ENDMDL
MODEL 7
REMARK VINA RESULT:    -6.902      3.603      8.666
REMARK INTER + INTRA:          -9.714
REMARK INTER:                  -9.107
REMARK INTRA:                  -0.607
REMARK UNBOUND:                -0.795
REMARK  Name = 
REMARK  6 active torsions:
REMARK  status: ('A' for Active; 'I' for Inactive)
REMARK    1  A    between atoms: C_1  and  N_2
REMARK    2  A    between atoms: N_2  and  C_3
REMARK    3  A    between atoms: C_3  and  C_4
REMARK    4  A    between atoms: C_13  and  C_14
REMARK    5  A    between atoms: C_14  and  N_15
REMARK    6  A    between atoms: C_16  and  C_18
REMARK                            x       y       z     vdW  Elec       q    Type
REMARK                         _______ _______ _______ _____ _____    ______ ____
ROOT
ATOM      1  C   UNL     1      47.148   3.537  17.030  0.00  0.00    +0.000 C 
ENDROOT
BRANCH   1   7
ATOM      2  C   UNL     1      53.449   2.466  17.711  0.00  0.00    +0.000 C 
ATOM      3  N   UNL     1      52.662   3.620  18.088  0.00  0.00    +0.000 N 
ATOM      4  C   UNL     1      51.310   3.594  17.841  0.00  0.00    +0.000 A 
ATOM      5  N   UNL     1      50.766   2.496  17.281  0.00  0.00    +0.000 NA
ATOM      6  C   UNL     1      49.440   2.505  17.030  0.00  0.00    +0.000 A 
ATOM      7  C   UNL     1      48.608   3.562  17.319  0.00  0.00    +0.000 A 
ATOM      8  C   UNL     1      49.240   4.621  17.921  0.00  0.00    +0.000 A 
ATOM      9  N   UNL     1      50.561   4.660  18.173  0.00  0.00    +0.000 NA
BRANCH   3  10
ATOM     10  C   UNL     1      53.320   4.896  18.331  0.00  0.00    +0.000 C 
BRANCH  10  11
ATOM     11  C   UNL     1      53.854   5.497  17.049  0.00  0.00    +0.000 A 
ATOM     12  C   UNL     1      53.140   6.484  16.363  0.00  0.00    +0.000 A 
ATOM     13  C   UNL     1      53.694   7.031  15.214  0.00  0.00    +0.000 A 
ATOM     14  N   UNL     1      54.893   6.674  14.710  0.00  0.00    +0.000 NA
ATOM     15  C   UNL     1      55.571   5.725  15.389  0.00  0.00    +0.000 A 
ATOM     16  C   UNL     1      55.104   5.120  16.545  0.00  0.00    +0.000 A 
ENDBRANCH  10  11
ENDBRANCH   3  10
ENDBRANCH   1   7
BRANCH   1  17
ATOM     17  N   UNL     1      46.799   4.403  15.935  0.00  0.00    +0.000 N 
ATOM     18  C   UNL     1      46.973   3.996  14.633  0.00  0.00    +0.000 C 
ATOM     19  O   UNL     1      47.439   2.891  14.363  0.00  0.00    +0.000 OA
ATOM     20  H   UNL     1      46.163   5.172  16.125  0.00  0.00    +0.000 HD
BRANCH  18  21
ATOM     21  C   UNL     1      46.671   4.981  13.586  0.00  0.00    +0.000 A 
ATOM     22  C   UNL     1      47.534   6.039  13.338  0.00  0.00    +0.000 A 
ATOM     23  S   UNL     1      46.842   7.252  12.352  0.00  0.00    +0.000 S 
ATOM     24  C   UNL     1      45.404   6.359  12.173  0.00  0.00    +0.000 A 
ATOM     25  N   UNL     1      44.313   6.872  11.544  0.00  0.00    +0.000 NA
ATOM     26  C   UNL     1      43.321   6.048  11.445  0.00  0.00    +0.000 A 
ATOM     27  N   UNL     1      43.342   4.743  11.864  0.00  0.00    +0.000 N 
ATOM     28  C   UNL     1      44.437   4.178  12.467  0.00  0.00    +0.000 A 
ATOM     29  O   UNL     1      44.488   2.980  12.732  0.00  0.00    +0.000 OA
ATOM     30  C   UNL     1      45.517   5.102  12.734  0.00  0.00    +0.000 A 
ATOM     31  H   UNL     1      42.566   4.124  11.676  0.00  0.00    +0.000 HD
ENDBRANCH  18  21
ENDBRANCH   1  17
TORSDOF 5
ENDMDL
MODEL 8
REMARK VINA RESULT:    -6.837      1.745      2.266
REMARK INTER + INTRA:          -9.630
REMARK INTER:                  -9.281
REMARK INTRA:                  -0.349
REMARK UNBOUND:                -0.795
REMARK  Name = 
REMARK  6 active torsions:
REMARK  status: ('A' for Active; 'I' for Inactive)
REMARK    1  A    between atoms: C_1  and  N_2
REMARK    2  A    between atoms: N_2  and  C_3
REMARK    3  A    between atoms: C_3  and  C_4
REMARK    4  A    between atoms: C_13  and  C_14
REMARK    5  A    between atoms: C_14  and  N_15
REMARK    6  A    between atoms: C_16  and  C_18
REMARK                            x       y       z     vdW  Elec       q    Type
REMARK                         _______ _______ _______ _____ _____    ______ ____
ROOT
ATOM      1  C   UNL     1      48.262   7.280  13.888  0.00  0.00    +0.000 C 
ENDROOT
BRANCH   1   7
ATOM      2  C   UNL     1      42.496   5.662  11.554  0.00  0.00    +0.000 C 
ATOM      3  N   UNL     1      43.598   4.817  11.960  0.00  0.00    +0.000 N 
ATOM      4  C   UNL     1      44.734   5.420  12.444  0.00  0.00    +0.000 A 
ATOM      5  N   UNL     1      44.775   6.763  12.544  0.00  0.00    +0.000 NA
ATOM      6  C   UNL     1      45.910   7.330  13.002  0.00  0.00    +0.000 A 
ATOM      7  C   UNL     1      47.025   6.621  13.384  0.00  0.00    +0.000 A 
ATOM      8  C   UNL     1      46.883   5.260  13.284  0.00  0.00    +0.000 A 
ATOM      9  N   UNL     1      45.776   4.655  12.817  0.00  0.00    +0.000 NA
BRANCH   3  10
ATOM     10  C   UNL     1      43.663   3.439  11.495  0.00  0.00    +0.000 C 
BRANCH  10  11
ATOM     11  C   UNL     1      44.408   3.331  10.183  0.00  0.00    +0.000 A 
ATOM     12  C   UNL     1      44.923   2.107   9.745  0.00  0.00    +0.000 A 
ATOM     13  C   UNL     1      45.563   2.054   8.514  0.00  0.00    +0.000 A 
ATOM     14  N   UNL     1      45.720   3.117   7.699  0.00  0.00    +0.000 NA
ATOM     15  C   UNL     1      45.210   4.289   8.135  0.00  0.00    +0.000 A 
ATOM     16  C   UNL     1      44.555   4.442   9.346  0.00  0.00    +0.000 A 
ENDBRANCH  10  11
ENDBRANCH   3  10
ENDBRANCH   1   7
BRANCH   1  17
ATOM     17  N   UNL     1      48.293   7.342  15.326  0.00  0.00    +0.000 N 
ATOM     18  C   UNL     1      49.453   7.082  16.017  0.00  0.00    +0.000 C 
ATOM     19  O   UNL     1      50.492   6.779  15.436  0.00  0.00    +0.000 OA
ATOM     20  H   UNL     1      47.552   7.858  15.792  0.00  0.00    +0.000 HD
BRANCH  18  21
ATOM     21  C   UNL     1      49.364   7.084  17.483  0.00  0.00    +0.000 A 
ATOM     22  C   UNL     1      49.870   8.144  18.222  0.00  0.00    +0.000 A 
ATOM     23  S   UNL     1      49.995   7.798  19.893  0.00  0.00    +0.000 S 
ATOM     24  C   UNL     1      49.307   6.256  19.677  0.00  0.00    +0.000 A 
ATOM     25  N   UNL     1      49.231   5.355  20.693  0.00  0.00    +0.000 NA
ATOM     26  C   UNL     1      48.634   4.251  20.380  0.00  0.00    +0.000 A 
ATOM     27  N   UNL     1      48.054   3.992  19.164  0.00  0.00    +0.000 N 
ATOM     28  C   UNL     1      48.075   4.891  18.129  0.00  0.00    +0.000 A 
ATOM     29  O   UNL     1      47.455   4.697  17.087  0.00  0.00    +0.000 OA
ATOM     30  C   UNL     1      48.861   6.078  18.382  0.00  0.00    +0.000 A 
ATOM     31  H   UNL     1      47.523   3.146  19.012  0.00  0.00    +0.000 HD
ENDBRANCH  18  21
ENDBRANCH   1  17
TORSDOF 5
ENDMDL
MODEL 9
REMARK VINA RESULT:    -6.403      5.153      7.451
REMARK INTER + INTRA:          -9.069
REMARK INTER:                  -8.230
REMARK INTRA:                  -0.840
REMARK UNBOUND:                -0.795
REMARK  Name = 
REMARK  6 active torsions:
REMARK  status: ('A' for Active; 'I' for Inactive)
REMARK    1  A    between atoms: C_1  and  N_2
REMARK    2  A    between atoms: N_2  and  C_3
REMARK    3  A    between atoms: C_3  and  C_4
REMARK    4  A    between atoms: C_13  and  C_14
REMARK    5  A    between atoms: C_14  and  N_15
REMARK    6  A    between atoms: C_16  and  C_18
REMARK                            x       y       z     vdW  Elec       q    Type
REMARK                         _______ _______ _______ _____ _____    ______ ____
ROOT
ATOM      1  C   UNL     1      51.023   8.683  11.865  0.00  0.00    +0.000 C 
ENDROOT
BRANCH   1   7
ATOM      2  C   UNL     1      46.623   4.880  14.602  0.00  0.00    +0.000 C 
ATOM      3  N   UNL     1      46.541   5.660  13.387  0.00  0.00    +0.000 N 
ATOM      4  C   UNL     1      47.643   6.390  13.008  0.00  0.00    +0.000 A 
ATOM      5  N   UNL     1      48.758   6.336  13.762  0.00  0.00    +0.000 NA
ATOM      6  C   UNL     1      49.818   7.078  13.379  0.00  0.00    +0.000 A 
ATOM      7  C   UNL     1      49.834   7.878  12.260  0.00  0.00    +0.000 A 
ATOM      8  C   UNL     1      48.671   7.844  11.532  0.00  0.00    +0.000 A 
ATOM      9  N   UNL     1      47.586   7.132  11.887  0.00  0.00    +0.000 NA
BRANCH   3  10
ATOM     10  C   UNL     1      45.239   5.987  12.822  0.00  0.00    +0.000 C 
BRANCH  10  11
ATOM     11  C   UNL     1      44.688   4.840  12.003  0.00  0.00    +0.000 A 
ATOM     12  C   UNL     1      45.072   4.655  10.671  0.00  0.00    +0.000 A 
ATOM     13  C   UNL     1      44.568   3.563   9.977  0.00  0.00    +0.000 A 
ATOM     14  N   UNL     1      43.726   2.654  10.508  0.00  0.00    +0.000 NA
ATOM     15  C   UNL     1      43.372   2.845  11.797  0.00  0.00    +0.000 A 
ATOM     16  C   UNL     1      43.821   3.901  12.573  0.00  0.00    +0.000 A 
ENDBRANCH  10  11
ENDBRANCH   3  10
ENDBRANCH   1   7
BRANCH   1  17
ATOM     17  N   UNL     1      51.596   8.226  10.626  0.00  0.00    +0.000 N 
ATOM     18  C   UNL     1      52.482   9.014   9.928  0.00  0.00    +0.000 C 
ATOM     19  O   UNL     1      52.803  10.130  10.330  0.00  0.00    +0.000 OA
ATOM     20  H   UNL     1      51.574   7.229  10.435  0.00  0.00    +0.000 HD
BRANCH  18  21
ATOM     21  C   UNL     1      52.945   8.500   8.632  0.00  0.00    +0.000 A 
ATOM     22  C   UNL     1      53.002   9.329   7.521  0.00  0.00    +0.000 A 
ATOM     23  S   UNL     1      53.215   8.473   6.056  0.00  0.00    +0.000 S 
ATOM     24  C   UNL     1      53.309   6.986   6.879  0.00  0.00    +0.000 A 
ATOM     25  N   UNL     1      53.363   5.800   6.216  0.00  0.00    +0.000 NA
ATOM     26  C   UNL     1      53.485   4.767   6.984  0.00  0.00    +0.000 A 
ATOM     27  N   UNL     1      53.618   4.816   8.348  0.00  0.00    +0.000 N 
ATOM     28  C   UNL     1      53.609   5.995   9.049  0.00  0.00    +0.000 A 
ATOM     29  O   UNL     1      53.845   6.038  10.253  0.00  0.00    +0.000 OA
ATOM     30  C   UNL     1      53.325   7.166   8.248  0.00  0.00    +0.000 A 
ATOM     31  H   UNL     1      53.801   3.979   8.883  0.00  0.00    +0.000 HD
ENDBRANCH  18  21
ENDBRANCH   1  17
TORSDOF 5
ENDMDL
