MODEL 1
REMARK VINA RESULT:    -8.626      0.000      0.000
REMARK INTER + INTRA:         -11.918
REMARK INTER:                 -11.148
REMARK INTRA:                  -0.770
REMARK UNBOUND:                -0.770
REMARK  Name = 
REMARK  5 active torsions:
REMARK  status: ('A' for Active; 'I' for Inactive)
REMARK    1  A    between atoms: C_2  and  C_4
REMARK    2  A    between atoms: C_7  and  O_8
REMARK    3  A    between atoms: O_8  and  C_9
REMARK    4  A    between atoms: C_9  and  C_10
REMARK    5  A    between atoms: C_14  and  C_15
REMARK                            x       y       z     vdW  Elec       q    Type
REMARK                         _______ _______ _______ _____ _____    ______ ____
ROOT
ATOM      1  C   UNL     1      43.717   4.254  11.292  0.00  0.00    +0.000 C 
ENDROOT
BRANCH   1   2
ATOM      2  C   UNL     1      44.950   4.716  12.036  0.00  0.00    +0.000 A 
ATOM      3  C   UNL     1      45.621   3.835  12.891  0.00  0.00    +0.000 A 
ATOM      4  C   UNL     1      46.782   4.239  13.542  0.00  0.00    +0.000 A 
ATOM      5  C   UNL     1      47.296   5.521  13.331  0.00  0.00    +0.000 A 
ATOM      6  C   UNL     1      46.675   6.422  12.450  0.00  0.00    +0.000 A 
ATOM      7  C   UNL     1      45.495   5.993  11.814  0.00  0.00    +0.000 A 
BRANCH   6   8
ATOM      8  C   UNL     1      47.249   7.755  12.166  0.00  0.00    +0.000 A 
ATOM      9  C   UNL     1      48.579   7.931  11.759  0.00  0.00    +0.000 A 
ATOM     10  C   UNL     1      49.098   9.208  11.543  0.00  0.00    +0.000 A 
ATOM     11  C   UNL     1      48.263  10.294  11.727  0.00  0.00    +0.000 A 
ATOM     12  N   UNL     1      46.975  10.186  12.109  0.00  0.00    +0.000 NA
ATOM     13  C   UNL     1      46.508   8.930  12.322  0.00  0.00    +0.000 A 
ENDBRANCH   6   8
ENDBRANCH   1   2
BRANCH   1  14
ATOM     14  O   UNL     1      43.764   4.693   9.929  0.00  0.00    +0.000 OA
BRANCH  14  18
ATOM     15  C   UNL     1      46.412   2.450   7.719  0.00  0.00    +0.000 A 
ATOM     16  C   UNL     1      45.574   1.820   8.641  0.00  0.00    +0.000 A 
ATOM     17  C   UNL     1      44.683   2.592   9.387  0.00  0.00    +0.000 A 
ATOM     18  C   UNL     1      44.662   3.964   9.179  0.00  0.00    +0.000 A 
ATOM     19  N   UNL     1      45.464   4.600   8.298  0.00  0.00    +0.000 NA
ATOM     20  C   UNL     1      46.330   3.830   7.596  0.00  0.00    +0.000 A 
BRANCH  15  22
ATOM     21  N   UNL     1      48.484   2.430   6.451  0.00  0.00    +0.000 N 
ATOM     22  C   UNL     1      47.392   1.731   6.883  0.00  0.00    +0.000 C 
ATOM     23  O   UNL     1      47.255   0.545   6.621  0.00  0.00    +0.000 OA
ATOM     24  H   UNL     1      49.201   1.888   5.983  0.00  0.00    +0.000 HD
ATOM     25  H   UNL     1      48.759   3.314   6.854  0.00  0.00    +0.000 HD
ENDBRANCH  15  22
ENDBRANCH  14  18
ENDBRANCH   1  14
TORSDOF 5
ENDMDL
MODEL 2
REMARK VINA RESULT:    -8.499      1.955      3.421
REMARK INTER + INTRA:         -11.753
REMARK INTER:                 -10.996
REMARK INTRA:                  -0.757
REMARK UNBOUND:                -0.770
REMARK  Name = 
REMARK  5 active torsions:
REMARK  status: ('A' for Active; 'I' for Inactive)
REMARK    1  A    between atoms: C_2  and  C_4
REMARK    2  A    between atoms: C_7  and  O_8
REMARK    3  A    between atoms: O_8  and  C_9
REMARK    4  A    between atoms: C_9  and  C_10
REMARK    5  A    between atoms: C_14  and  C_15
REMARK                            x       y       z     vdW  Elec       q    Type
REMARK                         _______ _______ _______ _____ _____    ______ ____
ROOT
ATOM      1  C   UNL     1      43.799   4.456  11.261  0.00  0.00    +0.000 C 
ENDROOT
BRANCH   1   2
ATOM      2  C   UNL     1      44.947   5.252  11.842  0.00  0.00    +0.000 A 
ATOM      3  C   UNL     1      45.246   6.520  11.332  0.00  0.00    +0.000 A 
ATOM      4  C   UNL     1      46.270   7.277  11.892  0.00  0.00    +0.000 A 
ATOM      5  C   UNL     1      46.994   6.782  12.981  0.00  0.00    +0.000 A 
ATOM      6  C   UNL     1      46.699   5.531  13.547  0.00  0.00    +0.000 A 
ATOM      7  C   UNL     1      45.667   4.781  12.953  0.00  0.00    +0.000 A 
BRANCH   6   8
ATOM      8  C   UNL     1      47.412   5.029  14.741  0.00  0.00    +0.000 A 
ATOM      9  C   UNL     1      47.218   3.735  15.245  0.00  0.00    +0.000 A 
ATOM     10  C   UNL     1      47.876   3.311  16.401  0.00  0.00    +0.000 A 
ATOM     11  C   UNL     1      48.734   4.196  17.027  0.00  0.00    +0.000 A 
ATOM     12  N   UNL     1      48.966   5.447  16.585  0.00  0.00    +0.000 NA
ATOM     13  C   UNL     1      48.300   5.829  15.467  0.00  0.00    +0.000 A 
ENDBRANCH   6   8
ENDBRANCH   1   2
BRANCH   1  14
ATOM     14  O   UNL     1      43.691   4.693   9.853  0.00  0.00    +0.000 OA
BRANCH  14  18
ATOM     15  C   UNL     1      46.408   2.450   7.729  0.00  0.00    +0.000 A 
ATOM     16  C   UNL     1      45.571   1.825   8.655  0.00  0.00    +0.000 A 
ATOM     17  C   UNL     1      44.656   2.598   9.371  0.00  0.00    +0.000 A 
ATOM     18  C   UNL     1      44.612   3.963   9.131  0.00  0.00    +0.000 A 
ATOM     19  N   UNL     1      45.414   4.594   8.246  0.00  0.00    +0.000 NA
ATOM     20  C   UNL     1      46.303   3.825   7.573  0.00  0.00    +0.000 A 
BRANCH  15  22
ATOM     21  N   UNL     1      48.465   2.454   6.435  0.00  0.00    +0.000 N 
ATOM     22  C   UNL     1      47.413   1.731   6.922  0.00  0.00    +0.000 C 
ATOM     23  O   UNL     1      47.330   0.526   6.731  0.00  0.00    +0.000 OA
ATOM     24  H   UNL     1      49.202   1.920   5.989  0.00  0.00    +0.000 HD
ATOM     25  H   UNL     1      48.702   3.372   6.782  0.00  0.00    +0.000 HD
ENDBRANCH  15  22
ENDBRANCH  14  18
ENDBRANCH   1  14
TORSDOF 5
ENDMDL
MODEL 3
REMARK VINA RESULT:    -7.760      1.427      2.169
REMARK INTER + INTRA:         -10.798
REMARK INTER:                 -10.048
REMARK INTRA:                  -0.751
REMARK UNBOUND:                -0.770
REMARK  Name = 
REMARK  5 active torsions:
REMARK  status: ('A' for Active; 'I' for Inactive)
REMARK    1  A    between atoms: C_2  and  C_4
REMARK    2  A    between atoms: C_7  and  O_8
REMARK    3  A    between atoms: O_8  and  C_9
REMARK    4  A    between atoms: C_9  and  C_10
REMARK    5  A    between atoms: C_14  and  C_15
REMARK                            x       y       z     vdW  Elec       q    Type
REMARK                         _______ _______ _______ _____ _____    ______ ____
ROOT
ATOM      1  C   UNL     1      44.271   4.876  11.282  0.00  0.00    +0.000 C 
ENDROOT
BRANCH   1   2
ATOM      2  C   UNL     1      44.841   6.266  11.456  0.00  0.00    +0.000 A 
ATOM      3  C   UNL     1      44.000   7.381  11.377  0.00  0.00    +0.000 A 
ATOM      4  C   UNL     1      44.509   8.659  11.582  0.00  0.00    +0.000 A 
ATOM      5  C   UNL     1      45.862   8.836  11.886  0.00  0.00    +0.000 A 
ATOM      6  C   UNL     1      46.732   7.740  12.014  0.00  0.00    +0.000 A 
ATOM      7  C   UNL     1      46.193   6.459  11.789  0.00  0.00    +0.000 A 
BRANCH   6   8
ATOM      8  C   UNL     1      48.147   7.911  12.404  0.00  0.00    +0.000 A 
ATOM      9  C   UNL     1      49.198   7.832  11.479  0.00  0.00    +0.000 A 
ATOM     10  C   UNL     1      50.525   7.954  11.892  0.00  0.00    +0.000 A 
ATOM     11  C   UNL     1      50.776   8.169  13.235  0.00  0.00    +0.000 A 
ATOM     12  N   UNL     1      49.808   8.262  14.167  0.00  0.00    +0.000 NA
ATOM     13  C   UNL     1      48.531   8.126  13.731  0.00  0.00    +0.000 A 
ENDBRANCH   6   8
ENDBRANCH   1   2
BRANCH   1  14
ATOM     14  O   UNL     1      43.822   4.686   9.936  0.00  0.00    +0.000 OA
BRANCH  14  18
ATOM     15  C   UNL     1      46.490   2.477   7.715  0.00  0.00    +0.000 A 
ATOM     16  C   UNL     1      45.638   1.832   8.613  0.00  0.00    +0.000 A 
ATOM     17  C   UNL     1      44.739   2.592   9.362  0.00  0.00    +0.000 A 
ATOM     18  C   UNL     1      44.727   3.968   9.183  0.00  0.00    +0.000 A 
ATOM     19  N   UNL     1      45.543   4.619   8.326  0.00  0.00    +0.000 NA
ATOM     20  C   UNL     1      46.416   3.860   7.620  0.00  0.00    +0.000 A 
BRANCH  15  22
ATOM     21  N   UNL     1      48.541   2.495   6.413  0.00  0.00    +0.000 N 
ATOM     22  C   UNL     1      47.479   1.772   6.878  0.00  0.00    +0.000 C 
ATOM     23  O   UNL     1      47.375   0.577   6.642  0.00  0.00    +0.000 OA
ATOM     24  H   UNL     1      49.267   1.965   5.944  0.00  0.00    +0.000 HD
ATOM     25  H   UNL     1      48.795   3.395   6.793  0.00  0.00    +0.000 HD
ENDBRANCH  15  22
ENDBRANCH  14  18
ENDBRANCH   1  14
TORSDOF 5
ENDMDL
MODEL 4
REMARK VINA RESULT:    -7.392      2.536      6.626
REMARK INTER + INTRA:         -10.323
REMARK INTER:                  -9.432
REMARK INTRA:                  -0.891
REMARK UNBOUND:                -0.770
REMARK  Name = 
REMARK  5 active torsions:
REMARK  status: ('A' for Active; 'I' for Inactive)
REMARK    1  A    between atoms: C_2  and  C_4
REMARK    2  A    between atoms: C_7  and  O_8
REMARK    3  A    between atoms: O_8  and  C_9
REMARK    4  A    between atoms: C_9  and  C_10
REMARK    5  A    between atoms: C_14  and  C_15
REMARK                            x       y       z     vdW  Elec       q    Type
REMARK                         _______ _______ _______ _____ _____    ______ ____
ROOT
ATOM      1  C   UNL     1      43.778   6.270  11.088  0.00  0.00    +0.000 C 
ENDROOT
BRANCH   1   2
ATOM      2  C   UNL     1      43.997   4.811  10.754  0.00  0.00    +0.000 A 
ATOM      3  C   UNL     1      43.293   3.822  11.451  0.00  0.00    +0.000 A 
ATOM      4  C   UNL     1      43.454   2.481  11.119  0.00  0.00    +0.000 A 
ATOM      5  C   UNL     1      44.306   2.115  10.073  0.00  0.00    +0.000 A 
ATOM      6  C   UNL     1      45.000   3.079   9.322  0.00  0.00    +0.000 A 
ATOM      7  C   UNL     1      44.828   4.427   9.689  0.00  0.00    +0.000 A 
BRANCH   6   8
ATOM      8  C   UNL     1      45.848   2.707   8.170  0.00  0.00    +0.000 A 
ATOM      9  C   UNL     1      46.110   3.590   7.112  0.00  0.00    +0.000 A 
ATOM     10  C   UNL     1      46.880   3.188   6.020  0.00  0.00    +0.000 A 
ATOM     11  C   UNL     1      47.389   1.903   6.015  0.00  0.00    +0.000 A 
ATOM     12  N   UNL     1      47.179   1.015   7.006  0.00  0.00    +0.000 NA
ATOM     13  C   UNL     1      46.415   1.436   8.046  0.00  0.00    +0.000 A 
ENDBRANCH   6   8
ENDBRANCH   1   2
BRANCH   1  14
ATOM     14  O   UNL     1      44.139   6.530  12.449  0.00  0.00    +0.000 OA
BRANCH  14  18
ATOM     15  C   UNL     1      48.194   7.045  12.921  0.00  0.00    +0.000 A 
ATOM     16  C   UNL     1      47.581   5.895  13.422  0.00  0.00    +0.000 A 
ATOM     17  C   UNL     1      46.204   5.733  13.258  0.00  0.00    +0.000 A 
ATOM     18  C   UNL     1      45.496   6.727  12.597  0.00  0.00    +0.000 A 
ATOM     19  N   UNL     1      46.062   7.851  12.108  0.00  0.00    +0.000 NA
ATOM     20  C   UNL     1      47.397   7.991  12.292  0.00  0.00    +0.000 A 
BRANCH  15  22
ATOM     21  N   UNL     1      50.374   7.343  11.891  0.00  0.00    +0.000 N 
ATOM     22  C   UNL     1      49.639   7.318  13.042  0.00  0.00    +0.000 C 
ATOM     23  O   UNL     1      50.152   7.554  14.126  0.00  0.00    +0.000 OA
ATOM     24  H   UNL     1      51.335   7.652  11.985  0.00  0.00    +0.000 HD
ATOM     25  H   UNL     1      49.951   7.413  10.976  0.00  0.00    +0.000 HD
ENDBRANCH  15  22
ENDBRANCH  14  18
ENDBRANCH   1  14
TORSDOF 5
ENDMDL
MODEL 5
REMARK VINA RESULT:    -7.169      4.551      8.151
REMARK INTER + INTRA:         -10.034
REMARK INTER:                  -9.477
REMARK INTRA:                  -0.557
REMARK UNBOUND:                -0.770
REMARK  Name = 
REMARK  5 active torsions:
REMARK  status: ('A' for Active; 'I' for Inactive)
REMARK    1  A    between atoms: C_2  and  C_4
REMARK    2  A    between atoms: C_7  and  O_8
REMARK    3  A    between atoms: O_8  and  C_9
REMARK    4  A    between atoms: C_9  and  C_10
REMARK    5  A    between atoms: C_14  and  C_15
REMARK                            x       y       z     vdW  Elec       q    Type
REMARK                         _______ _______ _______ _____ _____    ______ ____
ROOT
ATOM      1  C   UNL     1      46.061   5.109  13.998  0.00  0.00    +0.000 C 
ENDROOT
BRANCH   1   2
ATOM      2  C   UNL     1      45.150   4.852  12.817  0.00  0.00    +0.000 A 
ATOM      3  C   UNL     1      43.808   5.241  12.873  0.00  0.00    +0.000 A 
ATOM      4  C   UNL     1      42.976   5.050  11.774  0.00  0.00    +0.000 A 
ATOM      5  C   UNL     1      43.483   4.485  10.600  0.00  0.00    +0.000 A 
ATOM      6  C   UNL     1      44.835   4.118  10.489  0.00  0.00    +0.000 A 
ATOM      7  C   UNL     1      45.650   4.310  11.621  0.00  0.00    +0.000 A 
BRANCH   6   8
ATOM      8  C   UNL     1      45.396   3.585   9.230  0.00  0.00    +0.000 A 
ATOM      9  C   UNL     1      45.600   2.214   9.017  0.00  0.00    +0.000 A 
ATOM     10  C   UNL     1      46.173   1.752   7.832  0.00  0.00    +0.000 A 
ATOM     11  C   UNL     1      46.522   2.679   6.868  0.00  0.00    +0.000 A 
ATOM     12  N   UNL     1      46.343   4.006   7.013  0.00  0.00    +0.000 NA
ATOM     13  C   UNL     1      45.795   4.420   8.183  0.00  0.00    +0.000 A 
ENDBRANCH   6   8
ENDBRANCH   1   2
BRANCH   1  14
ATOM     14  O   UNL     1      46.449   3.872  14.606  0.00  0.00    +0.000 OA
BRANCH  14  18
ATOM     15  C   UNL     1      48.389   4.515  18.177  0.00  0.00    +0.000 A 
ATOM     16  C   UNL     1      48.642   5.356  17.092  0.00  0.00    +0.000 A 
ATOM     17  C   UNL     1      47.980   5.126  15.886  0.00  0.00    +0.000 A 
ATOM     18  C   UNL     1      47.089   4.065  15.812  0.00  0.00    +0.000 A 
ATOM     19  N   UNL     1      46.830   3.232  16.843  0.00  0.00    +0.000 NA
ATOM     20  C   UNL     1      47.495   3.467  17.999  0.00  0.00    +0.000 A 
BRANCH  15  22
ATOM     21  N   UNL     1      48.545   3.914  20.526  0.00  0.00    +0.000 N 
ATOM     22  C   UNL     1      49.035   4.665  19.495  0.00  0.00    +0.000 C 
ATOM     23  O   UNL     1      49.999   5.401  19.650  0.00  0.00    +0.000 OA
ATOM     24  H   UNL     1      49.079   3.942  21.387  0.00  0.00    +0.000 HD
ATOM     25  H   UNL     1      47.938   3.120  20.381  0.00  0.00    +0.000 HD
ENDBRANCH  15  22
ENDBRANCH  14  18
ENDBRANCH   1  14
TORSDOF 5
ENDMDL
MODEL 6
REMARK VINA RESULT:    -6.787      5.359      7.951
REMARK INTER + INTRA:          -9.541
REMARK INTER:                  -8.786
REMARK INTRA:                  -0.755
REMARK UNBOUND:                -0.770
REMARK  Name = 
REMARK  5 active torsions:
REMARK  status: ('A' for Active; 'I' for Inactive)
REMARK    1  A    between atoms: C_2  and  C_4
REMARK    2  A    between atoms: C_7  and  O_8
REMARK    3  A    between atoms: O_8  and  C_9
REMARK    4  A    between atoms: C_9  and  C_10
REMARK    5  A    between atoms: C_14  and  C_15
REMARK                            x       y       z     vdW  Elec       q    Type
REMARK                         _______ _______ _______ _____ _____    ______ ____
ROOT
ATOM      1  C   UNL     1      48.797   6.514  15.749  0.00  0.00    +0.000 C 
ENDROOT
BRANCH   1   2
ATOM      2  C   UNL     1      48.261   6.615  14.338  0.00  0.00    +0.000 A 
ATOM      3  C   UNL     1      48.897   7.443  13.407  0.00  0.00    +0.000 A 
ATOM      4  C   UNL     1      48.438   7.506  12.095  0.00  0.00    +0.000 A 
ATOM      5  C   UNL     1      47.349   6.726  11.695  0.00  0.00    +0.000 A 
ATOM      6  C   UNL     1      46.707   5.852  12.589  0.00  0.00    +0.000 A 
ATOM      7  C   UNL     1      47.184   5.819  13.913  0.00  0.00    +0.000 A 
BRANCH   6   8
ATOM      8  C   UNL     1      45.600   4.972  12.158  0.00  0.00    +0.000 A 
ATOM      9  C   UNL     1      44.900   5.176  10.960  0.00  0.00    +0.000 A 
ATOM     10  C   UNL     1      43.831   4.350  10.608  0.00  0.00    +0.000 A 
ATOM     11  C   UNL     1      43.491   3.319  11.463  0.00  0.00    +0.000 A 
ATOM     12  N   UNL     1      44.132   3.070  12.621  0.00  0.00    +0.000 NA
ATOM     13  C   UNL     1      45.158   3.900  12.937  0.00  0.00    +0.000 A 
ENDBRANCH   6   8
ENDBRANCH   1   2
BRANCH   1  14
ATOM     14  O   UNL     1      48.208   5.398  16.426  0.00  0.00    +0.000 OA
BRANCH  14  18
ATOM     15  C   UNL     1      50.952   2.500  17.428  0.00  0.00    +0.000 A 
ATOM     16  C   UNL     1      49.648   2.131  17.095  0.00  0.00    +0.000 A 
ATOM     17  C   UNL     1      48.726   3.123  16.760  0.00  0.00    +0.000 A 
ATOM     18  C   UNL     1      49.145   4.445  16.769  0.00  0.00    +0.000 A 
ATOM     19  N   UNL     1      50.398   4.831  17.093  0.00  0.00    +0.000 NA
ATOM     20  C   UNL     1      51.271   3.851  17.427  0.00  0.00    +0.000 A 
BRANCH  15  22
ATOM     21  N   UNL     1      51.616   0.251  18.067  0.00  0.00    +0.000 N 
ATOM     22  C   UNL     1      52.004   1.535  17.801  0.00  0.00    +0.000 C 
ATOM     23  O   UNL     1      53.182   1.859  17.830  0.00  0.00    +0.000 OA
ATOM     24  H   UNL     1      52.365  -0.419  18.201  0.00  0.00    +0.000 HD
ATOM     25  H   UNL     1      50.710  -0.109  17.805  0.00  0.00    +0.000 HD
ENDBRANCH  15  22
ENDBRANCH  14  18
ENDBRANCH   1  14
TORSDOF 5
ENDMDL
MODEL 7
REMARK VINA RESULT:    -6.392      4.797      8.481
REMARK INTER + INTRA:          -9.030
REMARK INTER:                  -8.351
REMARK INTRA:                  -0.679
REMARK UNBOUND:                -0.770
REMARK  Name = 
REMARK  5 active torsions:
REMARK  status: ('A' for Active; 'I' for Inactive)
REMARK    1  A    between atoms: C_2  and  C_4
REMARK    2  A    between atoms: C_7  and  O_8
REMARK    3  A    between atoms: O_8  and  C_9
REMARK    4  A    between atoms: C_9  and  C_10
REMARK    5  A    between atoms: C_14  and  C_15
REMARK                            x       y       z     vdW  Elec       q    Type
REMARK                         _______ _______ _______ _____ _____    ______ ____
ROOT
ATOM      1  C   UNL     1      48.260   6.822  14.150  0.00  0.00    +0.000 C 
ENDROOT
BRANCH   1   2
ATOM      2  C   UNL     1      47.075   6.985  13.224  0.00  0.00    +0.000 A 
ATOM      3  C   UNL     1      46.408   8.213  13.153  0.00  0.00    +0.000 A 
ATOM      4  C   UNL     1      45.347   8.384  12.270  0.00  0.00    +0.000 A 
ATOM      5  C   UNL     1      44.953   7.335  11.434  0.00  0.00    +0.000 A 
ATOM      6  C   UNL     1      45.623   6.100  11.445  0.00  0.00    +0.000 A 
ATOM      7  C   UNL     1      46.684   5.950  12.358  0.00  0.00    +0.000 A 
BRANCH   6   8
ATOM      8  C   UNL     1      45.260   5.008  10.517  0.00  0.00    +0.000 A 
ATOM      9  C   UNL     1      45.681   4.987   9.179  0.00  0.00    +0.000 A 
ATOM     10  C   UNL     1      45.282   3.962   8.320  0.00  0.00    +0.000 A 
ATOM     11  C   UNL     1      44.472   2.962   8.826  0.00  0.00    +0.000 A 
ATOM     12  N   UNL     1      44.043   2.926  10.102  0.00  0.00    +0.000 NA
ATOM     13  C   UNL     1      44.441   3.944  10.905  0.00  0.00    +0.000 A 
ENDBRANCH   6   8
ENDBRANCH   1   2
BRANCH   1  14
ATOM     14  O   UNL     1      48.289   5.498  14.694  0.00  0.00    +0.000 OA
BRANCH  14  18
ATOM     15  C   UNL     1      48.192   5.582  18.806  0.00  0.00    +0.000 A 
ATOM     16  C   UNL     1      48.744   6.656  18.106  0.00  0.00    +0.000 A 
ATOM     17  C   UNL     1      48.774   6.614  16.712  0.00  0.00    +0.000 A 
ATOM     18  C   UNL     1      48.248   5.501  16.072  0.00  0.00    +0.000 A 
ATOM     19  N   UNL     1      47.713   4.446  16.724  0.00  0.00    +0.000 NA
ATOM     20  C   UNL     1      47.708   4.504  18.077  0.00  0.00    +0.000 A 
BRANCH  15  22
ATOM     21  N   UNL     1      48.297   4.302  20.869  0.00  0.00    +0.000 N 
ATOM     22  C   UNL     1      48.113   5.521  20.278  0.00  0.00    +0.000 C 
ATOM     23  O   UNL     1      47.932   6.528  20.947  0.00  0.00    +0.000 OA
ATOM     24  H   UNL     1      48.359   4.305  21.881  0.00  0.00    +0.000 HD
ATOM     25  H   UNL     1      48.700   3.515  20.381  0.00  0.00    +0.000 HD
ENDBRANCH  15  22
ENDBRANCH  14  18
ENDBRANCH   1  14
TORSDOF 5
ENDMDL
MODEL 8
REMARK VINA RESULT:    -6.384      5.516      7.627
REMARK INTER + INTRA:          -9.020
REMARK INTER:                  -8.416
REMARK INTRA:                  -0.604
REMARK UNBOUND:                -0.770
REMARK  Name = 
REMARK  5 active torsions:
REMARK  status: ('A' for Active; 'I' for Inactive)
REMARK    1  A    between atoms: C_2  and  C_4
REMARK    2  A    between atoms: C_7  and  O_8
REMARK    3  A    between atoms: O_8  and  C_9
REMARK    4  A    between atoms: C_9  and  C_10
REMARK    5  A    between atoms: C_14  and  C_15
REMARK                            x       y       z     vdW  Elec       q    Type
REMARK                         _______ _______ _______ _____ _____    ______ ____
ROOT
ATOM      1  C   UNL     1      47.121   4.018  16.015  0.00  0.00    +0.000 C 
ENDROOT
BRANCH   1   2
ATOM      2  C   UNL     1      48.293   4.346  16.913  0.00  0.00    +0.000 A 
ATOM      3  C   UNL     1      48.233   5.456  17.762  0.00  0.00    +0.000 A 
ATOM      4  C   UNL     1      49.288   5.737  18.624  0.00  0.00    +0.000 A 
ATOM      5  C   UNL     1      50.407   4.900  18.661  0.00  0.00    +0.000 A 
ATOM      6  C   UNL     1      50.488   3.752  17.855  0.00  0.00    +0.000 A 
ATOM      7  C   UNL     1      49.413   3.499  16.982  0.00  0.00    +0.000 A 
BRANCH   6   8
ATOM      8  C   UNL     1      51.634   2.822  17.937  0.00  0.00    +0.000 A 
ATOM      9  C   UNL     1      51.588   1.523  17.412  0.00  0.00    +0.000 A 
ATOM     10  C   UNL     1      52.675   0.658  17.548  0.00  0.00    +0.000 A 
ATOM     11  C   UNL     1      53.802   1.120  18.201  0.00  0.00    +0.000 A 
ATOM     12  N   UNL     1      53.907   2.360  18.718  0.00  0.00    +0.000 NA
ATOM     13  C   UNL     1      52.827   3.169  18.578  0.00  0.00    +0.000 A 
ENDBRANCH   6   8
ENDBRANCH   1   2
BRANCH   1  14
ATOM     14  O   UNL     1      47.558   3.874  14.658  0.00  0.00    +0.000 OA
BRANCH  14  18
ATOM     15  C   UNL     1      44.669   5.044  11.973  0.00  0.00    +0.000 A 
ATOM     16  C   UNL     1      45.451   6.009  12.609  0.00  0.00    +0.000 A 
ATOM     17  C   UNL     1      46.426   5.600  13.520  0.00  0.00    +0.000 A 
ATOM     18  C   UNL     1      46.581   4.241  13.757  0.00  0.00    +0.000 A 
ATOM     19  N   UNL     1      45.835   3.287  13.160  0.00  0.00    +0.000 NA
ATOM     20  C   UNL     1      44.887   3.710  12.290  0.00  0.00    +0.000 A 
BRANCH  15  22
ATOM     21  N   UNL     1      42.805   6.436  11.270  0.00  0.00    +0.000 N 
ATOM     22  C   UNL     1      43.610   5.366  10.997  0.00  0.00    +0.000 C 
ATOM     23  O   UNL     1      43.484   4.726   9.963  0.00  0.00    +0.000 OA
ATOM     24  H   UNL     1      42.168   6.711  10.531  0.00  0.00    +0.000 HD
ATOM     25  H   UNL     1      43.039   7.131  11.964  0.00  0.00    +0.000 HD
ENDBRANCH  15  22
ENDBRANCH  14  18
ENDBRANCH   1  14
TORSDOF 5
ENDMDL
MODEL 9
REMARK VINA RESULT:    -6.009      3.645      5.851
REMARK INTER + INTRA:          -8.536
REMARK INTER:                  -7.759
REMARK INTRA:                  -0.777
REMARK UNBOUND:                -0.770
REMARK  Name = 
REMARK  5 active torsions:
REMARK  status: ('A' for Active; 'I' for Inactive)
REMARK    1  A    between atoms: C_2  and  C_4
REMARK    2  A    between atoms: C_7  and  O_8
REMARK    3  A    between atoms: O_8  and  C_9
REMARK    4  A    between atoms: C_9  and  C_10
REMARK    5  A    between atoms: C_14  and  C_15
REMARK                            x       y       z     vdW  Elec       q    Type
REMARK                         _______ _______ _______ _____ _____    ______ ____
ROOT
ATOM      1  C   UNL     1      47.090   8.131  12.571  0.00  0.00    +0.000 C 
ENDROOT
BRANCH   1   2
ATOM      2  C   UNL     1      47.932   7.978  13.819  0.00  0.00    +0.000 A 
ATOM      3  C   UNL     1      48.631   9.078  14.329  0.00  0.00    +0.000 A 
ATOM      4  C   UNL     1      49.369   8.956  15.502  0.00  0.00    +0.000 A 
ATOM      5  C   UNL     1      49.401   7.739  16.188  0.00  0.00    +0.000 A 
ATOM      6  C   UNL     1      48.681   6.622  15.731  0.00  0.00    +0.000 A 
ATOM      7  C   UNL     1      47.953   6.770  14.535  0.00  0.00    +0.000 A 
BRANCH   6   8
ATOM      8  C   UNL     1      48.652   5.352  16.486  0.00  0.00    +0.000 A 
ATOM      9  C   UNL     1      47.595   4.437  16.379  0.00  0.00    +0.000 A 
ATOM     10  C   UNL     1      47.581   3.268  17.142  0.00  0.00    +0.000 A 
ATOM     11  C   UNL     1      48.642   3.030  17.995  0.00  0.00    +0.000 A 
ATOM     12  N   UNL     1      49.688   3.868  18.133  0.00  0.00    +0.000 NA
ATOM     13  C   UNL     1      49.662   5.000  17.386  0.00  0.00    +0.000 A 
ENDBRANCH   6   8
ENDBRANCH   1   2
BRANCH   1  14
ATOM     14  O   UNL     1      45.709   7.903  12.871  0.00  0.00    +0.000 OA
BRANCH  14  18
ATOM     15  C   UNL     1      44.436   4.288  11.373  0.00  0.00    +0.000 A 
ATOM     16  C   UNL     1      45.263   5.104  10.599  0.00  0.00    +0.000 A 
ATOM     17  C   UNL     1      45.685   6.329  11.117  0.00  0.00    +0.000 A 
ATOM     18  C   UNL     1      45.266   6.689  12.390  0.00  0.00    +0.000 A 
ATOM     19  N   UNL     1      44.463   5.922  13.159  0.00  0.00    +0.000 NA
ATOM     20  C   UNL     1      44.056   4.744  12.628  0.00  0.00    +0.000 A 
BRANCH  15  22
ATOM     21  N   UNL     1      43.402   2.146  11.871  0.00  0.00    +0.000 N 
ATOM     22  C   UNL     1      43.930   2.978  10.923  0.00  0.00    +0.000 C 
ATOM     23  O   UNL     1      43.942   2.664   9.742  0.00  0.00    +0.000 OA
ATOM     24  H   UNL     1      42.952   1.307  11.524  0.00  0.00    +0.000 HD
ATOM     25  H   UNL     1      43.140   2.467  12.792  0.00  0.00    +0.000 HD
ENDBRANCH  15  22
ENDBRANCH  14  18
ENDBRANCH   1  14
TORSDOF 5
ENDMDL
