MODEL 1
REMARK VINA RESULT:    -9.342      0.000      0.000
REMARK INTER + INTRA:         -11.878
REMARK INTER:                 -11.800
REMARK INTRA:                  -0.078
REMARK UNBOUND:                -0.078
REMARK  Name = 
REMARK  5 active torsions:
REMARK  status: ('A' for Active; 'I' for Inactive)
REMARK    1  A    between atoms: C_2  and  C_4
REMARK    2  A    between atoms: N_8  and  C_9
REMARK    3  A    between atoms: C_9  and  C_10
REMARK    4  A    between atoms: C_14  and  C_15
REMARK    5  A    between atoms: C_19  and  O_20
REMARK                            x       y       z     vdW  Elec       q    Type
REMARK                         _______ _______ _______ _____ _____    ______ ____
ROOT
ATOM      1  C   UNL     1      43.869   4.937  11.412  0.00  0.00    +0.000 C 
ATOM      2  C   UNL     1      42.709   5.156  12.373  0.00  0.00    +0.000 C 
ATOM      3  C   UNL     1      42.834   6.012  11.154  0.00  0.00    +0.000 C 
ENDROOT
BRANCH   1   8
ATOM      4  C   UNL     1      46.391   2.710   7.579  0.00  0.00    +0.000 A 
ATOM      5  C   UNL     1      46.011   1.810   8.542  0.00  0.00    +0.000 A 
ATOM      6  N   UNL     1      45.211   2.128   9.584  0.00  0.00    +0.000 NA
ATOM      7  C   UNL     1      44.803   3.406   9.676  0.00  0.00    +0.000 A 
ATOM      8  N   UNL     1      43.863   3.658  10.679  0.00  0.00    +0.000 N 
ATOM      9  N   UNL     1      45.193   4.373   8.828  0.00  0.00    +0.000 NA
ATOM     10  C   UNL     1      45.981   4.003   7.792  0.00  0.00    +0.000 A 
ATOM     11  H   UNL     1      43.876   2.823  11.257  0.00  0.00    +0.000 HD
BRANCH   4  13
ATOM     12  N   UNL     1      47.083   3.206   5.310  0.00  0.00    +0.000 N 
ATOM     13  C   UNL     1      47.152   2.351   6.381  0.00  0.00    +0.000 C 
ATOM     14  O   UNL     1      47.870   1.360   6.353  0.00  0.00    +0.000 OA
ATOM     15  H   UNL     1      47.727   3.018   4.548  0.00  0.00    +0.000 HD
ATOM     16  H   UNL     1      46.729   4.150   5.382  0.00  0.00    +0.000 HD
ENDBRANCH   4  13
ENDBRANCH   1   8
BRANCH   1  17
ATOM     17  C   UNL     1      45.273   5.332  11.852  0.00  0.00    +0.000 A 
ATOM     18  C   UNL     1      46.041   6.249  11.118  0.00  0.00    +0.000 A 
ATOM     19  C   UNL     1      47.246   6.743  11.614  0.00  0.00    +0.000 A 
ATOM     20  C   UNL     1      47.701   6.338  12.871  0.00  0.00    +0.000 A 
ATOM     21  C   UNL     1      46.974   5.420  13.645  0.00  0.00    +0.000 A 
ATOM     22  C   UNL     1      45.781   4.910  13.097  0.00  0.00    +0.000 A 
BRANCH  21  23
ATOM     23  C   UNL     1      47.397   5.059  15.012  0.00  0.00    +0.000 A 
ATOM     24  C   UNL     1      48.405   5.767  15.680  0.00  0.00    +0.000 A 
ATOM     25  N   UNL     1      48.826   5.530  16.950  0.00  0.00    +0.000 NA
ATOM     26  C   UNL     1      48.200   4.531  17.609  0.00  0.00    +0.000 A 
ATOM     27  C   UNL     1      47.190   3.768  17.050  0.00  0.00    +0.000 A 
ATOM     28  C   UNL     1      46.789   4.029  15.745  0.00  0.00    +0.000 A 
BRANCH  27  29
ATOM     29  O   UNL     1      46.559   2.769  17.728  0.00  0.00    +0.000 OA
ATOM     30  H   UNL     1      46.917   2.722  18.630  0.00  0.00    +0.000 HD
ENDBRANCH  27  29
ENDBRANCH  21  23
ENDBRANCH   1  17
TORSDOF 5
ENDMDL
MODEL 2
REMARK VINA RESULT:    -9.036      2.624      3.619
REMARK INTER + INTRA:         -11.491
REMARK INTER:                 -10.666
REMARK INTRA:                  -0.826
REMARK UNBOUND:                -0.078
REMARK  Name = 
REMARK  5 active torsions:
REMARK  status: ('A' for Active; 'I' for Inactive)
REMARK    1  A    between atoms: C_2  and  C_4
REMARK    2  A    between atoms: N_8  and  C_9
REMARK    3  A    between atoms: C_9  and  C_10
REMARK    4  A    between atoms: C_14  and  C_15
REMARK    5  A    between atoms: C_19  and  O_20
REMARK                            x       y       z     vdW  Elec       q    Type
REMARK                         _______ _______ _______ _____ _____    ______ ____
ROOT
ATOM      1  C   UNL     1      43.753   4.951  11.391  0.00  0.00    +0.000 C 
ATOM      2  C   UNL     1      42.433   5.375  12.020  0.00  0.00    +0.000 C 
ATOM      3  C   UNL     1      43.036   6.203  10.932  0.00  0.00    +0.000 C 
ENDROOT
BRANCH   1   8
ATOM      4  C   UNL     1      46.398   2.704   7.654  0.00  0.00    +0.000 A 
ATOM      5  C   UNL     1      45.895   1.797   8.552  0.00  0.00    +0.000 A 
ATOM      6  N   UNL     1      45.044   2.128   9.548  0.00  0.00    +0.000 NA
ATOM      7  C   UNL     1      44.710   3.426   9.664  0.00  0.00    +0.000 A 
ATOM      8  N   UNL     1      43.719   3.702  10.609  0.00  0.00    +0.000 N 
ATOM      9  N   UNL     1      45.220   4.395   8.885  0.00  0.00    +0.000 NA
ATOM     10  C   UNL     1      46.056   4.012   7.891  0.00  0.00    +0.000 A 
ATOM     11  H   UNL     1      43.639   2.848  11.153  0.00  0.00    +0.000 HD
BRANCH   4  13
ATOM     12  N   UNL     1      47.167   3.165   5.403  0.00  0.00    +0.000 N 
ATOM     13  C   UNL     1      47.219   2.340   6.498  0.00  0.00    +0.000 C 
ATOM     14  O   UNL     1      47.967   1.372   6.526  0.00  0.00    +0.000 OA
ATOM     15  H   UNL     1      47.848   2.979   4.674  0.00  0.00    +0.000 HD
ATOM     16  H   UNL     1      46.782   4.098   5.436  0.00  0.00    +0.000 HD
ENDBRANCH   4  13
ENDBRANCH   1   8
BRANCH   1  17
ATOM     17  C   UNL     1      45.031   5.071  12.213  0.00  0.00    +0.000 A 
ATOM     18  C   UNL     1      45.465   4.032  13.050  0.00  0.00    +0.000 A 
ATOM     19  C   UNL     1      46.718   4.070  13.658  0.00  0.00    +0.000 A 
ATOM     20  C   UNL     1      47.573   5.148  13.426  0.00  0.00    +0.000 A 
ATOM     21  C   UNL     1      47.188   6.216  12.600  0.00  0.00    +0.000 A 
ATOM     22  C   UNL     1      45.901   6.166  12.033  0.00  0.00    +0.000 A 
BRANCH  21  23
ATOM     23  C   UNL     1      48.120   7.312  12.273  0.00  0.00    +0.000 A 
ATOM     24  C   UNL     1      47.671   8.626  12.081  0.00  0.00    +0.000 A 
ATOM     25  N   UNL     1      48.462   9.700  11.820  0.00  0.00    +0.000 NA
ATOM     26  C   UNL     1      49.790   9.460  11.756  0.00  0.00    +0.000 A 
ATOM     27  C   UNL     1      50.345   8.205  11.932  0.00  0.00    +0.000 A 
ATOM     28  C   UNL     1      49.508   7.125  12.188  0.00  0.00    +0.000 A 
BRANCH  27  29
ATOM     29  O   UNL     1      51.687   7.978  11.876  0.00  0.00    +0.000 OA
ATOM     30  H   UNL     1      52.152   8.703  12.326  0.00  0.00    +0.000 HD
ENDBRANCH  27  29
ENDBRANCH  21  23
ENDBRANCH   1  17
TORSDOF 5
ENDMDL
MODEL 3
REMARK VINA RESULT:    -7.407      2.753      8.272
REMARK INTER + INTRA:          -9.433
REMARK INTER:                  -8.710
REMARK INTRA:                  -0.723
REMARK UNBOUND:                -0.078
REMARK  Name = 
REMARK  5 active torsions:
REMARK  status: ('A' for Active; 'I' for Inactive)
REMARK    1  A    between atoms: C_2  and  C_4
REMARK    2  A    between atoms: N_8  and  C_9
REMARK    3  A    between atoms: C_9  and  C_10
REMARK    4  A    between atoms: C_14  and  C_15
REMARK    5  A    between atoms: C_19  and  O_20
REMARK                            x       y       z     vdW  Elec       q    Type
REMARK                         _______ _______ _______ _____ _____    ______ ____
ROOT
ATOM      1  C   UNL     1      49.054   7.963  12.587  0.00  0.00    +0.000 C 
ATOM      2  C   UNL     1      49.960   8.198  11.387  0.00  0.00    +0.000 C 
ATOM      3  C   UNL     1      49.712   9.308  12.356  0.00  0.00    +0.000 C 
ENDROOT
BRANCH   1   8
ATOM      4  C   UNL     1      48.586   7.081  17.588  0.00  0.00    +0.000 A 
ATOM      5  C   UNL     1      48.726   5.922  16.868  0.00  0.00    +0.000 A 
ATOM      6  N   UNL     1      49.008   5.896  15.547  0.00  0.00    +0.000 NA
ATOM      7  C   UNL     1      49.123   7.081  14.920  0.00  0.00    +0.000 A 
ATOM      8  N   UNL     1      49.557   7.012  13.594  0.00  0.00    +0.000 N 
ATOM      9  N   UNL     1      48.918   8.263  15.526  0.00  0.00    +0.000 NA
ATOM     10  C   UNL     1      48.654   8.238  16.853  0.00  0.00    +0.000 A 
ATOM     11  H   UNL     1      49.473   6.030  13.348  0.00  0.00    +0.000 HD
BRANCH   4  13
ATOM     12  N   UNL     1      47.482   6.268  19.586  0.00  0.00    +0.000 N 
ATOM     13  C   UNL     1      48.406   7.123  19.041  0.00  0.00    +0.000 C 
ATOM     14  O   UNL     1      49.092   7.848  19.748  0.00  0.00    +0.000 OA
ATOM     15  H   UNL     1      47.476   6.209  20.599  0.00  0.00    +0.000 HD
ATOM     16  H   UNL     1      47.098   5.481  19.083  0.00  0.00    +0.000 HD
ENDBRANCH   4  13
ENDBRANCH   1   8
BRANCH   1  17
ATOM     17  C   UNL     1      47.556   7.807  12.358  0.00  0.00    +0.000 A 
ATOM     18  C   UNL     1      46.672   8.884  12.525  0.00  0.00    +0.000 A 
ATOM     19  C   UNL     1      45.335   8.787  12.144  0.00  0.00    +0.000 A 
ATOM     20  C   UNL     1      44.858   7.608  11.568  0.00  0.00    +0.000 A 
ATOM     21  C   UNL     1      45.698   6.499  11.381  0.00  0.00    +0.000 A 
ATOM     22  C   UNL     1      47.032   6.616  11.814  0.00  0.00    +0.000 A 
BRANCH  21  23
ATOM     23  C   UNL     1      45.227   5.284  10.689  0.00  0.00    +0.000 A 
ATOM     24  C   UNL     1      45.570   5.017   9.357  0.00  0.00    +0.000 A 
ATOM     25  N   UNL     1      45.216   3.906   8.659  0.00  0.00    +0.000 NA
ATOM     26  C   UNL     1      44.483   2.990   9.327  0.00  0.00    +0.000 A 
ATOM     27  C   UNL     1      44.090   3.147  10.645  0.00  0.00    +0.000 A 
ATOM     28  C   UNL     1      44.459   4.299  11.328  0.00  0.00    +0.000 A 
BRANCH  27  29
ATOM     29  O   UNL     1      43.359   2.211  11.312  0.00  0.00    +0.000 OA
ATOM     30  H   UNL     1      43.184   1.461  10.718  0.00  0.00    +0.000 HD
ENDBRANCH  27  29
ENDBRANCH  21  23
ENDBRANCH   1  17
TORSDOF 5
ENDMDL
MODEL 4
REMARK VINA RESULT:    -7.370      1.979      7.838
REMARK INTER + INTRA:          -9.387
REMARK INTER:                  -9.743
REMARK INTRA:                   0.357
REMARK UNBOUND:                -0.078
REMARK  Name = 
REMARK  5 active torsions:
REMARK  status: ('A' for Active; 'I' for Inactive)
REMARK    1  A    between atoms: C_2  and  C_4
REMARK    2  A    between atoms: N_8  and  C_9
REMARK    3  A    between atoms: C_9  and  C_10
REMARK    4  A    between atoms: C_14  and  C_15
REMARK    5  A    between atoms: C_19  and  O_20
REMARK                            x       y       z     vdW  Elec       q    Type
REMARK                         _______ _______ _______ _____ _____    ______ ____
ROOT
ATOM      1  C   UNL     1      48.693   7.751  13.048  0.00  0.00    +0.000 C 
ATOM      2  C   UNL     1      49.796   7.031  12.286  0.00  0.00    +0.000 C 
ATOM      3  C   UNL     1      49.675   8.517  12.188  0.00  0.00    +0.000 C 
ENDROOT
BRANCH   1   8
ATOM      4  C   UNL     1      48.093   4.418  16.861  0.00  0.00    +0.000 A 
ATOM      5  C   UNL     1      49.101   5.314  17.109  0.00  0.00    +0.000 A 
ATOM      6  N   UNL     1      49.361   6.379  16.320  0.00  0.00    +0.000 NA
ATOM      7  C   UNL     1      48.598   6.531  15.223  0.00  0.00    +0.000 A 
ATOM      8  N   UNL     1      48.802   7.720  14.518  0.00  0.00    +0.000 N 
ATOM      9  N   UNL     1      47.645   5.657  14.855  0.00  0.00    +0.000 NA
ATOM     10  C   UNL     1      47.411   4.615  15.686  0.00  0.00    +0.000 A 
ATOM     11  H   UNL     1      49.663   8.099  14.900  0.00  0.00    +0.000 HD
BRANCH   4  13
ATOM     12  N   UNL     1      48.490   3.163  18.896  0.00  0.00    +0.000 N 
ATOM     13  C   UNL     1      47.721   3.333  17.773  0.00  0.00    +0.000 C 
ATOM     14  O   UNL     1      46.729   2.644  17.574  0.00  0.00    +0.000 OA
ATOM     15  H   UNL     1      48.133   2.506  19.583  0.00  0.00    +0.000 HD
ATOM     16  H   UNL     1      49.137   3.862  19.231  0.00  0.00    +0.000 HD
ENDBRANCH   4  13
ENDBRANCH   1   8
BRANCH   1  17
ATOM     17  C   UNL     1      47.251   7.588  12.584  0.00  0.00    +0.000 A 
ATOM     18  C   UNL     1      46.330   8.643  12.666  0.00  0.00    +0.000 A 
ATOM     19  C   UNL     1      45.069   8.550  12.080  0.00  0.00    +0.000 A 
ATOM     20  C   UNL     1      44.710   7.397  11.380  0.00  0.00    +0.000 A 
ATOM     21  C   UNL     1      45.591   6.310  11.269  0.00  0.00    +0.000 A 
ATOM     22  C   UNL     1      46.841   6.420  11.907  0.00  0.00    +0.000 A 
BRANCH  21  23
ATOM     23  C   UNL     1      45.257   5.127  10.453  0.00  0.00    +0.000 A 
ATOM     24  C   UNL     1      44.425   4.109  10.940  0.00  0.00    +0.000 A 
ATOM     25  N   UNL     1      44.034   3.010  10.243  0.00  0.00    +0.000 NA
ATOM     26  C   UNL     1      44.485   2.916   8.974  0.00  0.00    +0.000 A 
ATOM     27  C   UNL     1      45.308   3.863   8.388  0.00  0.00    +0.000 A 
ATOM     28  C   UNL     1      45.699   4.970   9.131  0.00  0.00    +0.000 A 
BRANCH  27  29
ATOM     29  O   UNL     1      45.748   3.762   7.103  0.00  0.00    +0.000 OA
ATOM     30  H   UNL     1      46.702   3.950   7.078  0.00  0.00    +0.000 HD
ENDBRANCH  27  29
ENDBRANCH  21  23
ENDBRANCH   1  17
TORSDOF 5
ENDMDL
MODEL 5
REMARK VINA RESULT:    -7.242      3.240      4.982
REMARK INTER + INTRA:          -9.225
REMARK INTER:                  -8.605
REMARK INTRA:                  -0.619
REMARK UNBOUND:                -0.078
REMARK  Name = 
REMARK  5 active torsions:
REMARK  status: ('A' for Active; 'I' for Inactive)
REMARK    1  A    between atoms: C_2  and  C_4
REMARK    2  A    between atoms: N_8  and  C_9
REMARK    3  A    between atoms: C_9  and  C_10
REMARK    4  A    between atoms: C_14  and  C_15
REMARK    5  A    between atoms: C_19  and  O_20
REMARK                            x       y       z     vdW  Elec       q    Type
REMARK                         _______ _______ _______ _____ _____    ______ ____
ROOT
ATOM      1  C   UNL     1      48.209   8.504  12.748  0.00  0.00    +0.000 C 
ATOM      2  C   UNL     1      48.988   9.563  11.982  0.00  0.00    +0.000 C 
ATOM      3  C   UNL     1      49.266   8.115  11.737  0.00  0.00    +0.000 C 
ENDROOT
BRANCH   1   8
ATOM      4  C   UNL     1      44.635   4.923  12.099  0.00  0.00    +0.000 A 
ATOM      5  C   UNL     1      44.133   6.056  12.688  0.00  0.00    +0.000 A 
ATOM      6  N   UNL     1      44.844   7.195  12.837  0.00  0.00    +0.000 NA
ATOM      7  C   UNL     1      46.118   7.184  12.404  0.00  0.00    +0.000 A 
ATOM      8  N   UNL     1      46.769   8.420  12.442  0.00  0.00    +0.000 N 
ATOM      9  N   UNL     1      46.719   6.096  11.894  0.00  0.00    +0.000 NA
ATOM     10  C   UNL     1      45.961   4.984  11.750  0.00  0.00    +0.000 A 
ATOM     11  H   UNL     1      46.167   9.009  13.010  0.00  0.00    +0.000 HD
BRANCH   4  13
ATOM     12  N   UNL     1      44.134   2.592  12.531  0.00  0.00    +0.000 N 
ATOM     13  C   UNL     1      43.838   3.727  11.819  0.00  0.00    +0.000 C 
ATOM     14  O   UNL     1      42.907   3.751  11.026  0.00  0.00    +0.000 OA
ATOM     15  H   UNL     1      43.482   1.821  12.429  0.00  0.00    +0.000 HD
ATOM     16  H   UNL     1      44.700   2.600  13.368  0.00  0.00    +0.000 HD
ENDBRANCH   4  13
ENDBRANCH   1   8
BRANCH   1  17
ATOM     17  C   UNL     1      48.483   8.320  14.236  0.00  0.00    +0.000 A 
ATOM     18  C   UNL     1      48.387   9.392  15.137  0.00  0.00    +0.000 A 
ATOM     19  C   UNL     1      48.462   9.187  16.513  0.00  0.00    +0.000 A 
ATOM     20  C   UNL     1      48.619   7.895  17.019  0.00  0.00    +0.000 A 
ATOM     21  C   UNL     1      48.724   6.788  16.162  0.00  0.00    +0.000 A 
ATOM     22  C   UNL     1      48.685   7.034  14.776  0.00  0.00    +0.000 A 
BRANCH  21  23
ATOM     23  C   UNL     1      48.795   5.411  16.688  0.00  0.00    +0.000 A 
ATOM     24  C   UNL     1      50.019   4.808  17.005  0.00  0.00    +0.000 A 
ATOM     25  N   UNL     1      50.172   3.564  17.532  0.00  0.00    +0.000 NA
ATOM     26  C   UNL     1      49.037   2.874  17.772  0.00  0.00    +0.000 A 
ATOM     27  C   UNL     1      47.774   3.372  17.501  0.00  0.00    +0.000 A 
ATOM     28  C   UNL     1      47.651   4.643  16.953  0.00  0.00    +0.000 A 
BRANCH  27  29
ATOM     29  O   UNL     1      46.635   2.670  17.757  0.00  0.00    +0.000 OA
ATOM     30  H   UNL     1      46.602   2.452  18.704  0.00  0.00    +0.000 HD
ENDBRANCH  27  29
ENDBRANCH  21  23
ENDBRANCH   1  17
TORSDOF 5
ENDMDL
MODEL 6
REMARK VINA RESULT:    -7.120      2.567      4.350
REMARK INTER + INTRA:          -9.071
REMARK INTER:                  -8.873
REMARK INTRA:                  -0.198
REMARK UNBOUND:                -0.078
REMARK  Name = 
REMARK  5 active torsions:
REMARK  status: ('A' for Active; 'I' for Inactive)
REMARK    1  A    between atoms: C_2  and  C_4
REMARK    2  A    between atoms: N_8  and  C_9
REMARK    3  A    between atoms: C_9  and  C_10
REMARK    4  A    between atoms: C_14  and  C_15
REMARK    5  A    between atoms: C_19  and  O_20
REMARK                            x       y       z     vdW  Elec       q    Type
REMARK                         _______ _______ _______ _____ _____    ______ ____
ROOT
ATOM      1  C   UNL     1      47.631   8.462  13.146  0.00  0.00    +0.000 C 
ATOM      2  C   UNL     1      47.566   9.977  13.013  0.00  0.00    +0.000 C 
ATOM      3  C   UNL     1      47.946   9.145  11.832  0.00  0.00    +0.000 C 
ENDROOT
BRANCH   1   8
ATOM      4  C   UNL     1      44.774   4.819  11.006  0.00  0.00    +0.000 A 
ATOM      5  C   UNL     1      44.681   4.815  12.375  0.00  0.00    +0.000 A 
ATOM      6  N   UNL     1      45.229   5.767  13.161  0.00  0.00    +0.000 NA
ATOM      7  C   UNL     1      45.922   6.744  12.550  0.00  0.00    +0.000 A 
ATOM      8  N   UNL     1      46.344   7.783  13.383  0.00  0.00    +0.000 N 
ATOM      9  N   UNL     1      46.137   6.783  11.224  0.00  0.00    +0.000 NA
ATOM     10  C   UNL     1      45.556   5.816  10.477  0.00  0.00    +0.000 A 
ATOM     11  H   UNL     1      46.204   7.429  14.325  0.00  0.00    +0.000 HD
BRANCH   4  13
ATOM     12  N   UNL     1      44.065   4.136   8.791  0.00  0.00    +0.000 N 
ATOM     13  C   UNL     1      44.082   3.866  10.137  0.00  0.00    +0.000 C 
ATOM     14  O   UNL     1      43.590   2.837  10.582  0.00  0.00    +0.000 OA
ATOM     15  H   UNL     1      43.710   3.396   8.194  0.00  0.00    +0.000 HD
ATOM     16  H   UNL     1      44.676   4.814   8.360  0.00  0.00    +0.000 HD
ENDBRANCH   4  13
ENDBRANCH   1   8
BRANCH   1  17
ATOM     17  C   UNL     1      48.758   7.843  13.964  0.00  0.00    +0.000 A 
ATOM     18  C   UNL     1      50.054   8.380  13.951  0.00  0.00    +0.000 A 
ATOM     19  C   UNL     1      51.033   7.926  14.832  0.00  0.00    +0.000 A 
ATOM     20  C   UNL     1      50.727   6.930  15.761  0.00  0.00    +0.000 A 
ATOM     21  C   UNL     1      49.447   6.356  15.816  0.00  0.00    +0.000 A 
ATOM     22  C   UNL     1      48.493   6.809  14.885  0.00  0.00    +0.000 A 
BRANCH  21  23
ATOM     23  C   UNL     1      49.088   5.372  16.855  0.00  0.00    +0.000 A 
ATOM     24  C   UNL     1      49.810   5.269  18.052  0.00  0.00    +0.000 A 
ATOM     25  N   UNL     1      49.523   4.423  19.076  0.00  0.00    +0.000 NA
ATOM     26  C   UNL     1      48.441   3.632  18.910  0.00  0.00    +0.000 A 
ATOM     27  C   UNL     1      47.653   3.651  17.772  0.00  0.00    +0.000 A 
ATOM     28  C   UNL     1      47.979   4.520  16.738  0.00  0.00    +0.000 A 
BRANCH  27  29
ATOM     29  O   UNL     1      46.558   2.855  17.621  0.00  0.00    +0.000 OA
ATOM     30  H   UNL     1      45.817   3.392  17.292  0.00  0.00    +0.000 HD
ENDBRANCH  27  29
ENDBRANCH  21  23
ENDBRANCH   1  17
TORSDOF 5
ENDMDL
MODEL 7
REMARK VINA RESULT:    -6.624      2.153      3.079
REMARK INTER + INTRA:          -8.444
REMARK INTER:                  -7.928
REMARK INTRA:                  -0.516
REMARK UNBOUND:                -0.078
REMARK  Name = 
REMARK  5 active torsions:
REMARK  status: ('A' for Active; 'I' for Inactive)
REMARK    1  A    between atoms: C_2  and  C_4
REMARK    2  A    between atoms: N_8  and  C_9
REMARK    3  A    between atoms: C_9  and  C_10
REMARK    4  A    between atoms: C_14  and  C_15
REMARK    5  A    between atoms: C_19  and  O_20
REMARK                            x       y       z     vdW  Elec       q    Type
REMARK                         _______ _______ _______ _____ _____    ______ ____
ROOT
ATOM      1  C   UNL     1      45.630   7.865  12.438  0.00  0.00    +0.000 C 
ATOM      2  C   UNL     1      45.061   9.240  12.759  0.00  0.00    +0.000 C 
ATOM      3  C   UNL     1      45.630   8.971  11.404  0.00  0.00    +0.000 C 
ENDROOT
BRANCH   1   8
ATOM      4  C   UNL     1      44.980   3.420  10.024  0.00  0.00    +0.000 A 
ATOM      5  C   UNL     1      44.508   3.385  11.312  0.00  0.00    +0.000 A 
ATOM      6  N   UNL     1      44.435   4.474  12.108  0.00  0.00    +0.000 NA
ATOM      7  C   UNL     1      44.883   5.637  11.599  0.00  0.00    +0.000 A 
ATOM      8  N   UNL     1      44.655   6.761  12.398  0.00  0.00    +0.000 N 
ATOM      9  N   UNL     1      45.441   5.748  10.382  0.00  0.00    +0.000 NA
ATOM     10  C   UNL     1      45.477   4.633   9.616  0.00  0.00    +0.000 A 
ATOM     11  H   UNL     1      44.385   6.383  13.301  0.00  0.00    +0.000 HD
BRANCH   4  13
ATOM     12  N   UNL     1      46.043   2.079   8.307  0.00  0.00    +0.000 N 
ATOM     13  C   UNL     1      44.948   2.275   9.111  0.00  0.00    +0.000 C 
ATOM     14  O   UNL     1      44.011   1.489   9.106  0.00  0.00    +0.000 OA
ATOM     15  H   UNL     1      46.065   1.206   7.791  0.00  0.00    +0.000 HD
ATOM     16  H   UNL     1      46.931   2.533   8.468  0.00  0.00    +0.000 HD
ENDBRANCH   4  13
ENDBRANCH   1   8
BRANCH   1  17
ATOM     17  C   UNL     1      46.940   7.441  13.090  0.00  0.00    +0.000 A 
ATOM     18  C   UNL     1      48.129   8.155  12.878  0.00  0.00    +0.000 A 
ATOM     19  C   UNL     1      49.281   7.875  13.611  0.00  0.00    +0.000 A 
ATOM     20  C   UNL     1      49.259   6.880  14.590  0.00  0.00    +0.000 A 
ATOM     21  C   UNL     1      48.097   6.133  14.841  0.00  0.00    +0.000 A 
ATOM     22  C   UNL     1      46.964   6.413  14.055  0.00  0.00    +0.000 A 
BRANCH  21  23
ATOM     23  C   UNL     1      48.037   5.145  15.935  0.00  0.00    +0.000 A 
ATOM     24  C   UNL     1      46.988   4.221  16.035  0.00  0.00    +0.000 A 
ATOM     25  N   UNL     1      46.877   3.253  16.982  0.00  0.00    +0.000 NA
ATOM     26  C   UNL     1      47.878   3.187  17.887  0.00  0.00    +0.000 A 
ATOM     27  C   UNL     1      48.964   4.046  17.884  0.00  0.00    +0.000 A 
ATOM     28  C   UNL     1      49.042   5.031  16.907  0.00  0.00    +0.000 A 
BRANCH  27  29
ATOM     29  O   UNL     1      49.972   3.962  18.796  0.00  0.00    +0.000 OA
ATOM     30  H   UNL     1      50.507   4.772  18.753  0.00  0.00    +0.000 HD
ENDBRANCH  27  29
ENDBRANCH  21  23
ENDBRANCH   1  17
TORSDOF 5
ENDMDL
MODEL 8
REMARK VINA RESULT:    -6.562      2.874      8.040
REMARK INTER + INTRA:          -8.366
REMARK INTER:                  -8.394
REMARK INTRA:                   0.028
REMARK UNBOUND:                -0.078
REMARK  Name = 
REMARK  5 active torsions:
REMARK  status: ('A' for Active; 'I' for Inactive)
REMARK    1  A    between atoms: C_2  and  C_4
REMARK    2  A    between atoms: N_8  and  C_9
REMARK    3  A    between atoms: C_9  and  C_10
REMARK    4  A    between atoms: C_14  and  C_15
REMARK    5  A    between atoms: C_19  and  O_20
REMARK                            x       y       z     vdW  Elec       q    Type
REMARK                         _______ _______ _______ _____ _____    ______ ____
ROOT
ATOM      1  C   UNL     1      45.848   7.731  12.068  0.00  0.00    +0.000 C 
ATOM      2  C   UNL     1      45.416   9.042  11.427  0.00  0.00    +0.000 C 
ATOM      3  C   UNL     1      45.108   8.784  12.867  0.00  0.00    +0.000 C 
ENDROOT
BRANCH   1   8
ATOM      4  C   UNL     1      49.445   8.071  15.668  0.00  0.00    +0.000 A 
ATOM      5  C   UNL     1      49.694   7.055  14.780  0.00  0.00    +0.000 A 
ATOM      6  N   UNL     1      48.968   6.852  13.659  0.00  0.00    +0.000 NA
ATOM      7  C   UNL     1      47.933   7.683  13.438  0.00  0.00    +0.000 A 
ATOM      8  N   UNL     1      47.302   7.531  12.201  0.00  0.00    +0.000 N 
ATOM      9  N   UNL     1      47.563   8.650  14.295  0.00  0.00    +0.000 NA
ATOM     10  C   UNL     1      48.331   8.826  15.396  0.00  0.00    +0.000 A 
ATOM     11  H   UNL     1      47.657   6.651  11.839  0.00  0.00    +0.000 HD
BRANCH   4  13
ATOM     12  N   UNL     1      50.756   7.321  17.563  0.00  0.00    +0.000 N 
ATOM     13  C   UNL     1      50.298   8.379  16.817  0.00  0.00    +0.000 C 
ATOM     14  O   UNL     1      50.640   9.526  17.070  0.00  0.00    +0.000 OA
ATOM     15  H   UNL     1      51.459   7.542  18.262  0.00  0.00    +0.000 HD
ATOM     16  H   UNL     1      50.723   6.365  17.239  0.00  0.00    +0.000 HD
ENDBRANCH   4  13
ENDBRANCH   1   8
BRANCH   1  17
ATOM     17  C   UNL     1      45.133   6.446  11.668  0.00  0.00    +0.000 A 
ATOM     18  C   UNL     1      43.844   6.148  12.136  0.00  0.00    +0.000 A 
ATOM     19  C   UNL     1      43.124   5.067  11.631  0.00  0.00    +0.000 A 
ATOM     20  C   UNL     1      43.677   4.269  10.629  0.00  0.00    +0.000 A 
ATOM     21  C   UNL     1      44.964   4.520  10.126  0.00  0.00    +0.000 A 
ATOM     22  C   UNL     1      45.680   5.595  10.687  0.00  0.00    +0.000 A 
BRANCH  21  23
ATOM     23  C   UNL     1      45.519   3.741   9.003  0.00  0.00    +0.000 A 
ATOM     24  C   UNL     1      46.005   4.364   7.845  0.00  0.00    +0.000 A 
ATOM     25  N   UNL     1      46.569   3.728   6.785  0.00  0.00    +0.000 NA
ATOM     26  C   UNL     1      46.670   2.384   6.881  0.00  0.00    +0.000 A 
ATOM     27  C   UNL     1      46.227   1.665   7.977  0.00  0.00    +0.000 A 
ATOM     28  C   UNL     1      45.645   2.344   9.041  0.00  0.00    +0.000 A 
BRANCH  27  29
ATOM     29  O   UNL     1      46.344   0.311   8.067  0.00  0.00    +0.000 OA
ATOM     30  H   UNL     1      46.882  -0.012   7.324  0.00  0.00    +0.000 HD
ENDBRANCH  27  29
ENDBRANCH  21  23
ENDBRANCH   1  17
TORSDOF 5
ENDMDL
MODEL 9
REMARK VINA RESULT:    -6.402      3.974      8.307
REMARK INTER + INTRA:          -8.165
REMARK INTER:                  -7.476
REMARK INTRA:                  -0.688
REMARK UNBOUND:                -0.078
REMARK  Name = 
REMARK  5 active torsions:
REMARK  status: ('A' for Active; 'I' for Inactive)
REMARK    1  A    between atoms: C_2  and  C_4
REMARK    2  A    between atoms: N_8  and  C_9
REMARK    3  A    between atoms: C_9  and  C_10
REMARK    4  A    between atoms: C_14  and  C_15
REMARK    5  A    between atoms: C_19  and  O_20
REMARK                            x       y       z     vdW  Elec       q    Type
REMARK                         _______ _______ _______ _____ _____    ______ ____
ROOT
ATOM      1  C   UNL     1      49.790   9.143  15.403  0.00  0.00    +0.000 C 
ATOM      2  C   UNL     1      50.281  10.577  15.540  0.00  0.00    +0.000 C 
ATOM      3  C   UNL     1      48.962  10.186  16.124  0.00  0.00    +0.000 C 
ENDROOT
BRANCH   1   8
ATOM      4  C   UNL     1      48.984   4.771  17.902  0.00  0.00    +0.000 A 
ATOM      5  C   UNL     1      50.185   4.776  17.239  0.00  0.00    +0.000 A 
ATOM      6  N   UNL     1      50.691   5.867  16.624  0.00  0.00    +0.000 NA
ATOM      7  C   UNL     1      49.946   6.987  16.650  0.00  0.00    +0.000 A 
ATOM      8  N   UNL     1      50.569   8.126  16.132  0.00  0.00    +0.000 N 
ATOM      9  N   UNL     1      48.722   7.051  17.200  0.00  0.00    +0.000 NA
ATOM     10  C   UNL     1      48.265   5.938  17.818  0.00  0.00    +0.000 A 
ATOM     11  H   UNL     1      51.388   7.772  15.646  0.00  0.00    +0.000 HD
BRANCH   4  13
ATOM     12  N   UNL     1      48.638   3.684  20.041  0.00  0.00    +0.000 N 
ATOM     13  C   UNL     1      48.484   3.634  18.678  0.00  0.00    +0.000 C 
ATOM     14  O   UNL     1      47.898   2.703  18.141  0.00  0.00    +0.000 OA
ATOM     15  H   UNL     1      48.159   2.962  20.568  0.00  0.00    +0.000 HD
ATOM     16  H   UNL     1      48.865   4.534  20.537  0.00  0.00    +0.000 HD
ENDBRANCH   4  13
ENDBRANCH   1   8
BRANCH   1  17
ATOM     17  C   UNL     1      49.349   8.645  14.032  0.00  0.00    +0.000 A 
ATOM     18  C   UNL     1      50.251   8.550  12.962  0.00  0.00    +0.000 A 
ATOM     19  C   UNL     1      49.892   7.929  11.767  0.00  0.00    +0.000 A 
ATOM     20  C   UNL     1      48.619   7.372  11.626  0.00  0.00    +0.000 A 
ATOM     21  C   UNL     1      47.677   7.441  12.664  0.00  0.00    +0.000 A 
ATOM     22  C   UNL     1      48.058   8.111  13.842  0.00  0.00    +0.000 A 
BRANCH  21  23
ATOM     23  C   UNL     1      46.365   6.775  12.560  0.00  0.00    +0.000 A 
ATOM     24  C   UNL     1      46.079   5.599  13.268  0.00  0.00    +0.000 A 
ATOM     25  N   UNL     1      44.888   4.945  13.262  0.00  0.00    +0.000 NA
ATOM     26  C   UNL     1      43.908   5.497  12.515  0.00  0.00    +0.000 A 
ATOM     27  C   UNL     1      44.076   6.657  11.778  0.00  0.00    +0.000 A 
ATOM     28  C   UNL     1      45.310   7.296  11.797  0.00  0.00    +0.000 A 
BRANCH  27  29
ATOM     29  O   UNL     1      43.077   7.210  11.036  0.00  0.00    +0.000 OA
ATOM     30  H   UNL     1      43.467   7.720  10.306  0.00  0.00    +0.000 HD
ENDBRANCH  27  29
ENDBRANCH  21  23
ENDBRANCH   1  17
TORSDOF 5
ENDMDL
