MODEL 1
REMARK VINA RESULT:    -8.803      0.000      0.000
REMARK INTER + INTRA:         -12.957
REMARK INTER:                 -11.890
REMARK INTRA:                  -1.067
REMARK UNBOUND:                -1.067
REMARK  Name = 
REMARK  6 active torsions:
REMARK  status: ('A' for Active; 'I' for Inactive)
REMARK    1  A    between atoms: C_2  and  C_19
REMARK    2  A    between atoms: N_3  and  C_4
REMARK    3  A    between atoms: C_4  and  C_5
REMARK    4  A    between atoms: C_8  and  C_9
REMARK    5  A    between atoms: C_9  and  N_10
REMARK    6  A    between atoms: N_10  and  C_11
REMARK                            x       y       z     vdW  Elec       q    Type
REMARK                         _______ _______ _______ _____ _____    ______ ____
ROOT
ATOM      1  C   UNL     1      46.601   7.937  13.167  0.00  0.00    +0.000 C 
ENDROOT
BRANCH   1   2
ATOM      2  C   UNL     1      45.896   6.932  12.294  0.00  0.00    +0.000 A 
ATOM      3  C   UNL     1      44.720   6.313  12.737  0.00  0.00    +0.000 A 
ATOM      4  C   UNL     1      44.054   5.382  11.931  0.00  0.00    +0.000 A 
ATOM      5  C   UNL     1      44.562   5.037  10.671  0.00  0.00    +0.000 A 
ATOM      6  C   UNL     1      45.735   5.663  10.225  0.00  0.00    +0.000 A 
ATOM      7  C   UNL     1      46.402   6.589  11.033  0.00  0.00    +0.000 A 
BRANCH   5   8
ATOM      8  C   UNL     1      43.869   3.997   9.817  0.00  0.00    +0.000 C 
BRANCH   8   9
ATOM      9  N   UNL     1      44.341   4.059   8.443  0.00  0.00    +0.000 N 
ATOM     10  H   UNL     1      43.587   4.165   7.769  0.00  0.00    +0.000 HD
BRANCH   9  11
ATOM     11  C   UNL     1      45.315   3.159   7.993  0.00  0.00    +0.000 A 
ATOM     12  C   UNL     1      45.456   1.850   8.472  0.00  0.00    +0.000 A 
ATOM     13  C   UNL     1      46.481   1.014   8.015  0.00  0.00    +0.000 A 
ATOM     14  C   UNL     1      47.413   1.486   7.096  0.00  0.00    +0.000 A 
ATOM     15  C   UNL     1      47.326   2.799   6.648  0.00  0.00    +0.000 A 
ATOM     16  C   UNL     1      46.292   3.626   7.100  0.00  0.00    +0.000 A 
ENDBRANCH   9  11
ENDBRANCH   8   9
ENDBRANCH   5   8
ENDBRANCH   1   2
BRANCH   1  19
ATOM     17  O   UNL     1      49.103   6.646  13.330  0.00  0.00    +0.000 OA
ATOM     18  C   UNL     1      48.415   6.742  14.345  0.00  0.00    +0.000 C 
ATOM     19  N   UNL     1      47.175   7.323  14.339  0.00  0.00    +0.000 N 
ATOM     20  H   UNL     1      46.705   7.510  15.218  0.00  0.00    +0.000 HD
BRANCH  18  21
ATOM     21  C   UNL     1      48.873   6.187  15.627  0.00  0.00    +0.000 A 
ATOM     22  C   UNL     1      49.911   6.802  16.312  0.00  0.00    +0.000 A 
ATOM     23  S   UNL     1      50.306   6.040  17.786  0.00  0.00    +0.000 S 
ATOM     24  C   UNL     1      49.078   4.882  17.580  0.00  0.00    +0.000 A 
ATOM     25  N   UNL     1      48.844   3.935  18.529  0.00  0.00    +0.000 NA
ATOM     26  C   UNL     1      47.857   3.146  18.261  0.00  0.00    +0.000 A 
ATOM     27  N   UNL     1      47.095   3.206  17.124  0.00  0.00    +0.000 N 
ATOM     28  C   UNL     1      47.351   4.088  16.100  0.00  0.00    +0.000 A 
ATOM     29  O   UNL     1      46.752   4.012  15.034  0.00  0.00    +0.000 OA
ATOM     30  C   UNL     1      48.405   5.046  16.381  0.00  0.00    +0.000 A 
ATOM     31  H   UNL     1      46.363   2.531  16.956  0.00  0.00    +0.000 HD
ENDBRANCH  18  21
ENDBRANCH   1  19
TORSDOF 6
ENDMDL
MODEL 2
REMARK VINA RESULT:    -8.304      1.676      2.205
REMARK INTER + INTRA:         -12.283
REMARK INTER:                 -11.378
REMARK INTRA:                  -0.906
REMARK UNBOUND:                -1.067
REMARK  Name = 
REMARK  6 active torsions:
REMARK  status: ('A' for Active; 'I' for Inactive)
REMARK    1  A    between atoms: C_2  and  C_19
REMARK    2  A    between atoms: N_3  and  C_4
REMARK    3  A    between atoms: C_4  and  C_5
REMARK    4  A    between atoms: C_8  and  C_9
REMARK    5  A    between atoms: C_9  and  N_10
REMARK    6  A    between atoms: N_10  and  C_11
REMARK                            x       y       z     vdW  Elec       q    Type
REMARK                         _______ _______ _______ _____ _____    ______ ____
ROOT
ATOM      1  C   UNL     1      48.065   6.999  13.427  0.00  0.00    +0.000 C 
ENDROOT
BRANCH   1   2
ATOM      2  C   UNL     1      47.046   6.117  12.754  0.00  0.00    +0.000 A 
ATOM      3  C   UNL     1      46.482   6.496  11.528  0.00  0.00    +0.000 A 
ATOM      4  C   UNL     1      45.540   5.680  10.893  0.00  0.00    +0.000 A 
ATOM      5  C   UNL     1      45.126   4.475  11.480  0.00  0.00    +0.000 A 
ATOM      6  C   UNL     1      45.696   4.094  12.703  0.00  0.00    +0.000 A 
ATOM      7  C   UNL     1      46.635   4.911  13.340  0.00  0.00    +0.000 A 
BRANCH   5   8
ATOM      8  C   UNL     1      44.073   3.615  10.816  0.00  0.00    +0.000 C 
BRANCH   8   9
ATOM      9  N   UNL     1      44.119   3.766   9.370  0.00  0.00    +0.000 N 
ATOM     10  H   UNL     1      43.213   3.631   8.928  0.00  0.00    +0.000 HD
BRANCH   9  11
ATOM     11  C   UNL     1      45.149   3.168   8.633  0.00  0.00    +0.000 A 
ATOM     12  C   UNL     1      45.900   3.831   7.655  0.00  0.00    +0.000 A 
ATOM     13  C   UNL     1      46.887   3.165   6.919  0.00  0.00    +0.000 A 
ATOM     14  C   UNL     1      47.114   1.807   7.121  0.00  0.00    +0.000 A 
ATOM     15  C   UNL     1      46.343   1.116   8.048  0.00  0.00    +0.000 A 
ATOM     16  C   UNL     1      45.366   1.791   8.788  0.00  0.00    +0.000 A 
ENDBRANCH   9  11
ENDBRANCH   8   9
ENDBRANCH   5   8
ENDBRANCH   1   2
BRANCH   1  19
ATOM     17  O   UNL     1      50.159   6.648  15.283  0.00  0.00    +0.000 OA
ATOM     18  C   UNL     1      49.016   6.821  15.700  0.00  0.00    +0.000 C 
ATOM     19  N   UNL     1      47.942   6.964  14.863  0.00  0.00    +0.000 N 
ATOM     20  H   UNL     1      47.045   7.248  15.243  0.00  0.00    +0.000 HD
BRANCH  18  21
ATOM     21  C   UNL     1      48.729   6.837  17.143  0.00  0.00    +0.000 A 
ATOM     22  C   UNL     1      48.280   8.005  17.743  0.00  0.00    +0.000 A 
ATOM     23  S   UNL     1      47.983   7.846  19.415  0.00  0.00    +0.000 S 
ATOM     24  C   UNL     1      48.408   6.200  19.390  0.00  0.00    +0.000 A 
ATOM     25  N   UNL     1      48.330   5.441  20.516  0.00  0.00    +0.000 NA
ATOM     26  C   UNL     1      48.644   4.200  20.344  0.00  0.00    +0.000 A 
ATOM     27  N   UNL     1      49.047   3.653  19.155  0.00  0.00    +0.000 N 
ATOM     28  C   UNL     1      49.225   4.399  18.013  0.00  0.00    +0.000 A 
ATOM     29  O   UNL     1      49.732   3.912  17.010  0.00  0.00    +0.000 OA
ATOM     30  C   UNL     1      48.816   5.787  18.132  0.00  0.00    +0.000 A 
ATOM     31  H   UNL     1      49.319   2.682  19.097  0.00  0.00    +0.000 HD
ENDBRANCH  18  21
ENDBRANCH   1  19
TORSDOF 6
ENDMDL
MODEL 3
REMARK VINA RESULT:    -8.283      2.048      2.599
REMARK INTER + INTRA:         -12.255
REMARK INTER:                 -11.377
REMARK INTRA:                  -0.878
REMARK UNBOUND:                -1.067
REMARK  Name = 
REMARK  6 active torsions:
REMARK  status: ('A' for Active; 'I' for Inactive)
REMARK    1  A    between atoms: C_2  and  C_19
REMARK    2  A    between atoms: N_3  and  C_4
REMARK    3  A    between atoms: C_4  and  C_5
REMARK    4  A    between atoms: C_8  and  C_9
REMARK    5  A    between atoms: C_9  and  N_10
REMARK    6  A    between atoms: N_10  and  C_11
REMARK                            x       y       z     vdW  Elec       q    Type
REMARK                         _______ _______ _______ _____ _____    ______ ____
ROOT
ATOM      1  C   UNL     1      47.310   6.512  13.646  0.00  0.00    +0.000 C 
ENDROOT
BRANCH   1   2
ATOM      2  C   UNL     1      46.468   5.685  12.710  0.00  0.00    +0.000 A 
ATOM      3  C   UNL     1      46.051   4.400  13.081  0.00  0.00    +0.000 A 
ATOM      4  C   UNL     1      45.264   3.627  12.221  0.00  0.00    +0.000 A 
ATOM      5  C   UNL     1      44.892   4.116  10.961  0.00  0.00    +0.000 A 
ATOM      6  C   UNL     1      45.303   5.404  10.592  0.00  0.00    +0.000 A 
ATOM      7  C   UNL     1      46.094   6.175  11.450  0.00  0.00    +0.000 A 
BRANCH   5   8
ATOM      8  C   UNL     1      44.079   3.262  10.011  0.00  0.00    +0.000 C 
BRANCH   8   9
ATOM      9  N   UNL     1      44.852   2.116   9.558  0.00  0.00    +0.000 N 
ATOM     10  H   UNL     1      45.315   1.625  10.319  0.00  0.00    +0.000 HD
BRANCH   9  11
ATOM     11  C   UNL     1      45.676   2.223   8.432  0.00  0.00    +0.000 A 
ATOM     12  C   UNL     1      45.730   3.352   7.603  0.00  0.00    +0.000 A 
ATOM     13  C   UNL     1      46.542   3.380   6.464  0.00  0.00    +0.000 A 
ATOM     14  C   UNL     1      47.288   2.261   6.108  0.00  0.00    +0.000 A 
ATOM     15  C   UNL     1      47.209   1.111   6.884  0.00  0.00    +0.000 A 
ATOM     16  C   UNL     1      46.404   1.093   8.029  0.00  0.00    +0.000 A 
ENDBRANCH   9  11
ENDBRANCH   8   9
ENDBRANCH   5   8
ENDBRANCH   1   2
BRANCH   1  19
ATOM     17  O   UNL     1      49.570   6.636  15.328  0.00  0.00    +0.000 OA
ATOM     18  C   UNL     1      48.577   6.019  15.709  0.00  0.00    +0.000 C 
ATOM     19  N   UNL     1      47.455   5.883  14.935  0.00  0.00    +0.000 N 
ATOM     20  H   UNL     1      46.611   5.493  15.341  0.00  0.00    +0.000 HD
BRANCH  18  21
ATOM     21  C   UNL     1      48.558   5.342  17.014  0.00  0.00    +0.000 A 
ATOM     22  C   UNL     1      48.626   3.957  17.074  0.00  0.00    +0.000 A 
ATOM     23  S   UNL     1      48.607   3.337  18.663  0.00  0.00    +0.000 S 
ATOM     24  C   UNL     1      48.545   4.900  19.330  0.00  0.00    +0.000 A 
ATOM     25  N   UNL     1      48.550   5.085  20.678  0.00  0.00    +0.000 NA
ATOM     26  C   UNL     1      48.540   6.323  21.045  0.00  0.00    +0.000 A 
ATOM     27  N   UNL     1      48.507   7.392  20.190  0.00  0.00    +0.000 N 
ATOM     28  C   UNL     1      48.412   7.252  18.824  0.00  0.00    +0.000 A 
ATOM     29  O   UNL     1      48.228   8.222  18.099  0.00  0.00    +0.000 OA
ATOM     30  C   UNL     1      48.493   5.881  18.354  0.00  0.00    +0.000 A 
ATOM     31  H   UNL     1      48.458   8.337  20.543  0.00  0.00    +0.000 HD
ENDBRANCH  18  21
ENDBRANCH   1  19
TORSDOF 6
ENDMDL
MODEL 4
REMARK VINA RESULT:    -8.274      2.168      2.682
REMARK INTER + INTRA:         -12.243
REMARK INTER:                 -11.249
REMARK INTRA:                  -0.993
REMARK UNBOUND:                -1.067
REMARK  Name = 
REMARK  6 active torsions:
REMARK  status: ('A' for Active; 'I' for Inactive)
REMARK    1  A    between atoms: C_2  and  C_19
REMARK    2  A    between atoms: N_3  and  C_4
REMARK    3  A    between atoms: C_4  and  C_5
REMARK    4  A    between atoms: C_8  and  C_9
REMARK    5  A    between atoms: C_9  and  N_10
REMARK    6  A    between atoms: N_10  and  C_11
REMARK                            x       y       z     vdW  Elec       q    Type
REMARK                         _______ _______ _______ _____ _____    ______ ____
ROOT
ATOM      1  C   UNL     1      48.068   6.698  13.619  0.00  0.00    +0.000 C 
ENDROOT
BRANCH   1   2
ATOM      2  C   UNL     1      46.987   6.073  12.775  0.00  0.00    +0.000 A 
ATOM      3  C   UNL     1      46.619   6.653  11.554  0.00  0.00    +0.000 A 
ATOM      4  C   UNL     1      45.621   6.077  10.760  0.00  0.00    +0.000 A 
ATOM      5  C   UNL     1      44.956   4.916  11.181  0.00  0.00    +0.000 A 
ATOM      6  C   UNL     1      45.329   4.332  12.400  0.00  0.00    +0.000 A 
ATOM      7  C   UNL     1      46.324   4.912  13.195  0.00  0.00    +0.000 A 
BRANCH   5   8
ATOM      8  C   UNL     1      43.844   4.318  10.346  0.00  0.00    +0.000 C 
BRANCH   8   9
ATOM      9  N   UNL     1      44.179   4.366   8.931  0.00  0.00    +0.000 N 
ATOM     10  H   UNL     1      43.363   4.483   8.335  0.00  0.00    +0.000 HD
BRANCH   9  11
ATOM     11  C   UNL     1      45.087   3.448   8.392  0.00  0.00    +0.000 A 
ATOM     12  C   UNL     1      45.168   2.104   8.779  0.00  0.00    +0.000 A 
ATOM     13  C   UNL     1      46.131   1.246   8.234  0.00  0.00    +0.000 A 
ATOM     14  C   UNL     1      47.061   1.728   7.319  0.00  0.00    +0.000 A 
ATOM     15  C   UNL     1      47.035   3.071   6.961  0.00  0.00    +0.000 A 
ATOM     16  C   UNL     1      46.063   3.920   7.501  0.00  0.00    +0.000 A 
ENDBRANCH   9  11
ENDBRANCH   8   9
ENDBRANCH   5   8
ENDBRANCH   1   2
BRANCH   1  19
ATOM     17  O   UNL     1      50.176   6.598  15.489  0.00  0.00    +0.000 OA
ATOM     18  C   UNL     1      49.039   6.306  15.857  0.00  0.00    +0.000 C 
ATOM     19  N   UNL     1      47.970   6.297  15.000  0.00  0.00    +0.000 N 
ATOM     20  H   UNL     1      47.032   6.192  15.371  0.00  0.00    +0.000 HD
BRANCH  18  21
ATOM     21  C   UNL     1      48.770   5.900  17.244  0.00  0.00    +0.000 A 
ATOM     22  C   UNL     1      48.960   4.579  17.624  0.00  0.00    +0.000 A 
ATOM     23  S   UNL     1      48.617   4.283  19.269  0.00  0.00    +0.000 S 
ATOM     24  C   UNL     1      48.237   5.918  19.541  0.00  0.00    +0.000 A 
ATOM     25  N   UNL     1      47.894   6.359  20.782  0.00  0.00    +0.000 NA
ATOM     26  C   UNL     1      47.671   7.629  20.852  0.00  0.00    +0.000 A 
ATOM     27  N   UNL     1      47.740   8.495  19.793  0.00  0.00    +0.000 N 
ATOM     28  C   UNL     1      47.996   8.081  18.506  0.00  0.00    +0.000 A 
ATOM     29  O   UNL     1      47.898   8.853  17.561  0.00  0.00    +0.000 OA
ATOM     30  C   UNL     1      48.326   6.672  18.383  0.00  0.00    +0.000 A 
ATOM     31  H   UNL     1      47.512   9.472  19.907  0.00  0.00    +0.000 HD
ENDBRANCH  18  21
ENDBRANCH   1  19
TORSDOF 6
ENDMDL
MODEL 5
REMARK VINA RESULT:    -7.913      2.107      3.741
REMARK INTER + INTRA:         -11.756
REMARK INTER:                 -10.573
REMARK INTRA:                  -1.183
REMARK UNBOUND:                -1.067
REMARK  Name = 
REMARK  6 active torsions:
REMARK  status: ('A' for Active; 'I' for Inactive)
REMARK    1  A    between atoms: C_2  and  C_19
REMARK    2  A    between atoms: N_3  and  C_4
REMARK    3  A    between atoms: C_4  and  C_5
REMARK    4  A    between atoms: C_8  and  C_9
REMARK    5  A    between atoms: C_9  and  N_10
REMARK    6  A    between atoms: N_10  and  C_11
REMARK                            x       y       z     vdW  Elec       q    Type
REMARK                         _______ _______ _______ _____ _____    ______ ____
ROOT
ATOM      1  C   UNL     1      46.826   4.475  14.743  0.00  0.00    +0.000 C 
ENDROOT
BRANCH   1   2
ATOM      2  C   UNL     1      46.165   4.443  13.390  0.00  0.00    +0.000 A 
ATOM      3  C   UNL     1      46.090   5.606  12.612  0.00  0.00    +0.000 A 
ATOM      4  C   UNL     1      45.483   5.585  11.351  0.00  0.00    +0.000 A 
ATOM      5  C   UNL     1      44.923   4.402  10.848  0.00  0.00    +0.000 A 
ATOM      6  C   UNL     1      45.005   3.237  11.623  0.00  0.00    +0.000 A 
ATOM      7  C   UNL     1      45.607   3.260  12.886  0.00  0.00    +0.000 A 
BRANCH   5   8
ATOM      8  C   UNL     1      44.226   4.389   9.504  0.00  0.00    +0.000 C 
BRANCH   8   9
ATOM      9  N   UNL     1      44.292   3.066   8.902  0.00  0.00    +0.000 N 
ATOM     10  H   UNL     1      43.976   2.329   9.528  0.00  0.00    +0.000 HD
BRANCH   9  11
ATOM     11  C   UNL     1      45.425   2.680   8.176  0.00  0.00    +0.000 A 
ATOM     12  C   UNL     1      46.049   3.480   7.210  0.00  0.00    +0.000 A 
ATOM     13  C   UNL     1      47.153   3.018   6.485  0.00  0.00    +0.000 A 
ATOM     14  C   UNL     1      47.631   1.727   6.684  0.00  0.00    +0.000 A 
ATOM     15  C   UNL     1      46.995   0.895   7.598  0.00  0.00    +0.000 A 
ATOM     16  C   UNL     1      45.899   1.368   8.329  0.00  0.00    +0.000 A 
ENDBRANCH   9  11
ENDBRANCH   8   9
ENDBRANCH   5   8
ENDBRANCH   1   2
BRANCH   1  19
ATOM     17  O   UNL     1      48.950   4.881  16.552  0.00  0.00    +0.000 OA
ATOM     18  C   UNL     1      48.588   5.815  15.840  0.00  0.00    +0.000 C 
ATOM     19  N   UNL     1      47.542   5.707  14.963  0.00  0.00    +0.000 N 
ATOM     20  H   UNL     1      47.369   6.451  14.295  0.00  0.00    +0.000 HD
BRANCH  18  21
ATOM     21  C   UNL     1      49.237   7.132  15.926  0.00  0.00    +0.000 A 
ATOM     22  C   UNL     1      49.360   7.760  17.158  0.00  0.00    +0.000 A 
ATOM     23  S   UNL     1      50.149   9.271  17.081  0.00  0.00    +0.000 S 
ATOM     24  C   UNL     1      50.387   9.123  15.404  0.00  0.00    +0.000 A 
ATOM     25  N   UNL     1      51.055  10.081  14.706  0.00  0.00    +0.000 NA
ATOM     26  C   UNL     1      51.197   9.821  13.449  0.00  0.00    +0.000 A 
ATOM     27  N   UNL     1      50.717   8.702  12.822  0.00  0.00    +0.000 N 
ATOM     28  C   UNL     1      49.960   7.752  13.469  0.00  0.00    +0.000 A 
ATOM     29  O   UNL     1      49.416   6.846  12.849  0.00  0.00    +0.000 OA
ATOM     30  C   UNL     1      49.831   7.958  14.900  0.00  0.00    +0.000 A 
ATOM     31  H   UNL     1      50.826   8.579  11.826  0.00  0.00    +0.000 HD
ENDBRANCH  18  21
ENDBRANCH   1  19
TORSDOF 6
ENDMDL
MODEL 6
REMARK VINA RESULT:    -7.689      2.595      3.379
REMARK INTER + INTRA:         -11.453
REMARK INTER:                 -10.572
REMARK INTRA:                  -0.880
REMARK UNBOUND:                -1.067
REMARK  Name = 
REMARK  6 active torsions:
REMARK  status: ('A' for Active; 'I' for Inactive)
REMARK    1  A    between atoms: C_2  and  C_19
REMARK    2  A    between atoms: N_3  and  C_4
REMARK    3  A    between atoms: C_4  and  C_5
REMARK    4  A    between atoms: C_8  and  C_9
REMARK    5  A    between atoms: C_9  and  N_10
REMARK    6  A    between atoms: N_10  and  C_11
REMARK                            x       y       z     vdW  Elec       q    Type
REMARK                         _______ _______ _______ _____ _____    ______ ____
ROOT
ATOM      1  C   UNL     1      47.106   4.386  14.699  0.00  0.00    +0.000 C 
ENDROOT
BRANCH   1   2
ATOM      2  C   UNL     1      46.364   4.408  13.388  0.00  0.00    +0.000 A 
ATOM      3  C   UNL     1      45.795   3.233  12.877  0.00  0.00    +0.000 A 
ATOM      4  C   UNL     1      45.100   3.245  11.663  0.00  0.00    +0.000 A 
ATOM      5  C   UNL     1      44.974   4.429  10.923  0.00  0.00    +0.000 A 
ATOM      6  C   UNL     1      45.538   5.606  11.438  0.00  0.00    +0.000 A 
ATOM      7  C   UNL     1      46.237   5.593  12.649  0.00  0.00    +0.000 A 
BRANCH   5   8
ATOM      8  C   UNL     1      44.263   4.434   9.588  0.00  0.00    +0.000 C 
BRANCH   8   9
ATOM      9  N   UNL     1      44.305   3.115   8.976  0.00  0.00    +0.000 N 
ATOM     10  H   UNL     1      43.976   2.379   9.596  0.00  0.00    +0.000 HD
BRANCH   9  11
ATOM     11  C   UNL     1      45.432   2.714   8.247  0.00  0.00    +0.000 A 
ATOM     12  C   UNL     1      46.088   3.521   7.310  0.00  0.00    +0.000 A 
ATOM     13  C   UNL     1      47.183   3.045   6.579  0.00  0.00    +0.000 A 
ATOM     14  C   UNL     1      47.618   1.734   6.743  0.00  0.00    +0.000 A 
ATOM     15  C   UNL     1      46.948   0.897   7.628  0.00  0.00    +0.000 A 
ATOM     16  C   UNL     1      45.861   1.383   8.364  0.00  0.00    +0.000 A 
ENDBRANCH   9  11
ENDBRANCH   8   9
ENDBRANCH   5   8
ENDBRANCH   1   2
BRANCH   1  19
ATOM     17  O   UNL     1      49.145   5.011  16.543  0.00  0.00    +0.000 OA
ATOM     18  C   UNL     1      48.546   5.928  15.984  0.00  0.00    +0.000 C 
ATOM     19  N   UNL     1      47.521   5.706  15.104  0.00  0.00    +0.000 N 
ATOM     20  H   UNL     1      47.153   6.478  14.559  0.00  0.00    +0.000 HD
BRANCH  18  21
ATOM     21  C   UNL     1      48.871   7.333  16.270  0.00  0.00    +0.000 A 
ATOM     22  C   UNL     1      49.552   8.089  15.326  0.00  0.00    +0.000 A 
ATOM     23  S   UNL     1      49.835   9.700  15.811  0.00  0.00    +0.000 S 
ATOM     24  C   UNL     1      49.026   9.455  17.287  0.00  0.00    +0.000 A 
ATOM     25  N   UNL     1      48.869  10.474  18.175  0.00  0.00    +0.000 NA
ATOM     26  C   UNL     1      48.201  10.157  19.234  0.00  0.00    +0.000 A 
ATOM     27  N   UNL     1      47.692   8.913  19.496  0.00  0.00    +0.000 N 
ATOM     28  C   UNL     1      47.902   7.833  18.669  0.00  0.00    +0.000 A 
ATOM     29  O   UNL     1      47.568   6.703  19.006  0.00  0.00    +0.000 OA
ATOM     30  C   UNL     1      48.585   8.149  17.428  0.00  0.00    +0.000 A 
ATOM     31  H   UNL     1      47.214   8.721  20.364  0.00  0.00    +0.000 HD
ENDBRANCH  18  21
ENDBRANCH   1  19
TORSDOF 6
ENDMDL
MODEL 7
REMARK VINA RESULT:    -7.448      2.274      3.619
REMARK INTER + INTRA:         -11.127
REMARK INTER:                 -10.007
REMARK INTRA:                  -1.120
REMARK UNBOUND:                -1.067
REMARK  Name = 
REMARK  6 active torsions:
REMARK  status: ('A' for Active; 'I' for Inactive)
REMARK    1  A    between atoms: C_2  and  C_19
REMARK    2  A    between atoms: N_3  and  C_4
REMARK    3  A    between atoms: C_4  and  C_5
REMARK    4  A    between atoms: C_8  and  C_9
REMARK    5  A    between atoms: C_9  and  N_10
REMARK    6  A    between atoms: N_10  and  C_11
REMARK                            x       y       z     vdW  Elec       q    Type
REMARK                         _______ _______ _______ _____ _____    ______ ____
ROOT
ATOM      1  C   UNL     1      47.527   4.048  14.896  0.00  0.00    +0.000 C 
ENDROOT
BRANCH   1   2
ATOM      2  C   UNL     1      46.706   4.273  13.652  0.00  0.00    +0.000 A 
ATOM      3  C   UNL     1      46.783   5.492  12.966  0.00  0.00    +0.000 A 
ATOM      4  C   UNL     1      46.030   5.709  11.807  0.00  0.00    +0.000 A 
ATOM      5  C   UNL     1      45.168   4.716  11.319  0.00  0.00    +0.000 A 
ATOM      6  C   UNL     1      45.097   3.494  12.003  0.00  0.00    +0.000 A 
ATOM      7  C   UNL     1      45.846   3.279  13.164  0.00  0.00    +0.000 A 
BRANCH   5   8
ATOM      8  C   UNL     1      44.317   4.966  10.093  0.00  0.00    +0.000 C 
BRANCH   8   9
ATOM      9  N   UNL     1      44.132   3.738   9.334  0.00  0.00    +0.000 N 
ATOM     10  H   UNL     1      43.633   3.022   9.855  0.00  0.00    +0.000 HD
BRANCH   9  11
ATOM     11  C   UNL     1      45.195   3.199   8.599  0.00  0.00    +0.000 A 
ATOM     12  C   UNL     1      45.940   3.917   7.654  0.00  0.00    +0.000 A 
ATOM     13  C   UNL     1      46.961   3.307   6.917  0.00  0.00    +0.000 A 
ATOM     14  C   UNL     1      47.231   1.952   7.082  0.00  0.00    +0.000 A 
ATOM     15  C   UNL     1      46.469   1.207   7.974  0.00  0.00    +0.000 A 
ATOM     16  C   UNL     1      45.457   1.825   8.717  0.00  0.00    +0.000 A 
ENDBRANCH   9  11
ENDBRANCH   8   9
ENDBRANCH   5   8
ENDBRANCH   1   2
BRANCH   1  19
ATOM     17  O   UNL     1      49.527   4.723  16.765  0.00  0.00    +0.000 OA
ATOM     18  C   UNL     1      48.579   5.489  16.604  0.00  0.00    +0.000 C 
ATOM     19  N   UNL     1      47.551   5.215  15.742  0.00  0.00    +0.000 N 
ATOM     20  H   UNL     1      46.867   5.934  15.533  0.00  0.00    +0.000 HD
BRANCH  18  21
ATOM     21  C   UNL     1      48.472   6.737  17.375  0.00  0.00    +0.000 A 
ATOM     22  C   UNL     1      48.377   6.685  18.759  0.00  0.00    +0.000 A 
ATOM     23  S   UNL     1      48.275   8.220  19.496  0.00  0.00    +0.000 S 
ATOM     24  C   UNL     1      48.392   9.010  17.995  0.00  0.00    +0.000 A 
ATOM     25  N   UNL     1      48.409  10.369  17.920  0.00  0.00    +0.000 NA
ATOM     26  C   UNL     1      48.541  10.833  16.722  0.00  0.00    +0.000 A 
ATOM     27  N   UNL     1      48.639  10.065  15.592  0.00  0.00    +0.000 N 
ATOM     28  C   UNL     1      48.538   8.694  15.611  0.00  0.00    +0.000 A 
ATOM     29  O   UNL     1      48.474   8.048  14.572  0.00  0.00    +0.000 OA
ATOM     30  C   UNL     1      48.461   8.115  16.940  0.00  0.00    +0.000 A 
ATOM     31  H   UNL     1      48.699  10.493  14.679  0.00  0.00    +0.000 HD
ENDBRANCH  18  21
ENDBRANCH   1  19
TORSDOF 6
ENDMDL
MODEL 8
REMARK VINA RESULT:    -7.166      4.173      8.938
REMARK INTER + INTRA:         -10.747
REMARK INTER:                  -9.877
REMARK INTRA:                  -0.869
REMARK UNBOUND:                -1.067
REMARK  Name = 
REMARK  6 active torsions:
REMARK  status: ('A' for Active; 'I' for Inactive)
REMARK    1  A    between atoms: C_2  and  C_19
REMARK    2  A    between atoms: N_3  and  C_4
REMARK    3  A    between atoms: C_4  and  C_5
REMARK    4  A    between atoms: C_8  and  C_9
REMARK    5  A    between atoms: C_9  and  N_10
REMARK    6  A    between atoms: N_10  and  C_11
REMARK                            x       y       z     vdW  Elec       q    Type
REMARK                         _______ _______ _______ _____ _____    ______ ____
ROOT
ATOM      1  C   UNL     1      47.157   3.327  16.898  0.00  0.00    +0.000 C 
ENDROOT
BRANCH   1   2
ATOM      2  C   UNL     1      48.608   3.398  17.296  0.00  0.00    +0.000 A 
ATOM      3  C   UNL     1      49.463   2.315  17.050  0.00  0.00    +0.000 A 
ATOM      4  C   UNL     1      50.814   2.374  17.411  0.00  0.00    +0.000 A 
ATOM      5  C   UNL     1      51.335   3.512  18.043  0.00  0.00    +0.000 A 
ATOM      6  C   UNL     1      50.481   4.598  18.283  0.00  0.00    +0.000 A 
ATOM      7  C   UNL     1      49.130   4.536  17.927  0.00  0.00    +0.000 A 
BRANCH   5   8
ATOM      8  C   UNL     1      52.784   3.559  18.476  0.00  0.00    +0.000 C 
BRANCH   8   9
ATOM      9  N   UNL     1      53.264   2.229  18.818  0.00  0.00    +0.000 N 
ATOM     10  H   UNL     1      53.603   2.164  19.775  0.00  0.00    +0.000 HD
BRANCH   9  11
ATOM     11  C   UNL     1      54.087   1.528  17.929  0.00  0.00    +0.000 A 
ATOM     12  C   UNL     1      55.014   2.135  17.072  0.00  0.00    +0.000 A 
ATOM     13  C   UNL     1      55.775   1.381  16.171  0.00  0.00    +0.000 A 
ATOM     14  C   UNL     1      55.593   0.005  16.081  0.00  0.00    +0.000 A 
ATOM     15  C   UNL     1      54.640  -0.613  16.882  0.00  0.00    +0.000 A 
ATOM     16  C   UNL     1      53.891   0.145  17.789  0.00  0.00    +0.000 A 
ENDBRANCH   9  11
ENDBRANCH   8   9
ENDBRANCH   5   8
ENDBRANCH   1   2
BRANCH   1  19
ATOM     17  O   UNL     1      47.195   2.996  14.098  0.00  0.00    +0.000 OA
ATOM     18  C   UNL     1      46.833   4.074  14.565  0.00  0.00    +0.000 C 
ATOM     19  N   UNL     1      46.821   4.323  15.912  0.00  0.00    +0.000 N 
ATOM     20  H   UNL     1      46.382   5.169  16.260  0.00  0.00    +0.000 HD
BRANCH  18  21
ATOM     21  C   UNL     1      46.433   5.185  13.689  0.00  0.00    +0.000 A 
ATOM     22  C   UNL     1      47.319   6.226  13.448  0.00  0.00    +0.000 A 
ATOM     23  S   UNL     1      46.702   7.423  12.401  0.00  0.00    +0.000 S 
ATOM     24  C   UNL     1      45.242   6.574  12.203  0.00  0.00    +0.000 A 
ATOM     25  N   UNL     1      44.268   7.043  11.376  0.00  0.00    +0.000 NA
ATOM     26  C   UNL     1      43.230   6.279  11.289  0.00  0.00    +0.000 A 
ATOM     27  N   UNL     1      43.069   5.100  11.967  0.00  0.00    +0.000 N 
ATOM     28  C   UNL     1      43.987   4.632  12.879  0.00  0.00    +0.000 A 
ATOM     29  O   UNL     1      43.743   3.658  13.580  0.00  0.00    +0.000 OA
ATOM     30  C   UNL     1      45.206   5.416  12.961  0.00  0.00    +0.000 A 
ATOM     31  H   UNL     1      42.214   4.570  11.887  0.00  0.00    +0.000 HD
ENDBRANCH  18  21
ENDBRANCH   1  19
TORSDOF 6
ENDMDL
MODEL 9
REMARK VINA RESULT:    -6.877      3.730      8.688
REMARK INTER + INTRA:         -10.356
REMARK INTER:                  -9.275
REMARK INTRA:                  -1.081
REMARK UNBOUND:                -1.067
REMARK  Name = 
REMARK  6 active torsions:
REMARK  status: ('A' for Active; 'I' for Inactive)
REMARK    1  A    between atoms: C_2  and  C_19
REMARK    2  A    between atoms: N_3  and  C_4
REMARK    3  A    between atoms: C_4  and  C_5
REMARK    4  A    between atoms: C_8  and  C_9
REMARK    5  A    between atoms: C_9  and  N_10
REMARK    6  A    between atoms: N_10  and  C_11
REMARK                            x       y       z     vdW  Elec       q    Type
REMARK                         _______ _______ _______ _____ _____    ______ ____
ROOT
ATOM      1  C   UNL     1      47.176   3.351  16.853  0.00  0.00    +0.000 C 
ENDROOT
BRANCH   1   2
ATOM      2  C   UNL     1      48.625   3.491  17.239  0.00  0.00    +0.000 A 
ATOM      3  C   UNL     1      49.523   2.440  17.006  0.00  0.00    +0.000 A 
ATOM      4  C   UNL     1      50.873   2.563  17.356  0.00  0.00    +0.000 A 
ATOM      5  C   UNL     1      51.349   3.733  17.964  0.00  0.00    +0.000 A 
ATOM      6  C   UNL     1      50.452   4.786  18.191  0.00  0.00    +0.000 A 
ATOM      7  C   UNL     1      49.102   4.661  17.846  0.00  0.00    +0.000 A 
BRANCH   5   8
ATOM      8  C   UNL     1      52.799   3.849  18.385  0.00  0.00    +0.000 C 
BRANCH   8   9
ATOM      9  N   UNL     1      53.282   5.208  18.202  0.00  0.00    +0.000 N 
ATOM     10  H   UNL     1      52.632   5.910  18.546  0.00  0.00    +0.000 HD
BRANCH   9  11
ATOM     11  C   UNL     1      53.862   5.590  16.986  0.00  0.00    +0.000 A 
ATOM     12  C   UNL     1      55.073   5.081  16.500  0.00  0.00    +0.000 A 
ATOM     13  C   UNL     1      55.625   5.539  15.298  0.00  0.00    +0.000 A 
ATOM     14  C   UNL     1      54.994   6.547  14.577  0.00  0.00    +0.000 A 
ATOM     15  C   UNL     1      53.819   7.106  15.066  0.00  0.00    +0.000 A 
ATOM     16  C   UNL     1      53.267   6.636  16.264  0.00  0.00    +0.000 A 
ENDBRANCH   9  11
ENDBRANCH   8   9
ENDBRANCH   5   8
ENDBRANCH   1   2
BRANCH   1  19
ATOM     17  O   UNL     1      47.272   3.080  14.048  0.00  0.00    +0.000 OA
ATOM     18  C   UNL     1      46.827   4.120  14.531  0.00  0.00    +0.000 C 
ATOM     19  N   UNL     1      46.781   4.341  15.882  0.00  0.00    +0.000 N 
ATOM     20  H   UNL     1      46.278   5.145  16.241  0.00  0.00    +0.000 HD
BRANCH  18  21
ATOM     21  C   UNL     1      46.359   5.217  13.671  0.00  0.00    +0.000 A 
ATOM     22  C   UNL     1      47.184   6.309  13.436  0.00  0.00    +0.000 A 
ATOM     23  S   UNL     1      46.493   7.481  12.407  0.00  0.00    +0.000 S 
ATOM     24  C   UNL     1      45.081   6.555  12.210  0.00  0.00    +0.000 A 
ATOM     25  N   UNL     1      44.076   6.979  11.396  0.00  0.00    +0.000 NA
ATOM     26  C   UNL     1      43.081   6.159  11.308  0.00  0.00    +0.000 A 
ATOM     27  N   UNL     1      42.991   4.965  11.973  0.00  0.00    +0.000 N 
ATOM     28  C   UNL     1      43.941   4.538  12.872  0.00  0.00    +0.000 A 
ATOM     29  O   UNL     1      43.757   3.544  13.564  0.00  0.00    +0.000 OA
ATOM     30  C   UNL     1      45.115   5.388  12.955  0.00  0.00    +0.000 A 
ATOM     31  H   UNL     1      42.166   4.389  11.893  0.00  0.00    +0.000 HD
ENDBRANCH  18  21
ENDBRANCH   1  19
TORSDOF 6
ENDMDL
