MODEL 1
REMARK VINA RESULT:    -7.497      0.000      0.000
REMARK INTER + INTRA:         -12.706
REMARK INTER:                 -11.442
REMARK INTRA:                  -1.264
REMARK UNBOUND:                -1.264
REMARK  Name = 
REMARK  9 active torsions:
REMARK  status: ('A' for Active; 'I' for Inactive)
REMARK    1  A    between atoms: C_2  and  C_3
REMARK    2  A    between atoms: C_3  and  N_4
REMARK    3  A    between atoms: C_3  and  C_22
REMARK    4  A    between atoms: N_4  and  C_5
REMARK    5  A    between atoms: C_5  and  C_6
REMARK    6  A    between atoms: C_9  and  C_10
REMARK    7  A    between atoms: C_10  and  O_11
REMARK    8  A    between atoms: O_11  and  C_12
REMARK    9  A    between atoms: C_12  and  C_13
REMARK                            x       y       z     vdW  Elec       q    Type
REMARK                         _______ _______ _______ _____ _____    ______ ____
ROOT
ATOM      1  C   UNL     1      48.408   6.845  14.507  0.00  0.00    +0.000 C 
ENDROOT
BRANCH   1   2
ATOM      2  C   UNL     1      47.369   6.154  13.658  0.00  0.00    +0.000 A 
ATOM      3  C   UNL     1      46.680   6.845  12.653  0.00  0.00    +0.000 A 
ATOM      4  C   UNL     1      45.728   6.191  11.866  0.00  0.00    +0.000 A 
ATOM      5  C   UNL     1      45.453   4.832  12.061  0.00  0.00    +0.000 A 
ATOM      6  C   UNL     1      46.145   4.138  13.062  0.00  0.00    +0.000 A 
ATOM      7  C   UNL     1      47.092   4.792  13.854  0.00  0.00    +0.000 A 
BRANCH   5   8
ATOM      8  C   UNL     1      44.393   4.138  11.246  0.00  0.00    +0.000 C 
BRANCH   8   9
ATOM      9  O   UNL     1      44.852   2.850  10.844  0.00  0.00    +0.000 OA
BRANCH   9  10
ATOM     10  C   UNL     1      44.420   2.554   9.514  0.00  0.00    +0.000 C 
BRANCH  10  11
ATOM     11  C   UNL     1      45.586   2.248   8.605  0.00  0.00    +0.000 A 
ATOM     12  N   UNL     1      45.833   0.924   8.380  0.00  0.00    +0.000 NA
ATOM     13  C   UNL     1      46.853   0.603   7.553  0.00  0.00    +0.000 A 
ATOM     14  C   UNL     1      47.649   1.539   6.922  0.00  0.00    +0.000 A 
ATOM     15  C   UNL     1      47.384   2.886   7.146  0.00  0.00    +0.000 A 
ATOM     16  C   UNL     1      46.337   3.255   7.993  0.00  0.00    +0.000 A 
ATOM     17 CL   UNL     1      46.006   4.935   8.200  0.00  0.00    +0.000 Cl
ENDBRANCH  10  11
ENDBRANCH   9  10
ENDBRANCH   8   9
ENDBRANCH   5   8
ENDBRANCH   1   2
BRANCH   1  18
ATOM     18  N   UNL     1      49.158   5.886  15.318  0.00  0.00    +0.000 NA
ATOM     19  H   UNL     1      48.841   4.946  15.100  0.00  0.00    +0.000 HD
BRANCH  18  20
ATOM     20  C   UNL     1      48.976   6.126  16.763  0.00  0.00    +0.000 C 
BRANCH  20  21
ATOM     21  C   UNL     1      50.141   5.417  17.457  0.00  0.00    +0.000 A 
ATOM     22  C   UNL     1      51.123   6.071  18.188  0.00  0.00    +0.000 A 
ATOM     23  S   UNL     1      52.373   5.041  18.732  0.00  0.00    +0.000 S 
ATOM     24  C   UNL     1      51.645   3.684  18.019  0.00  0.00    +0.000 A 
ATOM     25  N   UNL     1      52.246   2.462  18.046  0.00  0.00    +0.000 NA
ATOM     26  C   UNL     1      51.581   1.524  17.462  0.00  0.00    +0.000 A 
ATOM     27  N   UNL     1      50.342   1.684  16.883  0.00  0.00    +0.000 N 
ATOM     28  C   UNL     1      49.665   2.888  16.893  0.00  0.00    +0.000 A 
ATOM     29  O   UNL     1      48.514   2.988  16.487  0.00  0.00    +0.000 OA
ATOM     30  C   UNL     1      50.429   3.996  17.441  0.00  0.00    +0.000 A 
ATOM     31  H   UNL     1      49.849   0.892  16.502  0.00  0.00    +0.000 HD
ENDBRANCH  20  21
BRANCH  20  33
ATOM     32  N   UNL     1      49.058   8.831  17.404  0.00  0.00    +0.000 NA
ATOM     33  C   UNL     1      49.021   7.604  17.112  0.00  0.00    +0.000 C 
ENDBRANCH  20  33
ENDBRANCH  18  20
ENDBRANCH   1  18
TORSDOF 9
ENDMDL
MODEL 2
REMARK VINA RESULT:    -7.027      1.852      2.501
REMARK INTER + INTRA:         -11.988
REMARK INTER:                 -11.162
REMARK INTRA:                  -0.827
REMARK UNBOUND:                -1.264
REMARK  Name = 
REMARK  9 active torsions:
REMARK  status: ('A' for Active; 'I' for Inactive)
REMARK    1  A    between atoms: C_2  and  C_3
REMARK    2  A    between atoms: C_3  and  N_4
REMARK    3  A    between atoms: C_3  and  C_22
REMARK    4  A    between atoms: N_4  and  C_5
REMARK    5  A    between atoms: C_5  and  C_6
REMARK    6  A    between atoms: C_9  and  C_10
REMARK    7  A    between atoms: C_10  and  O_11
REMARK    8  A    between atoms: O_11  and  C_12
REMARK    9  A    between atoms: C_12  and  C_13
REMARK                            x       y       z     vdW  Elec       q    Type
REMARK                         _______ _______ _______ _____ _____    ______ ____
ROOT
ATOM      1  C   UNL     1      49.619   6.985  15.087  0.00  0.00    +0.000 C 
ENDROOT
BRANCH   1   2
ATOM      2  C   UNL     1      48.392   7.013  14.209  0.00  0.00    +0.000 A 
ATOM      3  C   UNL     1      47.617   8.174  14.085  0.00  0.00    +0.000 A 
ATOM      4  C   UNL     1      46.490   8.190  13.259  0.00  0.00    +0.000 A 
ATOM      5  C   UNL     1      46.120   7.051  12.535  0.00  0.00    +0.000 A 
ATOM      6  C   UNL     1      46.897   5.892  12.653  0.00  0.00    +0.000 A 
ATOM      7  C   UNL     1      48.021   5.872  13.483  0.00  0.00    +0.000 A 
BRANCH   5   8
ATOM      8  C   UNL     1      44.878   7.053  11.682  0.00  0.00    +0.000 C 
BRANCH   8   9
ATOM      9  O   UNL     1      44.196   5.808  11.811  0.00  0.00    +0.000 OA
BRANCH   9  10
ATOM     10  C   UNL     1      43.517   5.477  10.597  0.00  0.00    +0.000 C 
BRANCH  10  11
ATOM     11  C   UNL     1      44.232   4.385   9.838  0.00  0.00    +0.000 A 
ATOM     12  N   UNL     1      44.992   4.795   8.780  0.00  0.00    +0.000 NA
ATOM     13  C   UNL     1      45.670   3.854   8.087  0.00  0.00    +0.000 A 
ATOM     14  C   UNL     1      45.639   2.507   8.395  0.00  0.00    +0.000 A 
ATOM     15  C   UNL     1      44.873   2.098   9.481  0.00  0.00    +0.000 A 
ATOM     16  C   UNL     1      44.161   3.044  10.222  0.00  0.00    +0.000 A 
ATOM     17 CL   UNL     1      43.268   2.502  11.594  0.00  0.00    +0.000 Cl
ENDBRANCH  10  11
ENDBRANCH   9  10
ENDBRANCH   8   9
ENDBRANCH   5   8
ENDBRANCH   1   2
BRANCH   1  18
ATOM     18  N   UNL     1      49.293   6.555  16.446  0.00  0.00    +0.000 NA
ATOM     19  H   UNL     1      50.031   6.858  17.077  0.00  0.00    +0.000 HD
BRANCH  18  20
ATOM     20  C   UNL     1      49.157   5.089  16.543  0.00  0.00    +0.000 C 
BRANCH  20  21
ATOM     21  C   UNL     1      50.299   4.619  17.447  0.00  0.00    +0.000 A 
ATOM     22  C   UNL     1      50.991   5.449  18.319  0.00  0.00    +0.000 A 
ATOM     23  S   UNL     1      52.303   4.682  19.099  0.00  0.00    +0.000 S 
ATOM     24  C   UNL     1      51.993   3.214  18.306  0.00  0.00    +0.000 A 
ATOM     25  N   UNL     1      52.808   2.135  18.470  0.00  0.00    +0.000 NA
ATOM     26  C   UNL     1      52.453   1.090  17.804  0.00  0.00    +0.000 A 
ATOM     27  N   UNL     1      51.328   1.005  17.015  0.00  0.00    +0.000 N 
ATOM     28  C   UNL     1      50.437   2.051  16.876  0.00  0.00    +0.000 A 
ATOM     29  O   UNL     1      49.378   1.925  16.274  0.00  0.00    +0.000 OA
ATOM     30  C   UNL     1      50.859   3.284  17.518  0.00  0.00    +0.000 A 
ATOM     31  H   UNL     1      51.075   0.135  16.575  0.00  0.00    +0.000 HD
ENDBRANCH  20  21
BRANCH  20  33
ATOM     32  N   UNL     1      46.737   4.325  17.679  0.00  0.00    +0.000 NA
ATOM     33  C   UNL     1      47.835   4.672  17.164  0.00  0.00    +0.000 C 
ENDBRANCH  20  33
ENDBRANCH  18  20
ENDBRANCH   1  18
TORSDOF 9
ENDMDL
MODEL 3
REMARK VINA RESULT:    -6.852      2.312      4.163
REMARK INTER + INTRA:         -11.721
REMARK INTER:                 -10.631
REMARK INTRA:                  -1.090
REMARK UNBOUND:                -1.264
REMARK  Name = 
REMARK  9 active torsions:
REMARK  status: ('A' for Active; 'I' for Inactive)
REMARK    1  A    between atoms: C_2  and  C_3
REMARK    2  A    between atoms: C_3  and  N_4
REMARK    3  A    between atoms: C_3  and  C_22
REMARK    4  A    between atoms: N_4  and  C_5
REMARK    5  A    between atoms: C_5  and  C_6
REMARK    6  A    between atoms: C_9  and  C_10
REMARK    7  A    between atoms: C_10  and  O_11
REMARK    8  A    between atoms: O_11  and  C_12
REMARK    9  A    between atoms: C_12  and  C_13
REMARK                            x       y       z     vdW  Elec       q    Type
REMARK                         _______ _______ _______ _____ _____    ______ ____
ROOT
ATOM      1  C   UNL     1      47.446   4.114  15.356  0.00  0.00    +0.000 C 
ENDROOT
BRANCH   1   2
ATOM      2  C   UNL     1      46.861   4.583  14.046  0.00  0.00    +0.000 A 
ATOM      3  C   UNL     1      45.918   3.810  13.357  0.00  0.00    +0.000 A 
ATOM      4  C   UNL     1      45.376   4.261  12.150  0.00  0.00    +0.000 A 
ATOM      5  C   UNL     1      45.759   5.495  11.613  0.00  0.00    +0.000 A 
ATOM      6  C   UNL     1      46.698   6.271  12.303  0.00  0.00    +0.000 A 
ATOM      7  C   UNL     1      47.246   5.820  13.507  0.00  0.00    +0.000 A 
BRANCH   5   8
ATOM      8  C   UNL     1      45.212   5.960  10.288  0.00  0.00    +0.000 C 
BRANCH   8   9
ATOM      9  O   UNL     1      45.988   5.418   9.223  0.00  0.00    +0.000 OA
BRANCH   9  10
ATOM     10  C   UNL     1      45.196   4.543   8.416  0.00  0.00    +0.000 C 
BRANCH  10  11
ATOM     11  C   UNL     1      45.986   3.342   7.956  0.00  0.00    +0.000 A 
ATOM     12  N   UNL     1      47.051   3.606   7.143  0.00  0.00    +0.000 NA
ATOM     13  C   UNL     1      47.802   2.563   6.726  0.00  0.00    +0.000 A 
ATOM     14  C   UNL     1      47.553   1.251   7.082  0.00  0.00    +0.000 A 
ATOM     15  C   UNL     1      46.473   0.990   7.919  0.00  0.00    +0.000 A 
ATOM     16  C   UNL     1      45.677   2.044   8.371  0.00  0.00    +0.000 A 
ATOM     17 CL   UNL     1      44.383   1.684   9.453  0.00  0.00    +0.000 Cl
ENDBRANCH  10  11
ENDBRANCH   9  10
ENDBRANCH   8   9
ENDBRANCH   5   8
ENDBRANCH   1   2
BRANCH   1  18
ATOM     18  N   UNL     1      47.506   5.201  16.333  0.00  0.00    +0.000 NA
ATOM     19  H   UNL     1      47.442   6.090  15.846  0.00  0.00    +0.000 HD
BRANCH  18  20
ATOM     20  C   UNL     1      48.759   5.174  17.111  0.00  0.00    +0.000 C 
BRANCH  20  21
ATOM     21  C   UNL     1      48.439   5.848  18.448  0.00  0.00    +0.000 A 
ATOM     22  C   UNL     1      48.333   5.169  19.654  0.00  0.00    +0.000 A 
ATOM     23  S   UNL     1      47.831   6.155  20.955  0.00  0.00    +0.000 S 
ATOM     24  C   UNL     1      47.743   7.526  19.958  0.00  0.00    +0.000 A 
ATOM     25  N   UNL     1      47.297   8.722  20.435  0.00  0.00    +0.000 NA
ATOM     26  C   UNL     1      47.281   9.673  19.565  0.00  0.00    +0.000 A 
ATOM     27  N   UNL     1      47.709   9.554  18.262  0.00  0.00    +0.000 N 
ATOM     28  C   UNL     1      48.234   8.382  17.756  0.00  0.00    +0.000 A 
ATOM     29  O   UNL     1      48.726   8.322  16.636  0.00  0.00    +0.000 OA
ATOM     30  C   UNL     1      48.165   7.254  18.670  0.00  0.00    +0.000 A 
ATOM     31  H   UNL     1      47.731  10.357  17.655  0.00  0.00    +0.000 HD
ENDBRANCH  20  21
BRANCH  20  33
ATOM     32  N   UNL     1      49.643   2.583  17.599  0.00  0.00    +0.000 NA
ATOM     33  C   UNL     1      49.242   3.758  17.377  0.00  0.00    +0.000 C 
ENDBRANCH  20  33
ENDBRANCH  18  20
ENDBRANCH   1  18
TORSDOF 9
ENDMDL
MODEL 4
REMARK VINA RESULT:    -6.684      2.158      2.921
REMARK INTER + INTRA:         -11.464
REMARK INTER:                 -10.062
REMARK INTRA:                  -1.402
REMARK UNBOUND:                -1.264
REMARK  Name = 
REMARK  9 active torsions:
REMARK  status: ('A' for Active; 'I' for Inactive)
REMARK    1  A    between atoms: C_2  and  C_3
REMARK    2  A    between atoms: C_3  and  N_4
REMARK    3  A    between atoms: C_3  and  C_22
REMARK    4  A    between atoms: N_4  and  C_5
REMARK    5  A    between atoms: C_5  and  C_6
REMARK    6  A    between atoms: C_9  and  C_10
REMARK    7  A    between atoms: C_10  and  O_11
REMARK    8  A    between atoms: O_11  and  C_12
REMARK    9  A    between atoms: C_12  and  C_13
REMARK                            x       y       z     vdW  Elec       q    Type
REMARK                         _______ _______ _______ _____ _____    ______ ____
ROOT
ATOM      1  C   UNL     1      48.863   8.550  16.377  0.00  0.00    +0.000 C 
ENDROOT
BRANCH   1   2
ATOM      2  C   UNL     1      48.282   8.043  15.080  0.00  0.00    +0.000 A 
ATOM      3  C   UNL     1      47.548   8.887  14.237  0.00  0.00    +0.000 A 
ATOM      4  C   UNL     1      47.025   8.409  13.033  0.00  0.00    +0.000 A 
ATOM      5  C   UNL     1      47.232   7.080  12.643  0.00  0.00    +0.000 A 
ATOM      6  C   UNL     1      47.970   6.236  13.482  0.00  0.00    +0.000 A 
ATOM      7  C   UNL     1      48.489   6.711  14.689  0.00  0.00    +0.000 A 
BRANCH   5   8
ATOM      8  C   UNL     1      46.628   6.550  11.369  0.00  0.00    +0.000 C 
BRANCH   8   9
ATOM      9  O   UNL     1      45.509   5.720  11.668  0.00  0.00    +0.000 OA
BRANCH   9  10
ATOM     10  C   UNL     1      44.632   5.631  10.541  0.00  0.00    +0.000 C 
BRANCH  10  11
ATOM     11  C   UNL     1      44.985   4.462   9.653  0.00  0.00    +0.000 A 
ATOM     12  N   UNL     1      45.764   4.752   8.569  0.00  0.00    +0.000 NA
ATOM     13  C   UNL     1      46.125   3.733   7.759  0.00  0.00    +0.000 A 
ATOM     14  C   UNL     1      45.754   2.419   7.972  0.00  0.00    +0.000 A 
ATOM     15  C   UNL     1      44.970   2.129   9.084  0.00  0.00    +0.000 A 
ATOM     16  C   UNL     1      44.580   3.157   9.944  0.00  0.00    +0.000 A 
ATOM     17 CL   UNL     1      43.656   2.747  11.341  0.00  0.00    +0.000 Cl
ENDBRANCH  10  11
ENDBRANCH   9  10
ENDBRANCH   8   9
ENDBRANCH   5   8
ENDBRANCH   1   2
BRANCH   1  18
ATOM     18  N   UNL     1      48.035   8.165  17.520  0.00  0.00    +0.000 NA
ATOM     19  H   UNL     1      47.460   8.957  17.796  0.00  0.00    +0.000 HD
BRANCH  18  20
ATOM     20  C   UNL     1      48.850   7.744  18.675  0.00  0.00    +0.000 C 
BRANCH  20  21
ATOM     21  C   UNL     1      49.497   6.417  18.272  0.00  0.00    +0.000 A 
ATOM     22  C   UNL     1      50.863   6.238  18.105  0.00  0.00    +0.000 A 
ATOM     23  S   UNL     1      51.286   4.690  17.520  0.00  0.00    +0.000 S 
ATOM     24  C   UNL     1      49.662   4.200  17.473  0.00  0.00    +0.000 A 
ATOM     25  N   UNL     1      49.304   2.978  16.988  0.00  0.00    +0.000 NA
ATOM     26  C   UNL     1      48.037   2.743  17.010  0.00  0.00    +0.000 A 
ATOM     27  N   UNL     1      47.087   3.602  17.513  0.00  0.00    +0.000 N 
ATOM     28  C   UNL     1      47.410   4.820  18.079  0.00  0.00    +0.000 A 
ATOM     29  O   UNL     1      46.573   5.520  18.635  0.00  0.00    +0.000 OA
ATOM     30  C   UNL     1      48.816   5.173  17.971  0.00  0.00    +0.000 A 
ATOM     31  H   UNL     1      46.120   3.326  17.560  0.00  0.00    +0.000 HD
ENDBRANCH  20  21
BRANCH  20  33
ATOM     32  N   UNL     1      50.853   9.576  19.278  0.00  0.00    +0.000 NA
ATOM     33  C   UNL     1      49.945   8.745  19.004  0.00  0.00    +0.000 C 
ENDBRANCH  20  33
ENDBRANCH  18  20
ENDBRANCH   1  18
TORSDOF 9
ENDMDL
MODEL 5
REMARK VINA RESULT:    -6.638      2.287      3.133
REMARK INTER + INTRA:         -11.395
REMARK INTER:                 -10.424
REMARK INTRA:                  -0.970
REMARK UNBOUND:                -1.264
REMARK  Name = 
REMARK  9 active torsions:
REMARK  status: ('A' for Active; 'I' for Inactive)
REMARK    1  A    between atoms: C_2  and  C_3
REMARK    2  A    between atoms: C_3  and  N_4
REMARK    3  A    between atoms: C_3  and  C_22
REMARK    4  A    between atoms: N_4  and  C_5
REMARK    5  A    between atoms: C_5  and  C_6
REMARK    6  A    between atoms: C_9  and  C_10
REMARK    7  A    between atoms: C_10  and  O_11
REMARK    8  A    between atoms: O_11  and  C_12
REMARK    9  A    between atoms: C_12  and  C_13
REMARK                            x       y       z     vdW  Elec       q    Type
REMARK                         _______ _______ _______ _____ _____    ______ ____
ROOT
ATOM      1  C   UNL     1      47.193   8.503  12.827  0.00  0.00    +0.000 C 
ENDROOT
BRANCH   1   2
ATOM      2  C   UNL     1      46.354   7.311  12.436  0.00  0.00    +0.000 A 
ATOM      3  C   UNL     1      45.202   7.462  11.653  0.00  0.00    +0.000 A 
ATOM      4  C   UNL     1      44.441   6.349  11.288  0.00  0.00    +0.000 A 
ATOM      5  C   UNL     1      44.820   5.062  11.690  0.00  0.00    +0.000 A 
ATOM      6  C   UNL     1      45.974   4.909  12.467  0.00  0.00    +0.000 A 
ATOM      7  C   UNL     1      46.734   6.022  12.839  0.00  0.00    +0.000 A 
BRANCH   5   8
ATOM      8  C   UNL     1      43.973   3.867  11.338  0.00  0.00    +0.000 C 
BRANCH   8   9
ATOM      9  O   UNL     1      44.793   2.826  10.813  0.00  0.00    +0.000 OA
BRANCH   9  10
ATOM     10  C   UNL     1      44.374   2.473   9.492  0.00  0.00    +0.000 C 
BRANCH  10  11
ATOM     11  C   UNL     1      45.553   2.203   8.587  0.00  0.00    +0.000 A 
ATOM     12  N   UNL     1      45.834   0.887   8.352  0.00  0.00    +0.000 NA
ATOM     13  C   UNL     1      46.865   0.599   7.529  0.00  0.00    +0.000 A 
ATOM     14  C   UNL     1      47.642   1.561   6.910  0.00  0.00    +0.000 A 
ATOM     15  C   UNL     1      47.343   2.899   7.145  0.00  0.00    +0.000 A 
ATOM     16  C   UNL     1      46.282   3.234   7.989  0.00  0.00    +0.000 A 
ATOM     17 CL   UNL     1      45.909   4.903   8.208  0.00  0.00    +0.000 Cl
ENDBRANCH  10  11
ENDBRANCH   9  10
ENDBRANCH   8   9
ENDBRANCH   5   8
ENDBRANCH   1   2
BRANCH   1  18
ATOM     18  N   UNL     1      47.271   8.647  14.280  0.00  0.00    +0.000 NA
ATOM     19  H   UNL     1      46.428   9.108  14.614  0.00  0.00    +0.000 HD
BRANCH  18  20
ATOM     20  C   UNL     1      48.443   9.442  14.694  0.00  0.00    +0.000 C 
BRANCH  20  21
ATOM     21  C   UNL     1      48.586   9.228  16.202  0.00  0.00    +0.000 A 
ATOM     22  C   UNL     1      48.401  10.226  17.149  0.00  0.00    +0.000 A 
ATOM     23  S   UNL     1      48.761   9.733  18.745  0.00  0.00    +0.000 S 
ATOM     24  C   UNL     1      49.172   8.169  18.231  0.00  0.00    +0.000 A 
ATOM     25  N   UNL     1      49.649   7.239  19.105  0.00  0.00    +0.000 NA
ATOM     26  C   UNL     1      49.922   6.096  18.575  0.00  0.00    +0.000 A 
ATOM     27  N   UNL     1      49.725   5.777  17.250  0.00  0.00    +0.000 N 
ATOM     28  C   UNL     1      49.179   6.665  16.344  0.00  0.00    +0.000 A 
ATOM     29  O   UNL     1      48.893   6.332  15.201  0.00  0.00    +0.000 OA
ATOM     30  C   UNL     1      48.963   8.000  16.875  0.00  0.00    +0.000 A 
ATOM     31  H   UNL     1      49.899   4.842  16.917  0.00  0.00    +0.000 HD
ENDBRANCH  20  21
BRANCH  20  33
ATOM     32  N   UNL     1      50.781   8.606  13.441  0.00  0.00    +0.000 NA
ATOM     33  C   UNL     1      49.720   8.985  14.009  0.00  0.00    +0.000 C 
ENDBRANCH  20  33
ENDBRANCH  18  20
ENDBRANCH   1  18
TORSDOF 9
ENDMDL
MODEL 6
REMARK VINA RESULT:    -6.601      3.961      8.658
REMARK INTER + INTRA:         -11.338
REMARK INTER:                  -9.863
REMARK INTRA:                  -1.475
REMARK UNBOUND:                -1.264
REMARK  Name = 
REMARK  9 active torsions:
REMARK  status: ('A' for Active; 'I' for Inactive)
REMARK    1  A    between atoms: C_2  and  C_3
REMARK    2  A    between atoms: C_3  and  N_4
REMARK    3  A    between atoms: C_3  and  C_22
REMARK    4  A    between atoms: N_4  and  C_5
REMARK    5  A    between atoms: C_5  and  C_6
REMARK    6  A    between atoms: C_9  and  C_10
REMARK    7  A    between atoms: C_10  and  O_11
REMARK    8  A    between atoms: O_11  and  C_12
REMARK    9  A    between atoms: C_12  and  C_13
REMARK                            x       y       z     vdW  Elec       q    Type
REMARK                         _______ _______ _______ _____ _____    ______ ____
ROOT
ATOM      1  C   UNL     1      48.134   7.903  12.525  0.00  0.00    +0.000 C 
ENDROOT
BRANCH   1   2
ATOM      2  C   UNL     1      48.498   7.896  13.990  0.00  0.00    +0.000 A 
ATOM      3  C   UNL     1      49.349   6.918  14.520  0.00  0.00    +0.000 A 
ATOM      4  C   UNL     1      49.688   6.930  15.875  0.00  0.00    +0.000 A 
ATOM      5  C   UNL     1      49.192   7.924  16.726  0.00  0.00    +0.000 A 
ATOM      6  C   UNL     1      48.346   8.907  16.197  0.00  0.00    +0.000 A 
ATOM      7  C   UNL     1      48.000   8.893  14.843  0.00  0.00    +0.000 A 
BRANCH   5   8
ATOM      8  C   UNL     1      49.518   7.910  18.197  0.00  0.00    +0.000 C 
BRANCH   8   9
ATOM      9  O   UNL     1      48.428   7.360  18.932  0.00  0.00    +0.000 OA
BRANCH   9  10
ATOM     10  C   UNL     1      48.809   6.130  19.553  0.00  0.00    +0.000 C 
BRANCH  10  11
ATOM     11  C   UNL     1      48.622   4.955  18.623  0.00  0.00    +0.000 A 
ATOM     12  N   UNL     1      47.371   4.809  18.094  0.00  0.00    +0.000 NA
ATOM     13  C   UNL     1      47.163   3.785  17.237  0.00  0.00    +0.000 A 
ATOM     14  C   UNL     1      48.146   2.888  16.865  0.00  0.00    +0.000 A 
ATOM     15  C   UNL     1      49.420   3.049  17.398  0.00  0.00    +0.000 A 
ATOM     16  C   UNL     1      49.672   4.098  18.286  0.00  0.00    +0.000 A 
ATOM     17 CL   UNL     1      51.278   4.297  18.880  0.00  0.00    +0.000 Cl
ENDBRANCH  10  11
ENDBRANCH   9  10
ENDBRANCH   8   9
ENDBRANCH   5   8
ENDBRANCH   1   2
BRANCH   1  18
ATOM     18  N   UNL     1      47.308   6.747  12.176  0.00  0.00    +0.000 NA
ATOM     19  H   UNL     1      47.845   6.122  11.582  0.00  0.00    +0.000 HD
BRANCH  18  20
ATOM     20  C   UNL     1      46.080   7.143  11.461  0.00  0.00    +0.000 C 
BRANCH  20  21
ATOM     21  C   UNL     1      45.093   5.989  11.648  0.00  0.00    +0.000 A 
ATOM     22  C   UNL     1      44.274   5.840  12.759  0.00  0.00    +0.000 A 
ATOM     23  S   UNL     1      43.377   4.386  12.760  0.00  0.00    +0.000 S 
ATOM     24  C   UNL     1      44.044   3.905  11.275  0.00  0.00    +0.000 A 
ATOM     25  N   UNL     1      43.750   2.693  10.726  0.00  0.00    +0.000 NA
ATOM     26  C   UNL     1      44.331   2.461   9.599  0.00  0.00    +0.000 A 
ATOM     27  N   UNL     1      45.152   3.348   8.941  0.00  0.00    +0.000 N 
ATOM     28  C   UNL     1      45.421   4.613   9.425  0.00  0.00    +0.000 A 
ATOM     29  O   UNL     1      46.049   5.438   8.773  0.00  0.00    +0.000 OA
ATOM     30  C   UNL     1      44.878   4.873  10.748  0.00  0.00    +0.000 A 
ATOM     31  H   UNL     1      45.520   3.126   8.029  0.00  0.00    +0.000 HD
ENDBRANCH  20  21
BRANCH  20  33
ATOM     32  N   UNL     1      44.957   9.466  12.500  0.00  0.00    +0.000 NA
ATOM     33  C   UNL     1      45.466   8.412  12.028  0.00  0.00    +0.000 C 
ENDBRANCH  20  33
ENDBRANCH  18  20
ENDBRANCH   1  18
TORSDOF 9
ENDMDL
MODEL 7
REMARK VINA RESULT:    -6.507      4.179      9.216
REMARK INTER + INTRA:         -11.194
REMARK INTER:                 -10.080
REMARK INTRA:                  -1.114
REMARK UNBOUND:                -1.264
REMARK  Name = 
REMARK  9 active torsions:
REMARK  status: ('A' for Active; 'I' for Inactive)
REMARK    1  A    between atoms: C_2  and  C_3
REMARK    2  A    between atoms: C_3  and  N_4
REMARK    3  A    between atoms: C_3  and  C_22
REMARK    4  A    between atoms: N_4  and  C_5
REMARK    5  A    between atoms: C_5  and  C_6
REMARK    6  A    between atoms: C_9  and  C_10
REMARK    7  A    between atoms: C_10  and  O_11
REMARK    8  A    between atoms: O_11  and  C_12
REMARK    9  A    between atoms: C_12  and  C_13
REMARK                            x       y       z     vdW  Elec       q    Type
REMARK                         _______ _______ _______ _____ _____    ______ ____
ROOT
ATOM      1  C   UNL     1      48.328   5.471  17.300  0.00  0.00    +0.000 C 
ENDROOT
BRANCH   1   2
ATOM      2  C   UNL     1      49.296   4.314  17.347  0.00  0.00    +0.000 A 
ATOM      3  C   UNL     1      48.883   3.012  17.035  0.00  0.00    +0.000 A 
ATOM      4  C   UNL     1      49.792   1.951  17.070  0.00  0.00    +0.000 A 
ATOM      5  C   UNL     1      51.132   2.171  17.409  0.00  0.00    +0.000 A 
ATOM      6  C   UNL     1      51.548   3.473  17.715  0.00  0.00    +0.000 A 
ATOM      7  C   UNL     1      50.640   4.534  17.687  0.00  0.00    +0.000 A 
BRANCH   5   8
ATOM      8  C   UNL     1      52.102   1.021  17.494  0.00  0.00    +0.000 C 
BRANCH   8   9
ATOM      9  O   UNL     1      53.044   1.254  18.538  0.00  0.00    +0.000 OA
BRANCH   9  10
ATOM     10  C   UNL     1      54.346   0.810  18.150  0.00  0.00    +0.000 C 
BRANCH  10  11
ATOM     11  C   UNL     1      54.541  -0.661  18.432  0.00  0.00    +0.000 A 
ATOM     12  N   UNL     1      54.187  -1.078  19.683  0.00  0.00    +0.000 NA
ATOM     13  C   UNL     1      54.322  -2.391  19.973  0.00  0.00    +0.000 A 
ATOM     14  C   UNL     1      54.790  -3.329  19.072  0.00  0.00    +0.000 A 
ATOM     15  C   UNL     1      55.138  -2.899  17.796  0.00  0.00    +0.000 A 
ATOM     16  C   UNL     1      55.009  -1.549  17.461  0.00  0.00    +0.000 A 
ATOM     17 CL   UNL     1      55.398  -1.067  15.851  0.00  0.00    +0.000 Cl
ENDBRANCH  10  11
ENDBRANCH   9  10
ENDBRANCH   8   9
ENDBRANCH   5   8
ENDBRANCH   1   2
BRANCH   1  18
ATOM     18  N   UNL     1      47.554   5.470  16.060  0.00  0.00    +0.000 NA
ATOM     19  H   UNL     1      47.317   4.512  15.816  0.00  0.00    +0.000 HD
BRANCH  18  20
ATOM     20  C   UNL     1      48.303   6.073  14.942  0.00  0.00    +0.000 C 
BRANCH  20  21
ATOM     21  C   UNL     1      47.313   6.175  13.778  0.00  0.00    +0.000 A 
ATOM     22  C   UNL     1      46.978   7.365  13.147  0.00  0.00    +0.000 A 
ATOM     23  S   UNL     1      45.746   7.196  11.975  0.00  0.00    +0.000 S 
ATOM     24  C   UNL     1      45.619   5.528  12.264  0.00  0.00    +0.000 A 
ATOM     25  N   UNL     1      44.681   4.770  11.632  0.00  0.00    +0.000 NA
ATOM     26  C   UNL     1      44.698   3.521  11.951  0.00  0.00    +0.000 A 
ATOM     27  N   UNL     1      45.599   2.944  12.818  0.00  0.00    +0.000 N 
ATOM     28  C   UNL     1      46.610   3.661  13.427  0.00  0.00    +0.000 A 
ATOM     29  O   UNL     1      47.479   3.117  14.096  0.00  0.00    +0.000 OA
ATOM     30  C   UNL     1      46.556   5.092  13.183  0.00  0.00    +0.000 A 
ATOM     31  H   UNL     1      45.597   1.948  12.971  0.00  0.00    +0.000 HD
ENDBRANCH  20  21
BRANCH  20  33
ATOM     32  N   UNL     1      49.242   8.619  15.553  0.00  0.00    +0.000 NA
ATOM     33  C   UNL     1      48.816   7.464  15.275  0.00  0.00    +0.000 C 
ENDBRANCH  20  33
ENDBRANCH  18  20
ENDBRANCH   1  18
TORSDOF 9
ENDMDL
MODEL 8
REMARK VINA RESULT:    -6.320      4.189      8.297
REMARK INTER + INTRA:         -10.909
REMARK INTER:                  -9.097
REMARK INTRA:                  -1.812
REMARK UNBOUND:                -1.264
REMARK  Name = 
REMARK  9 active torsions:
REMARK  status: ('A' for Active; 'I' for Inactive)
REMARK    1  A    between atoms: C_2  and  C_3
REMARK    2  A    between atoms: C_3  and  N_4
REMARK    3  A    between atoms: C_3  and  C_22
REMARK    4  A    between atoms: N_4  and  C_5
REMARK    5  A    between atoms: C_5  and  C_6
REMARK    6  A    between atoms: C_9  and  C_10
REMARK    7  A    between atoms: C_10  and  O_11
REMARK    8  A    between atoms: O_11  and  C_12
REMARK    9  A    between atoms: C_12  and  C_13
REMARK                            x       y       z     vdW  Elec       q    Type
REMARK                         _______ _______ _______ _____ _____    ______ ____
ROOT
ATOM      1  C   UNL     1      48.042   9.017  14.374  0.00  0.00    +0.000 C 
ENDROOT
BRANCH   1   2
ATOM      2  C   UNL     1      48.666   8.556  15.669  0.00  0.00    +0.000 A 
ATOM      3  C   UNL     1      49.736   7.652  15.675  0.00  0.00    +0.000 A 
ATOM      4  C   UNL     1      50.312   7.242  16.880  0.00  0.00    +0.000 A 
ATOM      5  C   UNL     1      49.837   7.733  18.102  0.00  0.00    +0.000 A 
ATOM      6  C   UNL     1      48.771   8.642  18.097  0.00  0.00    +0.000 A 
ATOM      7  C   UNL     1      48.190   9.048  16.893  0.00  0.00    +0.000 A 
BRANCH   5   8
ATOM      8  C   UNL     1      50.425   7.255  19.404  0.00  0.00    +0.000 C 
BRANCH   8   9
ATOM      9  O   UNL     1      50.782   5.879  19.301  0.00  0.00    +0.000 OA
BRANCH   9  10
ATOM     10  C   UNL     1      49.712   5.045  19.753  0.00  0.00    +0.000 C 
BRANCH  10  11
ATOM     11  C   UNL     1      49.055   4.313  18.608  0.00  0.00    +0.000 A 
ATOM     12  N   UNL     1      49.789   3.308  18.044  0.00  0.00    +0.000 NA
ATOM     13  C   UNL     1      49.231   2.610  17.032  0.00  0.00    +0.000 A 
ATOM     14  C   UNL     1      47.961   2.853  16.543  0.00  0.00    +0.000 A 
ATOM     15  C   UNL     1      47.214   3.870  17.129  0.00  0.00    +0.000 A 
ATOM     16  C   UNL     1      47.759   4.611  18.180  0.00  0.00    +0.000 A 
ATOM     17 CL   UNL     1      46.779   5.825  18.916  0.00  0.00    +0.000 Cl
ENDBRANCH  10  11
ENDBRANCH   9  10
ENDBRANCH   8   9
ENDBRANCH   5   8
ENDBRANCH   1   2
BRANCH   1  18
ATOM     18  N   UNL     1      46.879   8.204  14.022  0.00  0.00    +0.000 NA
ATOM     19  H   UNL     1      46.419   7.895  14.875  0.00  0.00    +0.000 HD
BRANCH  18  20
ATOM     20  C   UNL     1      47.255   7.018  13.229  0.00  0.00    +0.000 C 
BRANCH  20  21
ATOM     21  C   UNL     1      45.979   6.567  12.516  0.00  0.00    +0.000 A 
ATOM     22  C   UNL     1      45.114   7.427  11.853  0.00  0.00    +0.000 A 
ATOM     23  S   UNL     1      43.701   6.664  11.270  0.00  0.00    +0.000 S 
ATOM     24  C   UNL     1      44.194   5.157  11.875  0.00  0.00    +0.000 A 
ATOM     25  N   UNL     1      43.394   4.059  11.780  0.00  0.00    +0.000 NA
ATOM     26  C   UNL     1      43.896   2.984  12.286  0.00  0.00    +0.000 A 
ATOM     27  N   UNL     1      45.150   2.891  12.846  0.00  0.00    +0.000 N 
ATOM     28  C   UNL     1      46.022   3.960  12.899  0.00  0.00    +0.000 A 
ATOM     29  O   UNL     1      47.178   3.836  13.285  0.00  0.00    +0.000 OA
ATOM     30  C   UNL     1      45.453   5.217  12.444  0.00  0.00    +0.000 A 
ATOM     31  H   UNL     1      45.505   2.003  13.161  0.00  0.00    +0.000 HD
ENDBRANCH  20  21
BRANCH  20  33
ATOM     32  N   UNL     1      49.194   7.596  11.321  0.00  0.00    +0.000 NA
ATOM     33  C   UNL     1      48.315   7.334  12.187  0.00  0.00    +0.000 C 
ENDBRANCH  20  33
ENDBRANCH  18  20
ENDBRANCH   1  18
TORSDOF 9
ENDMDL
MODEL 9
REMARK VINA RESULT:    -6.126      4.708      5.745
REMARK INTER + INTRA:         -10.613
REMARK INTER:                  -9.608
REMARK INTRA:                  -1.004
REMARK UNBOUND:                -1.264
REMARK  Name = 
REMARK  9 active torsions:
REMARK  status: ('A' for Active; 'I' for Inactive)
REMARK    1  A    between atoms: C_2  and  C_3
REMARK    2  A    between atoms: C_3  and  N_4
REMARK    3  A    between atoms: C_3  and  C_22
REMARK    4  A    between atoms: N_4  and  C_5
REMARK    5  A    between atoms: C_5  and  C_6
REMARK    6  A    between atoms: C_9  and  C_10
REMARK    7  A    between atoms: C_10  and  O_11
REMARK    8  A    between atoms: O_11  and  C_12
REMARK    9  A    between atoms: C_12  and  C_13
REMARK                            x       y       z     vdW  Elec       q    Type
REMARK                         _______ _______ _______ _____ _____    ______ ____
ROOT
ATOM      1  C   UNL     1      45.804   7.576  13.032  0.00  0.00    +0.000 C 
ENDROOT
BRANCH   1   2
ATOM      2  C   UNL     1      45.262   6.292  12.452  0.00  0.00    +0.000 A 
ATOM      3  C   UNL     1      45.616   5.048  12.991  0.00  0.00    +0.000 A 
ATOM      4  C   UNL     1      45.098   3.868  12.452  0.00  0.00    +0.000 A 
ATOM      5  C   UNL     1      44.211   3.907  11.370  0.00  0.00    +0.000 A 
ATOM      6  C   UNL     1      43.852   5.149  10.833  0.00  0.00    +0.000 A 
ATOM      7  C   UNL     1      44.374   6.331  11.367  0.00  0.00    +0.000 A 
BRANCH   5   8
ATOM      8  C   UNL     1      43.690   2.632  10.757  0.00  0.00    +0.000 C 
BRANCH   8   9
ATOM      9  O   UNL     1      44.131   2.525   9.406  0.00  0.00    +0.000 OA
BRANCH   9  10
ATOM     10  C   UNL     1      45.492   2.090   9.353  0.00  0.00    +0.000 C 
BRANCH  10  11
ATOM     11  C   UNL     1      46.108   2.350   8.000  0.00  0.00    +0.000 A 
ATOM     12  N   UNL     1      46.125   3.655   7.594  0.00  0.00    +0.000 NA
ATOM     13  C   UNL     1      46.689   3.937   6.400  0.00  0.00    +0.000 A 
ATOM     14  C   UNL     1      47.252   2.983   5.574  0.00  0.00    +0.000 A 
ATOM     15  C   UNL     1      47.242   1.658   5.998  0.00  0.00    +0.000 A 
ATOM     16  C   UNL     1      46.669   1.329   7.229  0.00  0.00    +0.000 A 
ATOM     17 CL   UNL     1      46.728  -0.316   7.743  0.00  0.00    +0.000 Cl
ENDBRANCH  10  11
ENDBRANCH   9  10
ENDBRANCH   8   9
ENDBRANCH   5   8
ENDBRANCH   1   2
BRANCH   1  18
ATOM     18  N   UNL     1      46.550   8.340  12.033  0.00  0.00    +0.000 NA
ATOM     19  H   UNL     1      47.439   7.880  11.858  0.00  0.00    +0.000 HD
BRANCH  18  20
ATOM     20  C   UNL     1      46.810   9.722  12.478  0.00  0.00    +0.000 C 
BRANCH  20  21
ATOM     21  C   UNL     1      48.127  10.137  11.816  0.00  0.00    +0.000 A 
ATOM     22  C   UNL     1      48.258  11.226  10.965  0.00  0.00    +0.000 A 
ATOM     23  S   UNL     1      49.811  11.366  10.266  0.00  0.00    +0.000 S 
ATOM     24  C   UNL     1      50.366   9.983  11.079  0.00  0.00    +0.000 A 
ATOM     25  N   UNL     1      51.619   9.492  10.867  0.00  0.00    +0.000 NA
ATOM     26  C   UNL     1      51.902   8.435  11.549  0.00  0.00    +0.000 A 
ATOM     27  N   UNL     1      51.061   7.840  12.461  0.00  0.00    +0.000 N 
ATOM     28  C   UNL     1      49.810   8.343  12.759  0.00  0.00    +0.000 A 
ATOM     29  O   UNL     1      49.122   7.880  13.660  0.00  0.00    +0.000 OA
ATOM     30  C   UNL     1      49.407   9.467  11.930  0.00  0.00    +0.000 A 
ATOM     31  H   UNL     1      51.373   7.054  13.008  0.00  0.00    +0.000 HD
ENDBRANCH  20  21
BRANCH  20  33
ATOM     32  N   UNL     1      44.809  11.482  11.681  0.00  0.00    +0.000 NA
ATOM     33  C   UNL     1      45.717  10.684  12.043  0.00  0.00    +0.000 C 
ENDBRANCH  20  33
ENDBRANCH  18  20
ENDBRANCH   1  18
TORSDOF 9
ENDMDL
