MODEL 1
REMARK VINA RESULT:    -8.433      0.000      0.000
REMARK INTER + INTRA:         -11.561
REMARK INTER:                 -10.898
REMARK INTRA:                  -0.663
REMARK UNBOUND:                -0.663
REMARK  Name = 
REMARK  5 active torsions:
REMARK  status: ('A' for Active; 'I' for Inactive)
REMARK    1  A    between atoms: C_2  and  C_4
REMARK    2  A    between atoms: C_7  and  O_8
REMARK    3  A    between atoms: O_8  and  C_9
REMARK    4  A    between atoms: C_9  and  C_10
REMARK    5  A    between atoms: C_14  and  N_15
REMARK                            x       y       z     vdW  Elec       q    Type
REMARK                         _______ _______ _______ _____ _____    ______ ____
ROOT
ATOM      1  C   UNL     1      43.589   4.185  11.193  0.00  0.00    +0.000 C 
ENDROOT
BRANCH   1   2
ATOM      2  C   UNL     1      44.780   4.515  12.054  0.00  0.00    +0.000 A 
ATOM      3  C   UNL     1      45.421   3.494  12.749  0.00  0.00    +0.000 A 
ATOM      4  N   UNL     1      46.497   3.679  13.537  0.00  0.00    +0.000 NA
ATOM      5  C   UNL     1      46.954   4.951  13.633  0.00  0.00    +0.000 A 
ATOM      6  C   UNL     1      46.415   6.070  12.988  0.00  0.00    +0.000 A 
ATOM      7  C   UNL     1      45.295   5.811  12.193  0.00  0.00    +0.000 A 
BRANCH   6   8
ATOM      8  N   UNL     1      46.957   7.328  13.116  0.00  0.00    +0.000 N 
ATOM      9  C   UNL     1      46.158   8.555  13.233  0.00  0.00    +0.000 C 
ATOM     10  C   UNL     1      46.510   9.537  12.105  0.00  0.00    +0.000 C 
ATOM     11  O   UNL     1      47.926   9.780  12.028  0.00  0.00    +0.000 OA
ATOM     12  C   UNL     1      48.629   8.549  11.795  0.00  0.00    +0.000 C 
ATOM     13  C   UNL     1      48.400   7.544  12.936  0.00  0.00    +0.000 C 
ENDBRANCH   6   8
ENDBRANCH   1   2
BRANCH   1  14
ATOM     14  O   UNL     1      43.733   4.692   9.859  0.00  0.00    +0.000 OA
BRANCH  14  18
ATOM     15  C   UNL     1      46.450   2.483   7.697  0.00  0.00    +0.000 A 
ATOM     16  C   UNL     1      45.580   1.832   8.574  0.00  0.00    +0.000 A 
ATOM     17  C   UNL     1      44.664   2.589   9.308  0.00  0.00    +0.000 A 
ATOM     18  C   UNL     1      44.652   3.966   9.129  0.00  0.00    +0.000 A 
ATOM     19  N   UNL     1      45.484   4.617   8.291  0.00  0.00    +0.000 NA
ATOM     20  C   UNL     1      46.374   3.863   7.603  0.00  0.00    +0.000 A 
BRANCH  15  22
ATOM     21  N   UNL     1      48.523   2.520   6.433  0.00  0.00    +0.000 N 
ATOM     22  C   UNL     1      47.461   1.785   6.878  0.00  0.00    +0.000 C 
ATOM     23  O   UNL     1      47.375   0.588   6.645  0.00  0.00    +0.000 OA
ATOM     24  H   UNL     1      49.262   2.000   5.975  0.00  0.00    +0.000 HD
ATOM     25  H   UNL     1      48.760   3.422   6.821  0.00  0.00    +0.000 HD
ENDBRANCH  15  22
ENDBRANCH  14  18
ENDBRANCH   1  14
TORSDOF 5
ENDMDL
MODEL 2
REMARK VINA RESULT:    -7.981      1.476      2.239
REMARK INTER + INTRA:         -10.976
REMARK INTER:                 -10.206
REMARK INTRA:                  -0.771
REMARK UNBOUND:                -0.663
REMARK  Name = 
REMARK  5 active torsions:
REMARK  status: ('A' for Active; 'I' for Inactive)
REMARK    1  A    between atoms: C_2  and  C_4
REMARK    2  A    between atoms: C_7  and  O_8
REMARK    3  A    between atoms: O_8  and  C_9
REMARK    4  A    between atoms: C_9  and  C_10
REMARK    5  A    between atoms: C_14  and  N_15
REMARK                            x       y       z     vdW  Elec       q    Type
REMARK                         _______ _______ _______ _____ _____    ______ ____
ROOT
ATOM      1  C   UNL     1      43.824   4.701  11.156  0.00  0.00    +0.000 C 
ENDROOT
BRANCH   1   2
ATOM      2  C   UNL     1      44.716   5.833  11.597  0.00  0.00    +0.000 A 
ATOM      3  C   UNL     1      44.289   7.145  11.417  0.00  0.00    +0.000 A 
ATOM      4  N   UNL     1      45.003   8.226  11.782  0.00  0.00    +0.000 NA
ATOM      5  C   UNL     1      46.204   7.981  12.359  0.00  0.00    +0.000 A 
ATOM      6  C   UNL     1      46.754   6.718  12.608  0.00  0.00    +0.000 A 
ATOM      7  C   UNL     1      45.967   5.639  12.195  0.00  0.00    +0.000 A 
BRANCH   6   8
ATOM      8  N   UNL     1      47.973   6.552  13.225  0.00  0.00    +0.000 N 
ATOM      9  C   UNL     1      48.132   6.205  14.644  0.00  0.00    +0.000 C 
ATOM     10  C   UNL     1      48.961   7.274  15.371  0.00  0.00    +0.000 C 
ATOM     11  O   UNL     1      50.208   7.534  14.701  0.00  0.00    +0.000 OA
ATOM     12  C   UNL     1      49.965   7.982  13.358  0.00  0.00    +0.000 C 
ATOM     13  C   UNL     1      49.218   6.919  12.535  0.00  0.00    +0.000 C 
ENDBRANCH   6   8
ENDBRANCH   1   2
BRANCH   1  14
ATOM     14  O   UNL     1      43.603   4.712   9.739  0.00  0.00    +0.000 OA
BRANCH  14  18
ATOM     15  C   UNL     1      46.408   2.458   7.743  0.00  0.00    +0.000 A 
ATOM     16  C   UNL     1      45.520   1.830   8.619  0.00  0.00    +0.000 A 
ATOM     17  C   UNL     1      44.574   2.603   9.296  0.00  0.00    +0.000 A 
ATOM     18  C   UNL     1      44.551   3.971   9.064  0.00  0.00    +0.000 A 
ATOM     19  N   UNL     1      45.400   4.601   8.226  0.00  0.00    +0.000 NA
ATOM     20  C   UNL     1      46.318   3.833   7.594  0.00  0.00    +0.000 A 
BRANCH  15  22
ATOM     21  N   UNL     1      48.484   2.486   6.483  0.00  0.00    +0.000 N 
ATOM     22  C   UNL     1      47.451   1.743   6.982  0.00  0.00    +0.000 C 
ATOM     23  O   UNL     1      47.416   0.529   6.840  0.00  0.00    +0.000 OA
ATOM     24  H   UNL     1      49.246   1.963   6.068  0.00  0.00    +0.000 HD
ATOM     25  H   UNL     1      48.682   3.423   6.802  0.00  0.00    +0.000 HD
ENDBRANCH  15  22
ENDBRANCH  14  18
ENDBRANCH   1  14
TORSDOF 5
ENDMDL
MODEL 3
REMARK VINA RESULT:    -7.431      2.587      3.581
REMARK INTER + INTRA:         -10.266
REMARK INTER:                  -9.777
REMARK INTRA:                  -0.489
REMARK UNBOUND:                -0.663
REMARK  Name = 
REMARK  5 active torsions:
REMARK  status: ('A' for Active; 'I' for Inactive)
REMARK    1  A    between atoms: C_2  and  C_4
REMARK    2  A    between atoms: C_7  and  O_8
REMARK    3  A    between atoms: O_8  and  C_9
REMARK    4  A    between atoms: C_9  and  C_10
REMARK    5  A    between atoms: C_14  and  N_15
REMARK                            x       y       z     vdW  Elec       q    Type
REMARK                         _______ _______ _______ _____ _____    ______ ____
ROOT
ATOM      1  C   UNL     1      44.727   4.007  11.934  0.00  0.00    +0.000 C 
ENDROOT
BRANCH   1   2
ATOM      2  C   UNL     1      45.786   4.786  12.671  0.00  0.00    +0.000 A 
ATOM      3  C   UNL     1      46.353   5.903  12.064  0.00  0.00    +0.000 A 
ATOM      4  N   UNL     1      47.298   6.673  12.637  0.00  0.00    +0.000 NA
ATOM      5  C   UNL     1      47.692   6.307  13.880  0.00  0.00    +0.000 A 
ATOM      6  C   UNL     1      47.204   5.217  14.612  0.00  0.00    +0.000 A 
ATOM      7  C   UNL     1      46.234   4.454  13.956  0.00  0.00    +0.000 A 
BRANCH   6   8
ATOM      8  N   UNL     1      47.638   4.928  15.885  0.00  0.00    +0.000 N 
ATOM      9  C   UNL     1      48.626   5.733  16.615  0.00  0.00    +0.000 C 
ATOM     10  C   UNL     1      49.833   4.871  17.015  0.00  0.00    +0.000 C 
ATOM     11  O   UNL     1      49.434   3.679  17.715  0.00  0.00    +0.000 OA
ATOM     12  C   UNL     1      48.563   2.888  16.891  0.00  0.00    +0.000 C 
ATOM     13  C   UNL     1      47.281   3.655  16.526  0.00  0.00    +0.000 C 
ENDBRANCH   6   8
ENDBRANCH   1   2
BRANCH   1  14
ATOM     14  O   UNL     1      44.395   4.609  10.676  0.00  0.00    +0.000 OA
BRANCH  14  18
ATOM     15  C   UNL     1      46.333   2.750   7.557  0.00  0.00    +0.000 A 
ATOM     16  C   UNL     1      45.731   1.975   8.551  0.00  0.00    +0.000 A 
ATOM     17  C   UNL     1      45.079   2.613   9.608  0.00  0.00    +0.000 A 
ATOM     18  C   UNL     1      45.051   4.001   9.625  0.00  0.00    +0.000 A 
ATOM     19  N   UNL     1      45.628   4.771   8.680  0.00  0.00    +0.000 NA
ATOM     20  C   UNL     1      46.267   4.129   7.674  0.00  0.00    +0.000 A 
BRANCH  15  22
ATOM     21  N   UNL     1      47.196   2.980   5.299  0.00  0.00    +0.000 N 
ATOM     22  C   UNL     1      47.052   2.183   6.400  0.00  0.00    +0.000 C 
ATOM     23  O   UNL     1      47.540   1.063   6.440  0.00  0.00    +0.000 OA
ATOM     24  H   UNL     1      47.791   2.618   4.564  0.00  0.00    +0.000 HD
ATOM     25  H   UNL     1      47.046   3.978   5.328  0.00  0.00    +0.000 HD
ENDBRANCH  15  22
ENDBRANCH  14  18
ENDBRANCH   1  14
TORSDOF 5
ENDMDL
MODEL 4
REMARK VINA RESULT:    -6.850      3.869      8.156
REMARK INTER + INTRA:          -9.515
REMARK INTER:                  -9.020
REMARK INTRA:                  -0.495
REMARK UNBOUND:                -0.663
REMARK  Name = 
REMARK  5 active torsions:
REMARK  status: ('A' for Active; 'I' for Inactive)
REMARK    1  A    between atoms: C_2  and  C_4
REMARK    2  A    between atoms: C_7  and  O_8
REMARK    3  A    between atoms: O_8  and  C_9
REMARK    4  A    between atoms: C_9  and  C_10
REMARK    5  A    between atoms: C_14  and  N_15
REMARK                            x       y       z     vdW  Elec       q    Type
REMARK                         _______ _______ _______ _____ _____    ______ ____
ROOT
ATOM      1  C   UNL     1      46.734   4.477  13.815  0.00  0.00    +0.000 C 
ENDROOT
BRANCH   1   2
ATOM      2  C   UNL     1      45.575   4.350  12.861  0.00  0.00    +0.000 A 
ATOM      3  C   UNL     1      44.314   4.784  13.262  0.00  0.00    +0.000 A 
ATOM      4  N   UNL     1      43.216   4.724  12.486  0.00  0.00    +0.000 NA
ATOM      5  C   UNL     1      43.389   4.206  11.246  0.00  0.00    +0.000 A 
ATOM      6  C   UNL     1      44.595   3.741  10.709  0.00  0.00    +0.000 A 
ATOM      7  C   UNL     1      45.694   3.821  11.570  0.00  0.00    +0.000 A 
BRANCH   6   8
ATOM      8  N   UNL     1      44.693   3.253   9.427  0.00  0.00    +0.000 N 
ATOM      9  C   UNL     1      44.772   1.823   9.098  0.00  0.00    +0.000 C 
ATOM     10  C   UNL     1      46.057   1.522   8.312  0.00  0.00    +0.000 C 
ATOM     11  O   UNL     1      46.201   2.382   7.167  0.00  0.00    +0.000 OA
ATOM     12  C   UNL     1      46.233   3.757   7.582  0.00  0.00    +0.000 C 
ATOM     13  C   UNL     1      44.933   4.162   8.296  0.00  0.00    +0.000 C 
ENDBRANCH   6   8
ENDBRANCH   1   2
BRANCH   1  14
ATOM     14  O   UNL     1      46.949   3.273  14.563  0.00  0.00    +0.000 OA
BRANCH  14  18
ATOM     15  C   UNL     1      48.667   3.991  18.233  0.00  0.00    +0.000 A 
ATOM     16  C   UNL     1      49.044   2.858  17.509  0.00  0.00    +0.000 A 
ATOM     17  C   UNL     1      48.453   2.619  16.266  0.00  0.00    +0.000 A 
ATOM     18  C   UNL     1      47.514   3.526  15.796  0.00  0.00    +0.000 A 
ATOM     19  N   UNL     1      47.130   4.625  16.479  0.00  0.00    +0.000 NA
ATOM     20  C   UNL     1      47.705   4.826  17.688  0.00  0.00    +0.000 A 
BRANCH  15  22
ATOM     21  N   UNL     1      48.510   3.943  20.656  0.00  0.00    +0.000 N 
ATOM     22  C   UNL     1      49.220   4.338  19.557  0.00  0.00    +0.000 C 
ATOM     23  O   UNL     1      50.291   4.916  19.668  0.00  0.00    +0.000 OA
ATOM     24  H   UNL     1      48.962   4.085  21.551  0.00  0.00    +0.000 HD
ATOM     25  H   UNL     1      47.780   3.247  20.609  0.00  0.00    +0.000 HD
ENDBRANCH  15  22
ENDBRANCH  14  18
ENDBRANCH   1  14
TORSDOF 5
ENDMDL
MODEL 5
REMARK VINA RESULT:    -6.774      4.498      7.882
REMARK INTER + INTRA:          -9.417
REMARK INTER:                  -8.730
REMARK INTRA:                  -0.687
REMARK UNBOUND:                -0.663
REMARK  Name = 
REMARK  5 active torsions:
REMARK  status: ('A' for Active; 'I' for Inactive)
REMARK    1  A    between atoms: C_2  and  C_4
REMARK    2  A    between atoms: C_7  and  O_8
REMARK    3  A    between atoms: O_8  and  C_9
REMARK    4  A    between atoms: C_9  and  C_10
REMARK    5  A    between atoms: C_14  and  N_15
REMARK                            x       y       z     vdW  Elec       q    Type
REMARK                         _______ _______ _______ _____ _____    ______ ____
ROOT
ATOM      1  C   UNL     1      48.679   6.371  15.710  0.00  0.00    +0.000 C 
ENDROOT
BRANCH   1   2
ATOM      2  C   UNL     1      47.949   6.282  14.395  0.00  0.00    +0.000 A 
ATOM      3  C   UNL     1      48.398   7.038  13.316  0.00  0.00    +0.000 A 
ATOM      4  N   UNL     1      47.825   7.025  12.097  0.00  0.00    +0.000 NA
ATOM      5  C   UNL     1      46.750   6.215  11.952  0.00  0.00    +0.000 A 
ATOM      6  C   UNL     1      46.196   5.397  12.944  0.00  0.00    +0.000 A 
ATOM      7  C   UNL     1      46.831   5.464  14.187  0.00  0.00    +0.000 A 
BRANCH   6   8
ATOM      8  N   UNL     1      45.115   4.578  12.708  0.00  0.00    +0.000 N 
ATOM      9  C   UNL     1      45.215   3.247  12.094  0.00  0.00    +0.000 C 
ATOM     10  C   UNL     1      44.360   3.177  10.820  0.00  0.00    +0.000 C 
ATOM     11  O   UNL     1      43.006   3.598  11.057  0.00  0.00    +0.000 OA
ATOM     12  C   UNL     1      42.985   4.950  11.544  0.00  0.00    +0.000 C 
ATOM     13  C   UNL     1      43.744   5.081  12.875  0.00  0.00    +0.000 C 
ENDBRANCH   6   8
ENDBRANCH   1   2
BRANCH   1  14
ATOM     14  O   UNL     1      48.196   5.410  16.658  0.00  0.00    +0.000 OA
BRANCH  14  18
ATOM     15  C   UNL     1      50.934   2.421  17.376  0.00  0.00    +0.000 A 
ATOM     16  C   UNL     1      49.633   2.083  16.994  0.00  0.00    +0.000 A 
ATOM     17  C   UNL     1      48.709   3.104  16.757  0.00  0.00    +0.000 A 
ATOM     18  C   UNL     1      49.125   4.419  16.905  0.00  0.00    +0.000 A 
ATOM     19  N   UNL     1      50.374   4.770  17.276  0.00  0.00    +0.000 NA
ATOM     20  C   UNL     1      51.247   3.764  17.516  0.00  0.00    +0.000 A 
BRANCH  15  22
ATOM     21  N   UNL     1      51.591   0.214  18.145  0.00  0.00    +0.000 N 
ATOM     22  C   UNL     1      51.988   1.428  17.658  0.00  0.00    +0.000 C 
ATOM     23  O   UNL     1      53.165   1.664  17.425  0.00  0.00    +0.000 OA
ATOM     24  H   UNL     1      52.314  -0.491  18.220  0.00  0.00    +0.000 HD
ATOM     25  H   UNL     1      50.634  -0.104  18.096  0.00  0.00    +0.000 HD
ENDBRANCH  15  22
ENDBRANCH  14  18
ENDBRANCH   1  14
TORSDOF 5
ENDMDL
MODEL 6
REMARK VINA RESULT:    -6.219      3.855      8.180
REMARK INTER + INTRA:          -8.699
REMARK INTER:                  -8.047
REMARK INTRA:                  -0.652
REMARK UNBOUND:                -0.663
REMARK  Name = 
REMARK  5 active torsions:
REMARK  status: ('A' for Active; 'I' for Inactive)
REMARK    1  A    between atoms: C_2  and  C_4
REMARK    2  A    between atoms: C_7  and  O_8
REMARK    3  A    between atoms: O_8  and  C_9
REMARK    4  A    between atoms: C_9  and  C_10
REMARK    5  A    between atoms: C_14  and  N_15
REMARK                            x       y       z     vdW  Elec       q    Type
REMARK                         _______ _______ _______ _____ _____    ______ ____
ROOT
ATOM      1  C   UNL     1      47.905   6.836  13.865  0.00  0.00    +0.000 C 
ENDROOT
BRANCH   1   2
ATOM      2  C   UNL     1      46.685   7.032  13.002  0.00  0.00    +0.000 A 
ATOM      3  C   UNL     1      46.246   8.324  12.729  0.00  0.00    +0.000 A 
ATOM      4  N   UNL     1      45.175   8.610  11.965  0.00  0.00    +0.000 NA
ATOM      5  C   UNL     1      44.512   7.548  11.446  0.00  0.00    +0.000 A 
ATOM      6  C   UNL     1      44.844   6.201  11.629  0.00  0.00    +0.000 A 
ATOM      7  C   UNL     1      45.959   5.973  12.441  0.00  0.00    +0.000 A 
BRANCH   6   8
ATOM      8  N   UNL     1      44.134   5.178  11.043  0.00  0.00    +0.000 N 
ATOM      9  C   UNL     1      43.017   4.480  11.693  0.00  0.00    +0.000 C 
ATOM     10  C   UNL     1      43.304   2.973  11.785  0.00  0.00    +0.000 C 
ATOM     11  O   UNL     1      43.664   2.416  10.508  0.00  0.00    +0.000 OA
ATOM     12  C   UNL     1      44.834   3.072   9.993  0.00  0.00    +0.000 C 
ATOM     13  C   UNL     1      44.591   4.576   9.783  0.00  0.00    +0.000 C 
ENDBRANCH   6   8
ENDBRANCH   1   2
BRANCH   1  14
ATOM     14  O   UNL     1      48.036   5.479  14.308  0.00  0.00    +0.000 OA
BRANCH  14  18
ATOM     15  C   UNL     1      48.066   5.158  18.411  0.00  0.00    +0.000 A 
ATOM     16  C   UNL     1      47.358   4.222  17.655  0.00  0.00    +0.000 A 
ATOM     17  C   UNL     1      47.349   4.340  16.263  0.00  0.00    +0.000 A 
ATOM     18  C   UNL     1      48.054   5.386  15.685  0.00  0.00    +0.000 A 
ATOM     19  N   UNL     1      48.742   6.305  16.394  0.00  0.00    +0.000 NA
ATOM     20  C   UNL     1      48.722   6.178  17.742  0.00  0.00    +0.000 A 
BRANCH  15  22
ATOM     21  N   UNL     1      47.091   5.678  20.573  0.00  0.00    +0.000 N 
ATOM     22  C   UNL     1      48.139   5.134  19.885  0.00  0.00    +0.000 C 
ATOM     23  O   UNL     1      49.076   4.608  20.468  0.00  0.00    +0.000 OA
ATOM     24  H   UNL     1      47.104   5.547  21.577  0.00  0.00    +0.000 HD
ATOM     25  H   UNL     1      46.200   5.873  20.140  0.00  0.00    +0.000 HD
ENDBRANCH  15  22
ENDBRANCH  14  18
ENDBRANCH   1  14
TORSDOF 5
ENDMDL
MODEL 7
REMARK VINA RESULT:    -6.083      3.510      5.808
REMARK INTER + INTRA:          -8.524
REMARK INTER:                  -7.865
REMARK INTRA:                  -0.658
REMARK UNBOUND:                -0.663
REMARK  Name = 
REMARK  5 active torsions:
REMARK  status: ('A' for Active; 'I' for Inactive)
REMARK    1  A    between atoms: C_2  and  C_4
REMARK    2  A    between atoms: C_7  and  O_8
REMARK    3  A    between atoms: O_8  and  C_9
REMARK    4  A    between atoms: C_9  and  C_10
REMARK    5  A    between atoms: C_14  and  N_15
REMARK                            x       y       z     vdW  Elec       q    Type
REMARK                         _______ _______ _______ _____ _____    ______ ____
ROOT
ATOM      1  C   UNL     1      48.016   7.454  12.631  0.00  0.00    +0.000 C 
ENDROOT
BRANCH   1   2
ATOM      2  C   UNL     1      48.860   7.250  13.863  0.00  0.00    +0.000 A 
ATOM      3  C   UNL     1      50.041   7.973  14.005  0.00  0.00    +0.000 A 
ATOM      4  N   UNL     1      50.862   7.873  15.068  0.00  0.00    +0.000 NA
ATOM      5  C   UNL     1      50.479   7.007  16.037  0.00  0.00    +0.000 A 
ATOM      6  C   UNL     1      49.319   6.224  16.031  0.00  0.00    +0.000 A 
ATOM      7  C   UNL     1      48.516   6.368  14.895  0.00  0.00    +0.000 A 
BRANCH   6   8
ATOM      8  N   UNL     1      48.987   5.387  17.071  0.00  0.00    +0.000 N 
ATOM      9  C   UNL     1      49.960   4.566  17.804  0.00  0.00    +0.000 C 
ATOM     10  C   UNL     1      49.582   3.079  17.719  0.00  0.00    +0.000 C 
ATOM     11  O   UNL     1      48.220   2.848  18.119  0.00  0.00    +0.000 OA
ATOM     12  C   UNL     1      47.323   3.593  17.280  0.00  0.00    +0.000 C 
ATOM     13  C   UNL     1      47.579   5.106  17.386  0.00  0.00    +0.000 C 
ENDBRANCH   6   8
ENDBRANCH   1   2
BRANCH   1  14
ATOM     14  O   UNL     1      46.615   7.453  12.934  0.00  0.00    +0.000 OA
BRANCH  14  18
ATOM     15  C   UNL     1      44.721   4.173  11.325  0.00  0.00    +0.000 A 
ATOM     16  C   UNL     1      45.222   5.162  10.475  0.00  0.00    +0.000 A 
ATOM     17  C   UNL     1      45.859   6.274  11.029  0.00  0.00    +0.000 A 
ATOM     18  C   UNL     1      45.975   6.349  12.410  0.00  0.00    +0.000 A 
ATOM     19  N   UNL     1      45.497   5.409  13.251  0.00  0.00    +0.000 NA
ATOM     20  C   UNL     1      44.869   4.348  12.691  0.00  0.00    +0.000 A 
BRANCH  15  22
ATOM     21  N   UNL     1      44.645   2.221   9.883  0.00  0.00    +0.000 N 
ATOM     22  C   UNL     1      44.026   2.961  10.850  0.00  0.00    +0.000 C 
ATOM     23  O   UNL     1      42.960   2.608  11.334  0.00  0.00    +0.000 OA
ATOM     24  H   UNL     1      44.211   1.335   9.656  0.00  0.00    +0.000 HD
ATOM     25  H   UNL     1      45.624   2.331   9.659  0.00  0.00    +0.000 HD
ENDBRANCH  15  22
ENDBRANCH  14  18
ENDBRANCH   1  14
TORSDOF 5
ENDMDL
MODEL 8
REMARK VINA RESULT:    -5.961      4.327      7.988
REMARK INTER + INTRA:          -8.366
REMARK INTER:                  -7.827
REMARK INTRA:                  -0.539
REMARK UNBOUND:                -0.663
REMARK  Name = 
REMARK  5 active torsions:
REMARK  status: ('A' for Active; 'I' for Inactive)
REMARK    1  A    between atoms: C_2  and  C_4
REMARK    2  A    between atoms: C_7  and  O_8
REMARK    3  A    between atoms: O_8  and  C_9
REMARK    4  A    between atoms: C_9  and  C_10
REMARK    5  A    between atoms: C_14  and  N_15
REMARK                            x       y       z     vdW  Elec       q    Type
REMARK                         _______ _______ _______ _____ _____    ______ ____
ROOT
ATOM      1  C   UNL     1      47.112   3.757  14.770  0.00  0.00    +0.000 C 
ENDROOT
BRANCH   1   2
ATOM      2  C   UNL     1      46.654   4.654  13.649  0.00  0.00    +0.000 A 
ATOM      3  C   UNL     1      46.909   6.020  13.725  0.00  0.00    +0.000 A 
ATOM      4  N   UNL     1      46.551   6.906  12.776  0.00  0.00    +0.000 NA
ATOM      5  C   UNL     1      45.908   6.398  11.697  0.00  0.00    +0.000 A 
ATOM      6  C   UNL     1      45.595   5.051  11.485  0.00  0.00    +0.000 A 
ATOM      7  C   UNL     1      45.984   4.185  12.511  0.00  0.00    +0.000 A 
BRANCH   6   8
ATOM      8  N   UNL     1      44.962   4.610  10.345  0.00  0.00    +0.000 N 
ATOM      9  C   UNL     1      43.934   3.561  10.333  0.00  0.00    +0.000 C 
ATOM     10  C   UNL     1      44.359   2.400   9.421  0.00  0.00    +0.000 C 
ATOM     11  O   UNL     1      44.727   2.857   8.108  0.00  0.00    +0.000 OA
ATOM     12  C   UNL     1      45.817   3.789   8.194  0.00  0.00    +0.000 C 
ATOM     13  C   UNL     1      45.433   5.030   9.018  0.00  0.00    +0.000 C 
ENDBRANCH   6   8
ENDBRANCH   1   2
BRANCH   1  14
ATOM     14  O   UNL     1      47.293   4.479  15.995  0.00  0.00    +0.000 OA
BRANCH  14  18
ATOM     15  C   UNL     1      50.870   3.526  17.793  0.00  0.00    +0.000 A 
ATOM     16  C   UNL     1      49.901   2.534  17.625  0.00  0.00    +0.000 A 
ATOM     17  C   UNL     1      48.688   2.867  17.018  0.00  0.00    +0.000 A 
ATOM     18  C   UNL     1      48.497   4.176  16.598  0.00  0.00    +0.000 A 
ATOM     19  N   UNL     1      49.416   5.151  16.753  0.00  0.00    +0.000 NA
ATOM     20  C   UNL     1      50.577   4.808  17.358  0.00  0.00    +0.000 A 
BRANCH  15  22
ATOM     21  N   UNL     1      52.619   1.996  18.500  0.00  0.00    +0.000 N 
ATOM     22  C   UNL     1      52.183   3.289  18.426  0.00  0.00    +0.000 C 
ATOM     23  O   UNL     1      52.872   4.215  18.828  0.00  0.00    +0.000 OA
ATOM     24  H   UNL     1      53.568   1.866  18.829  0.00  0.00    +0.000 HD
ATOM     25  H   UNL     1      52.210   1.253  17.952  0.00  0.00    +0.000 HD
ENDBRANCH  15  22
ENDBRANCH  14  18
ENDBRANCH   1  14
TORSDOF 5
ENDMDL
