MODEL 1
REMARK VINA RESULT:    -7.560      0.000      0.000
REMARK INTER + INTRA:         -11.218
REMARK INTER:                 -10.211
REMARK INTRA:                  -1.007
REMARK UNBOUND:                -1.007
REMARK  Name = 
REMARK  7 active torsions:
REMARK  status: ('A' for Active; 'I' for Inactive)
REMARK    1  A    between atoms: C_1  and  C_2
REMARK    2  A    between atoms: C_2  and  N_3
REMARK    3  A    between atoms: C_2  and  C_16
REMARK    4  A    between atoms: C_4  and  C_6
REMARK    5  A    between atoms: C_19  and  C_20
REMARK    6  A    between atoms: C_20  and  N_21
REMARK    7  A    between atoms: C_22  and  C_24
REMARK                            x       y       z     vdW  Elec       q    Type
REMARK                         _______ _______ _______ _____ _____    ______ ____
ROOT
ATOM      1  C   UNL     1      48.537   8.166  14.027  0.00  0.00    +0.000 C 
ATOM      2  C   UNL     1      48.021   6.966  14.828  0.00  0.00    +0.000 C 
ENDROOT
BRANCH   2   3
ATOM      3  C   UNL     1      47.184   5.990  14.013  0.00  0.00    +0.000 A 
ATOM      4  C   UNL     1      46.288   6.489  13.052  0.00  0.00    +0.000 A 
ATOM      5  C   UNL     1      45.479   5.625  12.303  0.00  0.00    +0.000 A 
ATOM      6  C   UNL     1      45.534   4.241  12.510  0.00  0.00    +0.000 A 
ATOM      7  C   UNL     1      46.426   3.740  13.464  0.00  0.00    +0.000 A 
ATOM      8  C   UNL     1      47.229   4.603  14.216  0.00  0.00    +0.000 A 
BRANCH   6   9
ATOM      9  C   UNL     1      44.643   3.308  11.736  0.00  0.00    +0.000 C 
BRANCH   9  10
ATOM     10  N   UNL     1      45.320   2.686  10.631  0.00  0.00    +0.000 N 
ATOM     11  C   UNL     1      45.110   3.120   9.332  0.00  0.00    +0.000 C 
ATOM     12  O   UNL     1      44.326   4.036   9.086  0.00  0.00    +0.000 OA
ATOM     13  H   UNL     1      45.989   1.936  10.777  0.00  0.00    +0.000 HD
BRANCH  11  14
ATOM     14  C   UNL     1      45.894   2.402   8.332  0.00  0.00    +0.000 A 
ATOM     15  N   UNL     1      46.129   1.101   8.387  0.00  0.00    +0.000 NA
ATOM     16  C   UNL     1      46.905   0.732   7.302  0.00  0.00    +0.000 A 
ATOM     17  C   UNL     1      47.254   1.752   6.440  0.00  0.00    +0.000 A 
ATOM     18  S   UNL     1      46.586   3.228   6.995  0.00  0.00    +0.000 S 
ENDBRANCH  11  14
ENDBRANCH   9  10
ENDBRANCH   6   9
ENDBRANCH   2   3
BRANCH   2  19
ATOM     19  N   UNL     1      49.130   6.250  15.430  0.00  0.00    +0.000 N 
ATOM     20  C   UNL     1      49.175   5.926  16.761  0.00  0.00    +0.000 C 
ATOM     21  O   UNL     1      48.247   6.163  17.530  0.00  0.00    +0.000 OA
ATOM     22  H   UNL     1      49.982   6.212  14.884  0.00  0.00    +0.000 HD
BRANCH  20  23
ATOM     23  C   UNL     1      50.374   5.207  17.206  0.00  0.00    +0.000 A 
ATOM     24  C   UNL     1      51.491   5.916  17.631  0.00  0.00    +0.000 A 
ATOM     25  S   UNL     1      52.763   4.919  18.179  0.00  0.00    +0.000 S 
ATOM     26  C   UNL     1      51.887   3.505  17.812  0.00  0.00    +0.000 A 
ATOM     27  N   UNL     1      52.421   2.273  18.030  0.00  0.00    +0.000 NA
ATOM     28  C   UNL     1      51.663   1.293  17.667  0.00  0.00    +0.000 A 
ATOM     29  N   UNL     1      50.420   1.431  17.107  0.00  0.00    +0.000 N 
ATOM     30  C   UNL     1      49.824   2.654  16.905  0.00  0.00    +0.000 A 
ATOM     31  O   UNL     1      48.685   2.743  16.458  0.00  0.00    +0.000 OA
ATOM     32  C   UNL     1      50.639   3.791  17.288  0.00  0.00    +0.000 A 
ATOM     33  H   UNL     1      49.875   0.622  16.851  0.00  0.00    +0.000 HD
ENDBRANCH  20  23
ENDBRANCH   2  19
TORSDOF 6
ENDMDL
MODEL 2
REMARK VINA RESULT:    -7.551      1.500      2.003
REMARK INTER + INTRA:         -11.207
REMARK INTER:                  -9.972
REMARK INTRA:                  -1.235
REMARK UNBOUND:                -1.007
REMARK  Name = 
REMARK  7 active torsions:
REMARK  status: ('A' for Active; 'I' for Inactive)
REMARK    1  A    between atoms: C_1  and  C_2
REMARK    2  A    between atoms: C_2  and  N_3
REMARK    3  A    between atoms: C_2  and  C_16
REMARK    4  A    between atoms: C_4  and  C_6
REMARK    5  A    between atoms: C_19  and  C_20
REMARK    6  A    between atoms: C_20  and  N_21
REMARK    7  A    between atoms: C_22  and  C_24
REMARK                            x       y       z     vdW  Elec       q    Type
REMARK                         _______ _______ _______ _____ _____    ______ ____
ROOT
ATOM      1  C   UNL     1      48.354   9.423  13.336  0.00  0.00    +0.000 C 
ATOM      2  C   UNL     1      47.524   8.339  14.033  0.00  0.00    +0.000 C 
ENDROOT
BRANCH   2   3
ATOM      3  C   UNL     1      46.616   7.556  13.097  0.00  0.00    +0.000 A 
ATOM      4  C   UNL     1      46.850   6.184  12.900  0.00  0.00    +0.000 A 
ATOM      5  C   UNL     1      46.054   5.435  12.024  0.00  0.00    +0.000 A 
ATOM      6  C   UNL     1      45.015   6.044  11.309  0.00  0.00    +0.000 A 
ATOM      7  C   UNL     1      44.777   7.409  11.503  0.00  0.00    +0.000 A 
ATOM      8  C   UNL     1      45.576   8.158  12.373  0.00  0.00    +0.000 A 
BRANCH   6   9
ATOM      9  C   UNL     1      44.179   5.256  10.339  0.00  0.00    +0.000 C 
BRANCH   9  10
ATOM     10  N   UNL     1      44.972   4.453   9.449  0.00  0.00    +0.000 N 
ATOM     11  C   UNL     1      44.799   3.080   9.382  0.00  0.00    +0.000 C 
ATOM     12  O   UNL     1      43.975   2.508  10.095  0.00  0.00    +0.000 OA
ATOM     13  H   UNL     1      45.657   4.875   8.827  0.00  0.00    +0.000 HD
BRANCH  11  14
ATOM     14  C   UNL     1      45.663   2.419   8.409  0.00  0.00    +0.000 A 
ATOM     15  N   UNL     1      45.960   1.131   8.454  0.00  0.00    +0.000 NA
ATOM     16  C   UNL     1      46.801   0.820   7.401  0.00  0.00    +0.000 A 
ATOM     17  C   UNL     1      47.138   1.871   6.572  0.00  0.00    +0.000 A 
ATOM     18  S   UNL     1      46.372   3.302   7.117  0.00  0.00    +0.000 S 
ENDBRANCH  11  14
ENDBRANCH   9  10
ENDBRANCH   6   9
ENDBRANCH   2   3
BRANCH   2  19
ATOM     19  N   UNL     1      48.396   7.413  14.733  0.00  0.00    +0.000 N 
ATOM     20  C   UNL     1      48.767   7.581  16.041  0.00  0.00    +0.000 C 
ATOM     21  O   UNL     1      48.336   8.495  16.738  0.00  0.00    +0.000 OA
ATOM     22  H   UNL     1      48.917   6.769  14.150  0.00  0.00    +0.000 HD
BRANCH  20  23
ATOM     23  C   UNL     1      49.659   6.554  16.591  0.00  0.00    +0.000 A 
ATOM     24  C   UNL     1      50.960   6.883  16.949  0.00  0.00    +0.000 A 
ATOM     25  S   UNL     1      51.828   5.584  17.636  0.00  0.00    +0.000 S 
ATOM     26  C   UNL     1      50.514   4.522  17.423  0.00  0.00    +0.000 A 
ATOM     27  N   UNL     1      50.600   3.217  17.797  0.00  0.00    +0.000 NA
ATOM     28  C   UNL     1      49.546   2.518  17.538  0.00  0.00    +0.000 A 
ATOM     29  N   UNL     1      48.412   3.006  16.943  0.00  0.00    +0.000 N 
ATOM     30  C   UNL     1      48.264   4.325  16.586  0.00  0.00    +0.000 A 
ATOM     31  O   UNL     1      47.214   4.744  16.109  0.00  0.00    +0.000 OA
ATOM     32  C   UNL     1      49.427   5.152  16.846  0.00  0.00    +0.000 A 
ATOM     33  H   UNL     1      47.618   2.407  16.775  0.00  0.00    +0.000 HD
ENDBRANCH  20  23
ENDBRANCH   2  19
TORSDOF 6
ENDMDL
MODEL 3
REMARK VINA RESULT:    -7.368      2.228      2.927
REMARK INTER + INTRA:         -10.960
REMARK INTER:                  -9.949
REMARK INTRA:                  -1.010
REMARK UNBOUND:                -1.007
REMARK  Name = 
REMARK  7 active torsions:
REMARK  status: ('A' for Active; 'I' for Inactive)
REMARK    1  A    between atoms: C_1  and  C_2
REMARK    2  A    between atoms: C_2  and  N_3
REMARK    3  A    between atoms: C_2  and  C_16
REMARK    4  A    between atoms: C_4  and  C_6
REMARK    5  A    between atoms: C_19  and  C_20
REMARK    6  A    between atoms: C_20  and  N_21
REMARK    7  A    between atoms: C_22  and  C_24
REMARK                            x       y       z     vdW  Elec       q    Type
REMARK                         _______ _______ _______ _____ _____    ______ ____
ROOT
ATOM      1  C   UNL     1      49.381   7.821  13.112  0.00  0.00    +0.000 C 
ATOM      2  C   UNL     1      47.981   7.819  13.733  0.00  0.00    +0.000 C 
ENDROOT
BRANCH   2   3
ATOM      3  C   UNL     1      47.040   6.781  13.138  0.00  0.00    +0.000 A 
ATOM      4  C   UNL     1      46.901   5.535  13.773  0.00  0.00    +0.000 A 
ATOM      5  C   UNL     1      46.069   4.542  13.240  0.00  0.00    +0.000 A 
ATOM      6  C   UNL     1      45.368   4.765  12.048  0.00  0.00    +0.000 A 
ATOM      7  C   UNL     1      45.502   6.005  11.414  0.00  0.00    +0.000 A 
ATOM      8  C   UNL     1      46.339   6.993  11.942  0.00  0.00    +0.000 A 
BRANCH   6   9
ATOM      9  C   UNL     1      44.500   3.693  11.449  0.00  0.00    +0.000 C 
BRANCH   9  10
ATOM     10  N   UNL     1      45.194   2.902  10.470  0.00  0.00    +0.000 N 
ATOM     11  C   UNL     1      45.075   3.178   9.118  0.00  0.00    +0.000 C 
ATOM     12  O   UNL     1      44.359   4.095   8.716  0.00  0.00    +0.000 OA
ATOM     13  H   UNL     1      45.810   2.143  10.746  0.00  0.00    +0.000 HD
BRANCH  11  14
ATOM     14  C   UNL     1      45.865   2.300   8.261  0.00  0.00    +0.000 A 
ATOM     15  N   UNL     1      45.971   0.995   8.454  0.00  0.00    +0.000 NA
ATOM     16  C   UNL     1      46.791   0.455   7.480  0.00  0.00    +0.000 A 
ATOM     17  C   UNL     1      47.303   1.351   6.563  0.00  0.00    +0.000 A 
ATOM     18  S   UNL     1      46.736   2.927   6.920  0.00  0.00    +0.000 S 
ENDBRANCH  11  14
ENDBRANCH   9  10
ENDBRANCH   6   9
ENDBRANCH   2   3
BRANCH   2  19
ATOM     19  N   UNL     1      48.068   7.612  15.167  0.00  0.00    +0.000 N 
ATOM     20  C   UNL     1      48.487   8.585  16.037  0.00  0.00    +0.000 C 
ATOM     21  O   UNL     1      48.757   9.726  15.672  0.00  0.00    +0.000 OA
ATOM     22  H   UNL     1      48.043   6.649  15.478  0.00  0.00    +0.000 HD
BRANCH  20  23
ATOM     23  C   UNL     1      48.522   8.204  17.454  0.00  0.00    +0.000 A 
ATOM     24  C   UNL     1      48.031   9.074  18.419  0.00  0.00    +0.000 A 
ATOM     25  S   UNL     1      48.087   8.437  20.001  0.00  0.00    +0.000 S 
ATOM     26  C   UNL     1      48.823   7.002  19.458  0.00  0.00    +0.000 A 
ATOM     27  N   UNL     1      49.161   6.014  20.329  0.00  0.00    +0.000 NA
ATOM     28  C   UNL     1      49.750   5.002  19.785  0.00  0.00    +0.000 A 
ATOM     29  N   UNL     1      50.030   4.886  18.448  0.00  0.00    +0.000 N 
ATOM     30  C   UNL     1      49.672   5.841  17.525  0.00  0.00    +0.000 A 
ATOM     31  O   UNL     1      49.883   5.681  16.327  0.00  0.00    +0.000 OA
ATOM     32  C   UNL     1      49.015   7.005  18.088  0.00  0.00    +0.000 A 
ATOM     33  H   UNL     1      50.487   4.064  18.085  0.00  0.00    +0.000 HD
ENDBRANCH  20  23
ENDBRANCH   2  19
TORSDOF 6
ENDMDL
MODEL 4
REMARK VINA RESULT:    -7.254      3.027      4.554
REMARK INTER + INTRA:         -10.805
REMARK INTER:                  -9.621
REMARK INTRA:                  -1.184
REMARK UNBOUND:                -1.007
REMARK  Name = 
REMARK  7 active torsions:
REMARK  status: ('A' for Active; 'I' for Inactive)
REMARK    1  A    between atoms: C_1  and  C_2
REMARK    2  A    between atoms: C_2  and  N_3
REMARK    3  A    between atoms: C_2  and  C_16
REMARK    4  A    between atoms: C_4  and  C_6
REMARK    5  A    between atoms: C_19  and  C_20
REMARK    6  A    between atoms: C_20  and  N_21
REMARK    7  A    between atoms: C_22  and  C_24
REMARK                            x       y       z     vdW  Elec       q    Type
REMARK                         _______ _______ _______ _____ _____    ______ ____
ROOT
ATOM      1  C   UNL     1      47.259   4.020  16.432  0.00  0.00    +0.000 C 
ATOM      2  C   UNL     1      47.733   4.879  15.255  0.00  0.00    +0.000 C 
ENDROOT
BRANCH   2   3
ATOM      3  C   UNL     1      46.848   4.783  14.021  0.00  0.00    +0.000 A 
ATOM      4  C   UNL     1      46.437   3.518  13.566  0.00  0.00    +0.000 A 
ATOM      5  C   UNL     1      45.647   3.386  12.417  0.00  0.00    +0.000 A 
ATOM      6  C   UNL     1      45.263   4.516  11.684  0.00  0.00    +0.000 A 
ATOM      7  C   UNL     1      45.668   5.777  12.134  0.00  0.00    +0.000 A 
ATOM      8  C   UNL     1      46.463   5.908  13.278  0.00  0.00    +0.000 A 
BRANCH   6   9
ATOM      9  C   UNL     1      44.445   4.381  10.429  0.00  0.00    +0.000 C 
BRANCH   9  10
ATOM     10  N   UNL     1      45.248   4.094   9.273  0.00  0.00    +0.000 N 
ATOM     11  C   UNL     1      45.293   2.818   8.736  0.00  0.00    +0.000 C 
ATOM     12  O   UNL     1      44.662   1.891   9.244  0.00  0.00    +0.000 OA
ATOM     13  H   UNL     1      45.778   4.824   8.804  0.00  0.00    +0.000 HD
BRANCH  11  14
ATOM     14  C   UNL     1      46.133   2.702   7.548  0.00  0.00    +0.000 A 
ATOM     15  N   UNL     1      46.166   3.611   6.587  0.00  0.00    +0.000 NA
ATOM     16  C   UNL     1      47.051   3.205   5.605  0.00  0.00    +0.000 A 
ATOM     17  C   UNL     1      47.677   1.994   5.826  0.00  0.00    +0.000 A 
ATOM     18  S   UNL     1      47.150   1.337   7.317  0.00  0.00    +0.000 S 
ENDBRANCH  11  14
ENDBRANCH   9  10
ENDBRANCH   6   9
ENDBRANCH   2   3
BRANCH   2  19
ATOM     19  N   UNL     1      47.835   6.270  15.657  0.00  0.00    +0.000 N 
ATOM     20  C   UNL     1      49.028   6.873  15.961  0.00  0.00    +0.000 C 
ATOM     21  O   UNL     1      50.107   6.297  15.851  0.00  0.00    +0.000 OA
ATOM     22  H   UNL     1      46.971   6.713  15.943  0.00  0.00    +0.000 HD
BRANCH  20  23
ATOM     23  C   UNL     1      48.950   8.284  16.356  0.00  0.00    +0.000 A 
ATOM     24  C   UNL     1      49.534   9.261  15.561  0.00  0.00    +0.000 A 
ATOM     25  S   UNL     1      49.282  10.848  16.137  0.00  0.00    +0.000 S 
ATOM     26  C   UNL     1      48.434  10.279  17.499  0.00  0.00    +0.000 A 
ATOM     27  N   UNL     1      47.943  11.141  18.430  0.00  0.00    +0.000 NA
ATOM     28  C   UNL     1      47.360  10.569  19.430  0.00  0.00    +0.000 A 
ATOM     29  N   UNL     1      47.220   9.214  19.583  0.00  0.00    +0.000 N 
ATOM     30  C   UNL     1      47.664   8.307  18.649  0.00  0.00    +0.000 A 
ATOM     31  O   UNL     1      47.469   7.104  18.786  0.00  0.00    +0.000 OA
ATOM     32  C   UNL     1      48.336   8.899  17.509  0.00  0.00    +0.000 A 
ATOM     33  H   UNL     1      46.746   8.831  20.387  0.00  0.00    +0.000 HD
ENDBRANCH  20  23
ENDBRANCH   2  19
TORSDOF 6
ENDMDL
MODEL 5
REMARK VINA RESULT:    -7.195      4.788      5.433
REMARK INTER + INTRA:         -10.726
REMARK INTER:                  -9.626
REMARK INTRA:                  -1.100
REMARK UNBOUND:                -1.007
REMARK  Name = 
REMARK  7 active torsions:
REMARK  status: ('A' for Active; 'I' for Inactive)
REMARK    1  A    between atoms: C_1  and  C_2
REMARK    2  A    between atoms: C_2  and  N_3
REMARK    3  A    between atoms: C_2  and  C_16
REMARK    4  A    between atoms: C_4  and  C_6
REMARK    5  A    between atoms: C_19  and  C_20
REMARK    6  A    between atoms: C_20  and  N_21
REMARK    7  A    between atoms: C_22  and  C_24
REMARK                            x       y       z     vdW  Elec       q    Type
REMARK                         _______ _______ _______ _____ _____    ______ ____
ROOT
ATOM      1  C   UNL     1      44.933  10.160  12.095  0.00  0.00    +0.000 C 
ATOM      2  C   UNL     1      45.961   9.153  12.621  0.00  0.00    +0.000 C 
ENDROOT
BRANCH   2   3
ATOM      3  C   UNL     1      45.604   7.700  12.342  0.00  0.00    +0.000 A 
ATOM      4  C   UNL     1      44.432   7.405  11.625  0.00  0.00    +0.000 A 
ATOM      5  C   UNL     1      44.054   6.080  11.373  0.00  0.00    +0.000 A 
ATOM      6  C   UNL     1      44.830   5.016  11.849  0.00  0.00    +0.000 A 
ATOM      7  C   UNL     1      45.999   5.304  12.562  0.00  0.00    +0.000 A 
ATOM      8  C   UNL     1      46.373   6.627  12.818  0.00  0.00    +0.000 A 
BRANCH   6   9
ATOM      9  C   UNL     1      44.413   3.590  11.615  0.00  0.00    +0.000 C 
BRANCH   9  10
ATOM     10  N   UNL     1      45.202   2.941  10.605  0.00  0.00    +0.000 N 
ATOM     11  C   UNL     1      44.958   3.161   9.259  0.00  0.00    +0.000 C 
ATOM     12  O   UNL     1      44.047   3.903   8.891  0.00  0.00    +0.000 OA
ATOM     13  H   UNL     1      45.976   2.330  10.852  0.00  0.00    +0.000 HD
BRANCH  11  14
ATOM     14  C   UNL     1      45.866   2.448   8.366  0.00  0.00    +0.000 A 
ATOM     15  N   UNL     1      46.069   1.142   8.423  0.00  0.00    +0.000 NA
ATOM     16  C   UNL     1      46.986   0.780   7.453  0.00  0.00    +0.000 A 
ATOM     17  C   UNL     1      47.473   1.811   6.674  0.00  0.00    +0.000 A 
ATOM     18  S   UNL     1      46.756   3.288   7.161  0.00  0.00    +0.000 S 
ENDBRANCH  11  14
ENDBRANCH   9  10
ENDBRANCH   6   9
ENDBRANCH   2   3
BRANCH   2  19
ATOM     19  N   UNL     1      47.271   9.434  12.062  0.00  0.00    +0.000 N 
ATOM     20  C   UNL     1      48.342   9.813  12.828  0.00  0.00    +0.000 C 
ATOM     21  O   UNL     1      48.289   9.879  14.053  0.00  0.00    +0.000 OA
ATOM     22  H   UNL     1      47.303   9.579  11.061  0.00  0.00    +0.000 HD
BRANCH  20  23
ATOM     23  C   UNL     1      49.592  10.066  12.101  0.00  0.00    +0.000 A 
ATOM     24  C   UNL     1      50.038  11.369  11.920  0.00  0.00    +0.000 A 
ATOM     25  S   UNL     1      51.541  11.468  11.117  0.00  0.00    +0.000 S 
ATOM     26  C   UNL     1      51.618   9.778  10.932  0.00  0.00    +0.000 A 
ATOM     27  N   UNL     1      52.668   9.188  10.300  0.00  0.00    +0.000 NA
ATOM     28  C   UNL     1      52.573   7.905  10.195  0.00  0.00    +0.000 A 
ATOM     29  N   UNL     1      51.527   7.156  10.667  0.00  0.00    +0.000 N 
ATOM     30  C   UNL     1      50.465   7.704  11.347  0.00  0.00    +0.000 A 
ATOM     31  O   UNL     1      49.573   7.000  11.810  0.00  0.00    +0.000 OA
ATOM     32  C   UNL     1      50.517   9.146  11.484  0.00  0.00    +0.000 A 
ATOM     33  H   UNL     1      51.518   6.154  10.558  0.00  0.00    +0.000 HD
ENDBRANCH  20  23
ENDBRANCH   2  19
TORSDOF 6
ENDMDL
MODEL 6
REMARK VINA RESULT:    -6.429      3.528      9.331
REMARK INTER + INTRA:          -9.691
REMARK INTER:                  -8.659
REMARK INTRA:                  -1.033
REMARK UNBOUND:                -1.007
REMARK  Name = 
REMARK  7 active torsions:
REMARK  status: ('A' for Active; 'I' for Inactive)
REMARK    1  A    between atoms: C_1  and  C_2
REMARK    2  A    between atoms: C_2  and  N_3
REMARK    3  A    between atoms: C_2  and  C_16
REMARK    4  A    between atoms: C_4  and  C_6
REMARK    5  A    between atoms: C_19  and  C_20
REMARK    6  A    between atoms: C_20  and  N_21
REMARK    7  A    between atoms: C_22  and  C_24
REMARK                            x       y       z     vdW  Elec       q    Type
REMARK                         _______ _______ _______ _____ _____    ______ ____
ROOT
ATOM      1  C   UNL     1      47.169   2.935  17.499  0.00  0.00    +0.000 C 
ATOM      2  C   UNL     1      48.272   3.974  17.274  0.00  0.00    +0.000 C 
ENDROOT
BRANCH   2   3
ATOM      3  C   UNL     1      49.683   3.423  17.425  0.00  0.00    +0.000 A 
ATOM      4  C   UNL     1      49.923   2.065  17.158  0.00  0.00    +0.000 A 
ATOM      5  C   UNL     1      51.201   1.513  17.314  0.00  0.00    +0.000 A 
ATOM      6  C   UNL     1      52.268   2.304  17.759  0.00  0.00    +0.000 A 
ATOM      7  C   UNL     1      52.034   3.658  18.024  0.00  0.00    +0.000 A 
ATOM      8  C   UNL     1      50.756   4.206  17.874  0.00  0.00    +0.000 A 
BRANCH   6   9
ATOM      9  C   UNL     1      53.635   1.713  17.964  0.00  0.00    +0.000 C 
BRANCH   9  10
ATOM     10  N   UNL     1      53.591   0.417  18.583  0.00  0.00    +0.000 N 
ATOM     11  C   UNL     1      54.241  -0.667  18.015  0.00  0.00    +0.000 C 
ATOM     12  O   UNL     1      54.859  -0.555  16.957  0.00  0.00    +0.000 OA
ATOM     13  H   UNL     1      53.108   0.270  19.465  0.00  0.00    +0.000 HD
BRANCH  11  14
ATOM     14  C   UNL     1      54.120  -1.901  18.784  0.00  0.00    +0.000 A 
ATOM     15  N   UNL     1      53.482  -1.981  19.940  0.00  0.00    +0.000 NA
ATOM     16  C   UNL     1      53.554  -3.279  20.413  0.00  0.00    +0.000 A 
ATOM     17  C   UNL     1      54.248  -4.169  19.617  0.00  0.00    +0.000 A 
ATOM     18  S   UNL     1      54.827  -3.362  18.222  0.00  0.00    +0.000 S 
ENDBRANCH  11  14
ENDBRANCH   9  10
ENDBRANCH   6   9
ENDBRANCH   2   3
BRANCH   2  19
ATOM     19  N   UNL     1      48.137   4.573  15.959  0.00  0.00    +0.000 N 
ATOM     20  C   UNL     1      48.309   5.913  15.729  0.00  0.00    +0.000 C 
ATOM     21  O   UNL     1      48.655   6.696  16.609  0.00  0.00    +0.000 OA
ATOM     22  H   UNL     1      47.670   4.008  15.260  0.00  0.00    +0.000 HD
BRANCH  20  23
ATOM     23  C   UNL     1      48.127   6.353  14.340  0.00  0.00    +0.000 A 
ATOM     24  C   UNL     1      48.973   7.311  13.799  0.00  0.00    +0.000 A 
ATOM     25  S   UNL     1      48.660   7.646  12.155  0.00  0.00    +0.000 S 
ATOM     26  C   UNL     1      47.345   6.566  12.127  0.00  0.00    +0.000 A 
ATOM     27  N   UNL     1      46.610   6.384  10.997  0.00  0.00    +0.000 NA
ATOM     28  C   UNL     1      45.618   5.569  11.133  0.00  0.00    +0.000 A 
ATOM     29  N   UNL     1      45.295   4.916  12.294  0.00  0.00    +0.000 N 
ATOM     30  C   UNL     1      46.033   5.037  13.448  0.00  0.00    +0.000 A 
ATOM     31  O   UNL     1      45.753   4.393  14.454  0.00  0.00    +0.000 OA
ATOM     32  C   UNL     1      47.154   5.951  13.352  0.00  0.00    +0.000 A 
ATOM     33  H   UNL     1      44.510   4.285  12.331  0.00  0.00    +0.000 HD
ENDBRANCH  20  23
ENDBRANCH   2  19
TORSDOF 6
ENDMDL
MODEL 7
REMARK VINA RESULT:    -6.338      5.575      8.513
REMARK INTER + INTRA:          -9.568
REMARK INTER:                  -8.510
REMARK INTRA:                  -1.058
REMARK UNBOUND:                -1.007
REMARK  Name = 
REMARK  7 active torsions:
REMARK  status: ('A' for Active; 'I' for Inactive)
REMARK    1  A    between atoms: C_1  and  C_2
REMARK    2  A    between atoms: C_2  and  N_3
REMARK    3  A    between atoms: C_2  and  C_16
REMARK    4  A    between atoms: C_4  and  C_6
REMARK    5  A    between atoms: C_19  and  C_20
REMARK    6  A    between atoms: C_20  and  N_21
REMARK    7  A    between atoms: C_22  and  C_24
REMARK                            x       y       z     vdW  Elec       q    Type
REMARK                         _______ _______ _______ _____ _____    ______ ____
ROOT
ATOM      1  C   UNL     1      45.743   8.889  13.262  0.00  0.00    +0.000 C 
ATOM      2  C   UNL     1      46.284   8.399  11.915  0.00  0.00    +0.000 C 
ENDROOT
BRANCH   2   3
ATOM      3  C   UNL     1      47.794   8.519  11.772  0.00  0.00    +0.000 A 
ATOM      4  C   UNL     1      48.579   7.354  11.768  0.00  0.00    +0.000 A 
ATOM      5  C   UNL     1      49.975   7.425  11.668  0.00  0.00    +0.000 A 
ATOM      6  C   UNL     1      50.621   8.665  11.590  0.00  0.00    +0.000 A 
ATOM      7  C   UNL     1      49.843   9.828  11.592  0.00  0.00    +0.000 A 
ATOM      8  C   UNL     1      48.450   9.757  11.698  0.00  0.00    +0.000 A 
BRANCH   6   9
ATOM      9  C   UNL     1      52.121   8.752  11.519  0.00  0.00    +0.000 C 
BRANCH   9  10
ATOM     10  N   UNL     1      52.612   8.763  10.169  0.00  0.00    +0.000 N 
ATOM     11  C   UNL     1      53.184   7.632   9.610  0.00  0.00    +0.000 C 
ATOM     12  O   UNL     1      53.304   6.593  10.258  0.00  0.00    +0.000 OA
ATOM     13  H   UNL     1      52.525   9.589   9.583  0.00  0.00    +0.000 HD
BRANCH  11  14
ATOM     14  C   UNL     1      53.604   7.803   8.223  0.00  0.00    +0.000 A 
ATOM     15  N   UNL     1      54.624   8.564   7.858  0.00  0.00    +0.000 NA
ATOM     16  C   UNL     1      54.757   8.520   6.482  0.00  0.00    +0.000 A 
ATOM     17  C   UNL     1      53.839   7.733   5.816  0.00  0.00    +0.000 A 
ATOM     18  S   UNL     1      52.772   7.012   6.945  0.00  0.00    +0.000 S 
ENDBRANCH  11  14
ENDBRANCH   9  10
ENDBRANCH   6   9
ENDBRANCH   2   3
BRANCH   2  19
ATOM     19  N   UNL     1      45.896   7.019  11.690  0.00  0.00    +0.000 N 
ATOM     20  C   UNL     1      44.610   6.643  11.401  0.00  0.00    +0.000 C 
ATOM     21  O   UNL     1      43.702   7.456  11.247  0.00  0.00    +0.000 OA
ATOM     22  H   UNL     1      46.559   6.317  11.995  0.00  0.00    +0.000 HD
BRANCH  20  23
ATOM     23  C   UNL     1      44.390   5.204  11.211  0.00  0.00    +0.000 A 
ATOM     24  C   UNL     1      43.649   4.486  12.140  0.00  0.00    +0.000 A 
ATOM     25  S   UNL     1      43.436   2.845  11.720  0.00  0.00    +0.000 S 
ATOM     26  C   UNL     1      44.376   3.026  10.312  0.00  0.00    +0.000 A 
ATOM     27  N   UNL     1      44.609   1.972   9.484  0.00  0.00    +0.000 NA
ATOM     28  C   UNL     1      45.372   2.243   8.478  0.00  0.00    +0.000 A 
ATOM     29  N   UNL     1      45.922   3.472   8.223  0.00  0.00    +0.000 N 
ATOM     30  C   UNL     1      45.683   4.575   9.009  0.00  0.00    +0.000 A 
ATOM     31  O   UNL     1      46.141   5.676   8.721  0.00  0.00    +0.000 OA
ATOM     32  C   UNL     1      44.838   4.321  10.160  0.00  0.00    +0.000 A 
ATOM     33  H   UNL     1      46.506   3.620   7.414  0.00  0.00    +0.000 HD
ENDBRANCH  20  23
ENDBRANCH   2  19
TORSDOF 6
ENDMDL
MODEL 8
REMARK VINA RESULT:    -6.208      3.804      9.044
REMARK INTER + INTRA:          -9.392
REMARK INTER:                  -8.798
REMARK INTRA:                  -0.594
REMARK UNBOUND:                -1.007
REMARK  Name = 
REMARK  7 active torsions:
REMARK  status: ('A' for Active; 'I' for Inactive)
REMARK    1  A    between atoms: C_1  and  C_2
REMARK    2  A    between atoms: C_2  and  N_3
REMARK    3  A    between atoms: C_2  and  C_16
REMARK    4  A    between atoms: C_4  and  C_6
REMARK    5  A    between atoms: C_19  and  C_20
REMARK    6  A    between atoms: C_20  and  N_21
REMARK    7  A    between atoms: C_22  and  C_24
REMARK                            x       y       z     vdW  Elec       q    Type
REMARK                         _______ _______ _______ _____ _____    ______ ____
ROOT
ATOM      1  C   UNL     1      46.869   2.781  17.593  0.00  0.00    +0.000 C 
ATOM      2  C   UNL     1      47.689   4.073  17.507  0.00  0.00    +0.000 C 
ENDROOT
BRANCH   2   3
ATOM      3  C   UNL     1      49.194   3.857  17.557  0.00  0.00    +0.000 A 
ATOM      4  C   UNL     1      49.708   2.560  17.389  0.00  0.00    +0.000 A 
ATOM      5  C   UNL     1      51.086   2.315  17.457  0.00  0.00    +0.000 A 
ATOM      6  C   UNL     1      51.982   3.360  17.713  0.00  0.00    +0.000 A 
ATOM      7  C   UNL     1      51.475   4.653  17.879  0.00  0.00    +0.000 A 
ATOM      8  C   UNL     1      50.099   4.896  17.818  0.00  0.00    +0.000 A 
BRANCH   6   9
ATOM      9  C   UNL     1      53.460   3.101  17.824  0.00  0.00    +0.000 C 
BRANCH   9  10
ATOM     10  N   UNL     1      53.819   1.768  17.426  0.00  0.00    +0.000 N 
ATOM     11  C   UNL     1      54.264   0.842  18.356  0.00  0.00    +0.000 C 
ATOM     12  O   UNL     1      54.380   1.140  19.545  0.00  0.00    +0.000 OA
ATOM     13  H   UNL     1      53.729   1.464  16.461  0.00  0.00    +0.000 HD
BRANCH  11  14
ATOM     14  C   UNL     1      54.560  -0.471  17.792  0.00  0.00    +0.000 A 
ATOM     15  N   UNL     1      54.843  -0.668  16.515  0.00  0.00    +0.000 NA
ATOM     16  C   UNL     1      55.067  -2.017  16.301  0.00  0.00    +0.000 A 
ATOM     17  C   UNL     1      54.947  -2.828  17.411  0.00  0.00    +0.000 A 
ATOM     18  S   UNL     1      54.549  -1.877  18.779  0.00  0.00    +0.000 S 
ENDBRANCH  11  14
ENDBRANCH   9  10
ENDBRANCH   6   9
ENDBRANCH   2   3
BRANCH   2  19
ATOM     19  N   UNL     1      47.354   4.800  16.297  0.00  0.00    +0.000 N 
ATOM     20  C   UNL     1      47.361   4.222  15.054  0.00  0.00    +0.000 C 
ATOM     21  O   UNL     1      47.587   3.028  14.881  0.00  0.00    +0.000 OA
ATOM     22  H   UNL     1      47.354   5.810  16.372  0.00  0.00    +0.000 HD
BRANCH  20  23
ATOM     23  C   UNL     1      47.005   5.104  13.936  0.00  0.00    +0.000 A 
ATOM     24  C   UNL     1      45.902   4.811  13.144  0.00  0.00    +0.000 A 
ATOM     25  S   UNL     1      45.597   5.981  11.940  0.00  0.00    +0.000 S 
ATOM     26  C   UNL     1      46.963   6.889  12.398  0.00  0.00    +0.000 A 
ATOM     27  N   UNL     1      47.295   8.035  11.744  0.00  0.00    +0.000 NA
ATOM     28  C   UNL     1      48.377   8.596  12.169  0.00  0.00    +0.000 A 
ATOM     29  N   UNL     1      49.157   8.118  13.190  0.00  0.00    +0.000 N 
ATOM     30  C   UNL     1      48.839   6.987  13.905  0.00  0.00    +0.000 A 
ATOM     31  O   UNL     1      49.526   6.618  14.853  0.00  0.00    +0.000 OA
ATOM     32  C   UNL     1      47.636   6.312  13.460  0.00  0.00    +0.000 A 
ATOM     33  H   UNL     1      49.989   8.609  13.479  0.00  0.00    +0.000 HD
ENDBRANCH  20  23
ENDBRANCH   2  19
TORSDOF 6
ENDMDL
MODEL 9
REMARK VINA RESULT:    -6.151      5.273      8.225
REMARK INTER + INTRA:          -9.315
REMARK INTER:                  -8.397
REMARK INTRA:                  -0.918
REMARK UNBOUND:                -1.007
REMARK  Name = 
REMARK  7 active torsions:
REMARK  status: ('A' for Active; 'I' for Inactive)
REMARK    1  A    between atoms: C_1  and  C_2
REMARK    2  A    between atoms: C_2  and  N_3
REMARK    3  A    between atoms: C_2  and  C_16
REMARK    4  A    between atoms: C_4  and  C_6
REMARK    5  A    between atoms: C_19  and  C_20
REMARK    6  A    between atoms: C_20  and  N_21
REMARK    7  A    between atoms: C_22  and  C_24
REMARK                            x       y       z     vdW  Elec       q    Type
REMARK                         _______ _______ _______ _____ _____    ______ ____
ROOT
ATOM      1  C   UNL     1      47.583   8.337  13.798  0.00  0.00    +0.000 C 
ATOM      2  C   UNL     1      47.676   8.399  12.269  0.00  0.00    +0.000 C 
ENDROOT
BRANCH   2   3
ATOM      3  C   UNL     1      49.093   8.570  11.741  0.00  0.00    +0.000 A 
ATOM      4  C   UNL     1      49.573   9.861  11.464  0.00  0.00    +0.000 A 
ATOM      5  C   UNL     1      50.861  10.057  10.948  0.00  0.00    +0.000 A 
ATOM      6  C   UNL     1      51.694   8.964  10.679  0.00  0.00    +0.000 A 
ATOM      7  C   UNL     1      51.220   7.676  10.955  0.00  0.00    +0.000 A 
ATOM      8  C   UNL     1      49.932   7.481  11.464  0.00  0.00    +0.000 A 
BRANCH   6   9
ATOM      9  C   UNL     1      53.064   9.162  10.092  0.00  0.00    +0.000 C 
BRANCH   9  10
ATOM     10  N   UNL     1      53.521   8.016   9.356  0.00  0.00    +0.000 N 
ATOM     11  C   UNL     1      53.355   7.939   7.982  0.00  0.00    +0.000 C 
ATOM     12  O   UNL     1      52.796   8.839   7.358  0.00  0.00    +0.000 OA
ATOM     13  H   UNL     1      54.003   7.250   9.818  0.00  0.00    +0.000 HD
BRANCH  11  14
ATOM     14  C   UNL     1      53.900   6.723   7.386  0.00  0.00    +0.000 A 
ATOM     15  N   UNL     1      53.164   5.839   6.732  0.00  0.00    +0.000 NA
ATOM     16  C   UNL     1      53.973   4.804   6.299  0.00  0.00    +0.000 A 
ATOM     17  C   UNL     1      55.310   4.908   6.631  0.00  0.00    +0.000 A 
ATOM     18  S   UNL     1      55.573   6.355   7.510  0.00  0.00    +0.000 S 
ENDBRANCH  11  14
ENDBRANCH   9  10
ENDBRANCH   6   9
ENDBRANCH   2   3
BRANCH   2  19
ATOM     19  N   UNL     1      47.091   7.208  11.682  0.00  0.00    +0.000 N 
ATOM     20  C   UNL     1      45.781   7.138  11.285  0.00  0.00    +0.000 C 
ATOM     21  O   UNL     1      45.022   8.101  11.339  0.00  0.00    +0.000 OA
ATOM     22  H   UNL     1      47.619   6.352  11.799  0.00  0.00    +0.000 HD
BRANCH  20  23
ATOM     23  C   UNL     1      45.352   5.854  10.718  0.00  0.00    +0.000 A 
ATOM     24  C   UNL     1      45.663   5.538   9.402  0.00  0.00    +0.000 A 
ATOM     25  S   UNL     1      45.149   3.979   8.935  0.00  0.00    +0.000 S 
ATOM     26  C   UNL     1      44.441   3.697  10.457  0.00  0.00    +0.000 A 
ATOM     27  N   UNL     1      43.801   2.527  10.727  0.00  0.00    +0.000 NA
ATOM     28  C   UNL     1      43.276   2.466  11.905  0.00  0.00    +0.000 A 
ATOM     29  N   UNL     1      43.334   3.468  12.839  0.00  0.00    +0.000 N 
ATOM     30  C   UNL     1      44.003   4.650  12.626  0.00  0.00    +0.000 A 
ATOM     31  O   UNL     1      44.088   5.502  13.505  0.00  0.00    +0.000 OA
ATOM     32  C   UNL     1      44.603   4.772  11.312  0.00  0.00    +0.000 A 
ATOM     33  H   UNL     1      42.907   3.354  13.746  0.00  0.00    +0.000 HD
ENDBRANCH  20  23
ENDBRANCH   2  19
TORSDOF 6
ENDMDL
