MODEL 1
REMARK VINA RESULT:    -8.127      0.000      0.000
REMARK INTER + INTRA:         -13.490
REMARK INTER:                 -11.928
REMARK INTRA:                  -1.562
REMARK UNBOUND:                -1.562
REMARK  Name = 
REMARK  10 active torsions:
REMARK  status: ('A' for Active; 'I' for Inactive)
REMARK    1  A    between atoms: C_1  and  O_2
REMARK    2  A    between atoms: O_2  and  C_3
REMARK    3  A    between atoms: C_10  and  C_11
REMARK    4  A    between atoms: N_13  and  C_14
REMARK    5  A    between atoms: C_14  and  C_15
REMARK    6  A    between atoms: C_18  and  C_19
REMARK    7  A    between atoms: C_19  and  N_20
REMARK    8  A    between atoms: N_20  and  C_21
REMARK    9  A    between atoms: C_21  and  C_22
REMARK   10  A    between atoms: C_21  and  C_23
REMARK                            x       y       z     vdW  Elec       q    Type
REMARK                         _______ _______ _______ _____ _____    ______ ____
ROOT
ATOM      1  C   UNL     1      46.385   7.075  12.652  0.00  0.00    +0.000 A 
ATOM      2  C   UNL     1      46.601   6.926  11.275  0.00  0.00    +0.000 A 
ATOM      3  C   UNL     1      45.704   6.197  10.482  0.00  0.00    +0.000 A 
ATOM      4  C   UNL     1      44.559   5.610  11.041  0.00  0.00    +0.000 A 
ATOM      5  C   UNL     1      44.337   5.774  12.415  0.00  0.00    +0.000 A 
ATOM      6  C   UNL     1      45.235   6.499  13.209  0.00  0.00    +0.000 A 
ENDROOT
BRANCH   1   7
ATOM      7  C   UNL     1      47.349   7.870  13.502  0.00  0.00    +0.000 C 
BRANCH   7  10
ATOM      8  C   UNL     1      48.974   6.799  15.029  0.00  0.00    +0.000 C 
ATOM      9  O   UNL     1      49.921   7.068  14.289  0.00  0.00    +0.000 OA
ATOM     10  N   UNL     1      47.690   7.160  14.712  0.00  0.00    +0.000 N 
ATOM     11  H   UNL     1      46.932   6.916  15.327  0.00  0.00    +0.000 HD
BRANCH   8  19
ATOM     12  C   UNL     1      47.380   4.115  16.476  0.00  0.00    +0.000 A 
ATOM     13  N   UNL     1      46.959   3.085  17.235  0.00  0.00    +0.000 NA
ATOM     14  C   UNL     1      47.596   2.853  18.384  0.00  0.00    +0.000 A 
ATOM     15  N   UNL     1      48.614   3.544  18.888  0.00  0.00    +0.000 NA
ATOM     16  C   UNL     1      49.008   4.558  18.096  0.00  0.00    +0.000 A 
ATOM     17  S   UNL     1      50.298   5.550  18.579  0.00  0.00    +0.000 S 
ATOM     18  C   UNL     1      50.174   6.487  17.165  0.00  0.00    +0.000 A 
ATOM     19  C   UNL     1      49.170   6.067  16.298  0.00  0.00    +0.000 A 
ATOM     20  C   UNL     1      48.464   4.920  16.866  0.00  0.00    +0.000 A 
BRANCH  12  22
ATOM     21  C   UNL     1      47.153   3.436  14.248  0.00  0.00    +0.000 C 
ATOM     22  O   UNL     1      46.740   4.332  15.275  0.00  0.00    +0.000 OA
ENDBRANCH  12  22
ENDBRANCH   8  19
ENDBRANCH   7  10
ENDBRANCH   1   7
BRANCH   4  23
ATOM     23  C   UNL     1      43.561   4.852  10.186  0.00  0.00    +0.000 C 
BRANCH  23  24
ATOM     24  N   UNL     1      44.201   4.234   9.026  0.00  0.00    +0.000 NA
ATOM     25  H   UNL     1      44.832   4.920   8.609  0.00  0.00    +0.000 HD
BRANCH  24  26
ATOM     26  C   UNL     1      44.992   3.031   9.339  0.00  0.00    +0.000 C 
ATOM     27  C   UNL     1      44.123   1.823   9.728  0.00  0.00    +0.000 C 
BRANCH  26  28
ATOM     28  C   UNL     1      45.867   2.663   8.143  0.00  0.00    +0.000 A 
ATOM     29  C   UNL     1      46.143   3.593   7.131  0.00  0.00    +0.000 A 
ATOM     30  C   UNL     1      46.988   3.261   6.065  0.00  0.00    +0.000 A 
ATOM     31  C   UNL     1      47.558   1.992   5.989  0.00  0.00    +0.000 A 
ATOM     32  C   UNL     1      47.271   1.046   6.969  0.00  0.00    +0.000 A 
ATOM     33  C   UNL     1      46.430   1.377   8.035  0.00  0.00    +0.000 A 
ENDBRANCH  26  28
ENDBRANCH  24  26
ENDBRANCH  23  24
ENDBRANCH   4  23
TORSDOF 8
ENDMDL
MODEL 2
REMARK VINA RESULT:    -7.883      1.833      2.452
REMARK INTER + INTRA:         -13.131
REMARK INTER:                 -12.027
REMARK INTRA:                  -1.104
REMARK UNBOUND:                -1.562
REMARK  Name = 
REMARK  10 active torsions:
REMARK  status: ('A' for Active; 'I' for Inactive)
REMARK    1  A    between atoms: C_1  and  O_2
REMARK    2  A    between atoms: O_2  and  C_3
REMARK    3  A    between atoms: C_10  and  C_11
REMARK    4  A    between atoms: N_13  and  C_14
REMARK    5  A    between atoms: C_14  and  C_15
REMARK    6  A    between atoms: C_18  and  C_19
REMARK    7  A    between atoms: C_19  and  N_20
REMARK    8  A    between atoms: N_20  and  C_21
REMARK    9  A    between atoms: C_21  and  C_22
REMARK   10  A    between atoms: C_21  and  C_23
REMARK                            x       y       z     vdW  Elec       q    Type
REMARK                         _______ _______ _______ _____ _____    ______ ____
ROOT
ATOM      1  C   UNL     1      47.334   6.141  13.202  0.00  0.00    +0.000 A 
ATOM      2  C   UNL     1      46.983   4.953  13.859  0.00  0.00    +0.000 A 
ATOM      3  C   UNL     1      46.018   4.092  13.317  0.00  0.00    +0.000 A 
ATOM      4  C   UNL     1      45.390   4.387  12.098  0.00  0.00    +0.000 A 
ATOM      5  C   UNL     1      45.755   5.567  11.436  0.00  0.00    +0.000 A 
ATOM      6  C   UNL     1      46.715   6.430  11.978  0.00  0.00    +0.000 A 
ENDROOT
BRANCH   1   7
ATOM      7  C   UNL     1      48.382   7.062  13.783  0.00  0.00    +0.000 C 
BRANCH   7  10
ATOM      8  C   UNL     1      49.131   6.824  16.129  0.00  0.00    +0.000 C 
ATOM      9  O   UNL     1      50.187   6.289  15.789  0.00  0.00    +0.000 OA
ATOM     10  N   UNL     1      48.202   7.230  15.205  0.00  0.00    +0.000 N 
ATOM     11  H   UNL     1      47.341   7.652  15.510  0.00  0.00    +0.000 HD
BRANCH   8  19
ATOM     12  C   UNL     1      48.849   4.738  18.850  0.00  0.00    +0.000 A 
ATOM     13  N   UNL     1      48.706   4.160  20.058  0.00  0.00    +0.000 NA
ATOM     14  C   UNL     1      48.407   4.944  21.096  0.00  0.00    +0.000 A 
ATOM     15  N   UNL     1      48.217   6.261  21.075  0.00  0.00    +0.000 NA
ATOM     16  C   UNL     1      48.378   6.798  19.852  0.00  0.00    +0.000 A 
ATOM     17  S   UNL     1      48.175   8.470  19.635  0.00  0.00    +0.000 S 
ATOM     18  C   UNL     1      48.520   8.348  17.974  0.00  0.00    +0.000 A 
ATOM     19  C   UNL     1      48.805   7.053  17.552  0.00  0.00    +0.000 A 
ATOM     20  C   UNL     1      48.705   6.125  18.678  0.00  0.00    +0.000 A 
BRANCH  12  22
ATOM     21  C   UNL     1      48.075   3.240  17.228  0.00  0.00    +0.000 C 
ATOM     22  O   UNL     1      49.188   3.929  17.787  0.00  0.00    +0.000 OA
ENDBRANCH  12  22
ENDBRANCH   8  19
ENDBRANCH   7  10
ENDBRANCH   1   7
BRANCH   4  23
ATOM     23  C   UNL     1      44.373   3.443  11.484  0.00  0.00    +0.000 C 
BRANCH  23  24
ATOM     24  N   UNL     1      44.982   2.561  10.492  0.00  0.00    +0.000 NA
ATOM     25  H   UNL     1      44.752   1.597  10.740  0.00  0.00    +0.000 HD
BRANCH  24  26
ATOM     26  C   UNL     1      44.521   2.790   9.111  0.00  0.00    +0.000 C 
ATOM     27  C   UNL     1      43.985   4.213   8.884  0.00  0.00    +0.000 C 
BRANCH  26  28
ATOM     28  C   UNL     1      45.662   2.514   8.134  0.00  0.00    +0.000 A 
ATOM     29  C   UNL     1      46.328   1.280   8.122  0.00  0.00    +0.000 A 
ATOM     30  C   UNL     1      47.337   1.021   7.188  0.00  0.00    +0.000 A 
ATOM     31  C   UNL     1      47.704   1.994   6.261  0.00  0.00    +0.000 A 
ATOM     32  C   UNL     1      47.074   3.235   6.277  0.00  0.00    +0.000 A 
ATOM     33  C   UNL     1      46.064   3.495   7.207  0.00  0.00    +0.000 A 
ENDBRANCH  26  28
ENDBRANCH  24  26
ENDBRANCH  23  24
ENDBRANCH   4  23
TORSDOF 8
ENDMDL
MODEL 3
REMARK VINA RESULT:    -7.813      2.538      3.367
REMARK INTER + INTRA:         -13.029
REMARK INTER:                 -11.702
REMARK INTRA:                  -1.327
REMARK UNBOUND:                -1.562
REMARK  Name = 
REMARK  10 active torsions:
REMARK  status: ('A' for Active; 'I' for Inactive)
REMARK    1  A    between atoms: C_1  and  O_2
REMARK    2  A    between atoms: O_2  and  C_3
REMARK    3  A    between atoms: C_10  and  C_11
REMARK    4  A    between atoms: N_13  and  C_14
REMARK    5  A    between atoms: C_14  and  C_15
REMARK    6  A    between atoms: C_18  and  C_19
REMARK    7  A    between atoms: C_19  and  N_20
REMARK    8  A    between atoms: N_20  and  C_21
REMARK    9  A    between atoms: C_21  and  C_22
REMARK   10  A    between atoms: C_21  and  C_23
REMARK                            x       y       z     vdW  Elec       q    Type
REMARK                         _______ _______ _______ _____ _____    ______ ____
ROOT
ATOM      1  C   UNL     1      47.392   5.898  13.606  0.00  0.00    +0.000 A 
ATOM      2  C   UNL     1      47.123   4.606  14.082  0.00  0.00    +0.000 A 
ATOM      3  C   UNL     1      46.160   3.799  13.460  0.00  0.00    +0.000 A 
ATOM      4  C   UNL     1      45.451   4.255  12.338  0.00  0.00    +0.000 A 
ATOM      5  C   UNL     1      45.734   5.540  11.856  0.00  0.00    +0.000 A 
ATOM      6  C   UNL     1      46.693   6.349  12.479  0.00  0.00    +0.000 A 
ENDROOT
BRANCH   1   7
ATOM      7  C   UNL     1      48.439   6.762  14.273  0.00  0.00    +0.000 C 
BRANCH   7  10
ATOM      8  C   UNL     1      49.126   6.418  16.624  0.00  0.00    +0.000 C 
ATOM      9  O   UNL     1      50.203   5.923  16.288  0.00  0.00    +0.000 OA
ATOM     10  N   UNL     1      48.215   6.852  15.696  0.00  0.00    +0.000 N 
ATOM     11  H   UNL     1      47.337   7.240  15.997  0.00  0.00    +0.000 HD
BRANCH   8  19
ATOM     12  C   UNL     1      47.741   8.986  18.447  0.00  0.00    +0.000 A 
ATOM     13  N   UNL     1      47.195   9.803  19.368  0.00  0.00    +0.000 NA
ATOM     14  C   UNL     1      47.071   9.345  20.616  0.00  0.00    +0.000 A 
ATOM     15  N   UNL     1      47.444   8.153  21.071  0.00  0.00    +0.000 NA
ATOM     16  C   UNL     1      47.977   7.367  20.118  0.00  0.00    +0.000 A 
ATOM     17  S   UNL     1      48.510   5.805  20.517  0.00  0.00    +0.000 S 
ATOM     18  C   UNL     1      48.995   5.506  18.915  0.00  0.00    +0.000 A 
ATOM     19  C   UNL     1      48.756   6.566  18.047  0.00  0.00    +0.000 A 
ATOM     20  C   UNL     1      48.159   7.685  18.775  0.00  0.00    +0.000 A 
BRANCH  12  22
ATOM     21  C   UNL     1      49.030  10.191  16.910  0.00  0.00    +0.000 C 
ATOM     22  O   UNL     1      47.839   9.452  17.154  0.00  0.00    +0.000 OA
ENDBRANCH  12  22
ENDBRANCH   8  19
ENDBRANCH   7  10
ENDBRANCH   1   7
BRANCH   4  23
ATOM     23  C   UNL     1      44.435   3.375  11.635  0.00  0.00    +0.000 C 
BRANCH  23  24
ATOM     24  N   UNL     1      45.050   2.573  10.580  0.00  0.00    +0.000 NA
ATOM     25  H   UNL     1      44.881   1.588  10.790  0.00  0.00    +0.000 HD
BRANCH  24  26
ATOM     26  C   UNL     1      44.524   2.839   9.230  0.00  0.00    +0.000 C 
ATOM     27  C   UNL     1      44.043   4.288   9.045  0.00  0.00    +0.000 C 
BRANCH  26  28
ATOM     28  C   UNL     1      45.594   2.522   8.187  0.00  0.00    +0.000 A 
ATOM     29  C   UNL     1      45.971   3.467   7.222  0.00  0.00    +0.000 A 
ATOM     30  C   UNL     1      46.989   3.183   6.303  0.00  0.00    +0.000 A 
ATOM     31  C   UNL     1      47.634   1.950   6.328  0.00  0.00    +0.000 A 
ATOM     32  C   UNL     1      47.252   0.988   7.260  0.00  0.00    +0.000 A 
ATOM     33  C   UNL     1      46.239   1.270   8.179  0.00  0.00    +0.000 A 
ENDBRANCH  26  28
ENDBRANCH  24  26
ENDBRANCH  23  24
ENDBRANCH   4  23
TORSDOF 8
ENDMDL
MODEL 4
REMARK VINA RESULT:    -7.480      1.444      2.092
REMARK INTER + INTRA:         -12.539
REMARK INTER:                 -11.469
REMARK INTRA:                  -1.070
REMARK UNBOUND:                -1.562
REMARK  Name = 
REMARK  10 active torsions:
REMARK  status: ('A' for Active; 'I' for Inactive)
REMARK    1  A    between atoms: C_1  and  O_2
REMARK    2  A    between atoms: O_2  and  C_3
REMARK    3  A    between atoms: C_10  and  C_11
REMARK    4  A    between atoms: N_13  and  C_14
REMARK    5  A    between atoms: C_14  and  C_15
REMARK    6  A    between atoms: C_18  and  C_19
REMARK    7  A    between atoms: C_19  and  N_20
REMARK    8  A    between atoms: N_20  and  C_21
REMARK    9  A    between atoms: C_21  and  C_22
REMARK   10  A    between atoms: C_21  and  C_23
REMARK                            x       y       z     vdW  Elec       q    Type
REMARK                         _______ _______ _______ _____ _____    ______ ____
ROOT
ATOM      1  C   UNL     1      46.509   6.781  13.255  0.00  0.00    +0.000 A 
ATOM      2  C   UNL     1      47.060   5.492  13.253  0.00  0.00    +0.000 A 
ATOM      3  C   UNL     1      46.316   4.393  12.800  0.00  0.00    +0.000 A 
ATOM      4  C   UNL     1      45.006   4.556  12.324  0.00  0.00    +0.000 A 
ATOM      5  C   UNL     1      44.463   5.848  12.312  0.00  0.00    +0.000 A 
ATOM      6  C   UNL     1      45.205   6.946  12.768  0.00  0.00    +0.000 A 
ENDROOT
BRANCH   1   7
ATOM      7  C   UNL     1      47.318   7.965  13.734  0.00  0.00    +0.000 C 
BRANCH   7  10
ATOM      8  C   UNL     1      49.598   7.451  14.545  0.00  0.00    +0.000 C 
ATOM      9  O   UNL     1      50.092   7.663  13.437  0.00  0.00    +0.000 OA
ATOM     10  N   UNL     1      48.250   7.579  14.766  0.00  0.00    +0.000 N 
ATOM     11  H   UNL     1      47.870   7.386  15.677  0.00  0.00    +0.000 HD
BRANCH   8  19
ATOM     12  C   UNL     1      49.110   5.247  17.141  0.00  0.00    +0.000 A 
ATOM     13  N   UNL     1      49.186   4.443  18.220  0.00  0.00    +0.000 NA
ATOM     14  C   UNL     1      50.305   4.474  18.946  0.00  0.00    +0.000 A 
ATOM     15  N   UNL     1      51.376   5.233  18.732  0.00  0.00    +0.000 NA
ATOM     16  C   UNL     1      51.262   6.013  17.641  0.00  0.00    +0.000 A 
ATOM     17  S   UNL     1      52.536   7.050  17.212  0.00  0.00    +0.000 S 
ATOM     18  C   UNL     1      51.682   7.623  15.858  0.00  0.00    +0.000 A 
ATOM     19  C   UNL     1      50.429   7.039  15.695  0.00  0.00    +0.000 A 
ATOM     20  C   UNL     1      50.176   6.086  16.774  0.00  0.00    +0.000 A 
BRANCH  12  22
ATOM     21  C   UNL     1      47.264   3.957  16.506  0.00  0.00    +0.000 C 
ATOM     22  O   UNL     1      47.965   5.189  16.377  0.00  0.00    +0.000 OA
ENDBRANCH  12  22
ENDBRANCH   8  19
ENDBRANCH   7  10
ENDBRANCH   1   7
BRANCH   4  23
ATOM     23  C   UNL     1      44.205   3.380  11.796  0.00  0.00    +0.000 C 
BRANCH  23  24
ATOM     24  N   UNL     1      44.935   2.648  10.763  0.00  0.00    +0.000 NA
ATOM     25  H   UNL     1      44.802   1.650  10.928  0.00  0.00    +0.000 HD
BRANCH  24  26
ATOM     26  C   UNL     1      44.492   2.938   9.388  0.00  0.00    +0.000 C 
ATOM     27  C   UNL     1      44.127   4.416   9.171  0.00  0.00    +0.000 C 
BRANCH  26  28
ATOM     28  C   UNL     1      45.584   2.534   8.399  0.00  0.00    +0.000 A 
ATOM     29  C   UNL     1      46.025   1.206   8.306  0.00  0.00    +0.000 A 
ATOM     30  C   UNL     1      46.990   0.838   7.360  0.00  0.00    +0.000 A 
ATOM     31  C   UNL     1      47.535   1.791   6.504  0.00  0.00    +0.000 A 
ATOM     32  C   UNL     1      47.129   3.120   6.602  0.00  0.00    +0.000 A 
ATOM     33  C   UNL     1      46.165   3.489   7.543  0.00  0.00    +0.000 A 
ENDBRANCH  26  28
ENDBRANCH  24  26
ENDBRANCH  23  24
ENDBRANCH   4  23
TORSDOF 8
ENDMDL
MODEL 5
REMARK VINA RESULT:    -7.284      2.653      3.610
REMARK INTER + INTRA:         -12.252
REMARK INTER:                 -11.091
REMARK INTRA:                  -1.162
REMARK UNBOUND:                -1.562
REMARK  Name = 
REMARK  10 active torsions:
REMARK  status: ('A' for Active; 'I' for Inactive)
REMARK    1  A    between atoms: C_1  and  O_2
REMARK    2  A    between atoms: O_2  and  C_3
REMARK    3  A    between atoms: C_10  and  C_11
REMARK    4  A    between atoms: N_13  and  C_14
REMARK    5  A    between atoms: C_14  and  C_15
REMARK    6  A    between atoms: C_18  and  C_19
REMARK    7  A    between atoms: C_19  and  N_20
REMARK    8  A    between atoms: N_20  and  C_21
REMARK    9  A    between atoms: C_21  and  C_22
REMARK   10  A    between atoms: C_21  and  C_23
REMARK                            x       y       z     vdW  Elec       q    Type
REMARK                         _______ _______ _______ _____ _____    ______ ____
ROOT
ATOM      1  C   UNL     1      46.607   4.602  14.001  0.00  0.00    +0.000 A 
ATOM      2  C   UNL     1      46.483   3.394  13.300  0.00  0.00    +0.000 A 
ATOM      3  C   UNL     1      45.537   3.254  12.274  0.00  0.00    +0.000 A 
ATOM      4  C   UNL     1      44.701   4.320  11.913  0.00  0.00    +0.000 A 
ATOM      5  C   UNL     1      44.838   5.531  12.605  0.00  0.00    +0.000 A 
ATOM      6  C   UNL     1      45.779   5.671  13.633  0.00  0.00    +0.000 A 
ENDROOT
BRANCH   1   7
ATOM      7  C   UNL     1      47.635   4.753  15.100  0.00  0.00    +0.000 C 
BRANCH   7  10
ATOM      8  C   UNL     1      48.886   6.775  15.783  0.00  0.00    +0.000 C 
ATOM      9  O   UNL     1      49.972   6.231  15.578  0.00  0.00    +0.000 OA
ATOM     10  N   UNL     1      47.702   6.116  15.570  0.00  0.00    +0.000 N 
ATOM     11  H   UNL     1      46.828   6.578  15.758  0.00  0.00    +0.000 HD
BRANCH   8  19
ATOM     12  C   UNL     1      47.649   8.185  18.667  0.00  0.00    +0.000 A 
ATOM     13  N   UNL     1      47.273   8.974  19.692  0.00  0.00    +0.000 NA
ATOM     14  C   UNL     1      47.491  10.286  19.585  0.00  0.00    +0.000 A 
ATOM     15  N   UNL     1      48.039  10.924  18.554  0.00  0.00    +0.000 NA
ATOM     16  C   UNL     1      48.408  10.099  17.558  0.00  0.00    +0.000 A 
ATOM     17  S   UNL     1      49.127  10.738  16.159  0.00  0.00    +0.000 S 
ATOM     18  C   UNL     1      49.276   9.193  15.467  0.00  0.00    +0.000 A 
ATOM     19  C   UNL     1      48.799   8.165  16.275  0.00  0.00    +0.000 A 
ATOM     20  C   UNL     1      48.267   8.714  17.522  0.00  0.00    +0.000 A 
BRANCH  12  22
ATOM     21  C   UNL     1      48.529   6.159  19.439  0.00  0.00    +0.000 C 
ATOM     22  O   UNL     1      47.450   6.827  18.795  0.00  0.00    +0.000 OA
ENDBRANCH  12  22
ENDBRANCH   8  19
ENDBRANCH   7  10
ENDBRANCH   1   7
BRANCH   4  23
ATOM     23  C   UNL     1      43.701   4.191  10.779  0.00  0.00    +0.000 C 
BRANCH  23  24
ATOM     24  N   UNL     1      44.195   3.316   9.718  0.00  0.00    +0.000 NA
ATOM     25  H   UNL     1      43.398   2.815   9.323  0.00  0.00    +0.000 HD
BRANCH  24  26
ATOM     26  C   UNL     1      44.870   4.023   8.615  0.00  0.00    +0.000 C 
ATOM     27  C   UNL     1      45.697   5.229   9.089  0.00  0.00    +0.000 C 
BRANCH  26  28
ATOM     28  C   UNL     1      45.775   3.053   7.858  0.00  0.00    +0.000 A 
ATOM     29  C   UNL     1      46.442   3.443   6.688  0.00  0.00    +0.000 A 
ATOM     30  C   UNL     1      47.310   2.562   6.032  0.00  0.00    +0.000 A 
ATOM     31  C   UNL     1      47.512   1.276   6.526  0.00  0.00    +0.000 A 
ATOM     32  C   UNL     1      46.835   0.861   7.670  0.00  0.00    +0.000 A 
ATOM     33  C   UNL     1      45.971   1.740   8.328  0.00  0.00    +0.000 A 
ENDBRANCH  26  28
ENDBRANCH  24  26
ENDBRANCH  23  24
ENDBRANCH   4  23
TORSDOF 8
ENDMDL
MODEL 6
REMARK VINA RESULT:    -7.034      2.149      3.894
REMARK INTER + INTRA:         -11.886
REMARK INTER:                 -10.532
REMARK INTRA:                  -1.354
REMARK UNBOUND:                -1.562
REMARK  Name = 
REMARK  10 active torsions:
REMARK  status: ('A' for Active; 'I' for Inactive)
REMARK    1  A    between atoms: C_1  and  O_2
REMARK    2  A    between atoms: O_2  and  C_3
REMARK    3  A    between atoms: C_10  and  C_11
REMARK    4  A    between atoms: N_13  and  C_14
REMARK    5  A    between atoms: C_14  and  C_15
REMARK    6  A    between atoms: C_18  and  C_19
REMARK    7  A    between atoms: C_19  and  N_20
REMARK    8  A    between atoms: N_20  and  C_21
REMARK    9  A    between atoms: C_21  and  C_22
REMARK   10  A    between atoms: C_21  and  C_23
REMARK                            x       y       z     vdW  Elec       q    Type
REMARK                         _______ _______ _______ _____ _____    ______ ____
ROOT
ATOM      1  C   UNL     1      46.230   4.756  13.609  0.00  0.00    +0.000 A 
ATOM      2  C   UNL     1      45.170   3.846  13.492  0.00  0.00    +0.000 A 
ATOM      3  C   UNL     1      44.339   3.852  12.363  0.00  0.00    +0.000 A 
ATOM      4  C   UNL     1      44.555   4.759  11.314  0.00  0.00    +0.000 A 
ATOM      5  C   UNL     1      45.625   5.657  11.426  0.00  0.00    +0.000 A 
ATOM      6  C   UNL     1      46.452   5.654  12.556  0.00  0.00    +0.000 A 
ENDROOT
BRANCH   1   7
ATOM      7  C   UNL     1      47.130   4.740  14.823  0.00  0.00    +0.000 C 
BRANCH   7  10
ATOM      8  C   UNL     1      48.785   6.233  15.897  0.00  0.00    +0.000 C 
ATOM      9  O   UNL     1      49.309   5.297  16.502  0.00  0.00    +0.000 OA
ATOM     10  N   UNL     1      47.717   6.037  15.058  0.00  0.00    +0.000 N 
ATOM     11  H   UNL     1      47.298   6.820  14.586  0.00  0.00    +0.000 HD
BRANCH   8  19
ATOM     12  C   UNL     1      50.013   8.555  13.675  0.00  0.00    +0.000 A 
ATOM     13  N   UNL     1      50.490   9.635  13.027  0.00  0.00    +0.000 NA
ATOM     14  C   UNL     1      50.753  10.729  13.744  0.00  0.00    +0.000 A 
ATOM     15  N   UNL     1      50.609  10.879  15.057  0.00  0.00    +0.000 NA
ATOM     16  C   UNL     1      50.121   9.781  15.664  0.00  0.00    +0.000 A 
ATOM     17  S   UNL     1      49.870   9.789  17.343  0.00  0.00    +0.000 S 
ATOM     18  C   UNL     1      49.297   8.188  17.316  0.00  0.00    +0.000 A 
ATOM     19  C   UNL     1      49.273   7.619  16.046  0.00  0.00    +0.000 A 
ATOM     20  C   UNL     1      49.782   8.573  15.061  0.00  0.00    +0.000 A 
BRANCH  12  22
ATOM     21  C   UNL     1      49.407   7.736  11.568  0.00  0.00    +0.000 C 
ATOM     22  O   UNL     1      49.713   7.438  12.926  0.00  0.00    +0.000 OA
ENDBRANCH  12  22
ENDBRANCH   8  19
ENDBRANCH   7  10
ENDBRANCH   1   7
BRANCH   4  23
ATOM     23  C   UNL     1      43.685   4.749  10.070  0.00  0.00    +0.000 C 
BRANCH  23  24
ATOM     24  N   UNL     1      44.418   4.268   8.901  0.00  0.00    +0.000 NA
ATOM     25  H   UNL     1      45.120   4.968   8.656  0.00  0.00    +0.000 HD
BRANCH  24  26
ATOM     26  C   UNL     1      45.118   2.988   9.108  0.00  0.00    +0.000 C 
ATOM     27  C   UNL     1      44.159   1.807   9.335  0.00  0.00    +0.000 C 
BRANCH  26  28
ATOM     28  C   UNL     1      46.015   2.691   7.908  0.00  0.00    +0.000 A 
ATOM     29  C   UNL     1      46.189   3.629   6.881  0.00  0.00    +0.000 A 
ATOM     30  C   UNL     1      47.054   3.366   5.811  0.00  0.00    +0.000 A 
ATOM     31  C   UNL     1      47.746   2.159   5.747  0.00  0.00    +0.000 A 
ATOM     32  C   UNL     1      47.562   1.203   6.744  0.00  0.00    +0.000 A 
ATOM     33  C   UNL     1      46.702   1.465   7.812  0.00  0.00    +0.000 A 
ENDBRANCH  26  28
ENDBRANCH  24  26
ENDBRANCH  23  24
ENDBRANCH   4  23
TORSDOF 8
ENDMDL
MODEL 7
REMARK VINA RESULT:    -6.898      3.312      7.915
REMARK INTER + INTRA:         -11.686
REMARK INTER:                  -9.803
REMARK INTRA:                  -1.883
REMARK UNBOUND:                -1.562
REMARK  Name = 
REMARK  10 active torsions:
REMARK  status: ('A' for Active; 'I' for Inactive)
REMARK    1  A    between atoms: C_1  and  O_2
REMARK    2  A    between atoms: O_2  and  C_3
REMARK    3  A    between atoms: C_10  and  C_11
REMARK    4  A    between atoms: N_13  and  C_14
REMARK    5  A    between atoms: C_14  and  C_15
REMARK    6  A    between atoms: C_18  and  C_19
REMARK    7  A    between atoms: C_19  and  N_20
REMARK    8  A    between atoms: N_20  and  C_21
REMARK    9  A    between atoms: C_21  and  C_22
REMARK   10  A    between atoms: C_21  and  C_23
REMARK                            x       y       z     vdW  Elec       q    Type
REMARK                         _______ _______ _______ _____ _____    ______ ____
ROOT
ATOM      1  C   UNL     1      48.529   8.008  13.278  0.00  0.00    +0.000 A 
ATOM      2  C   UNL     1      49.175   6.940  13.916  0.00  0.00    +0.000 A 
ATOM      3  C   UNL     1      49.271   6.892  15.314  0.00  0.00    +0.000 A 
ATOM      4  C   UNL     1      48.714   7.903  16.111  0.00  0.00    +0.000 A 
ATOM      5  C   UNL     1      48.055   8.961  15.471  0.00  0.00    +0.000 A 
ATOM      6  C   UNL     1      47.961   9.012  14.074  0.00  0.00    +0.000 A 
ENDROOT
BRANCH   1   7
ATOM      7  C   UNL     1      48.418   8.052  11.771  0.00  0.00    +0.000 C 
BRANCH   7  10
ATOM      8  C   UNL     1      46.281   6.923  11.239  0.00  0.00    +0.000 C 
ATOM      9  O   UNL     1      45.619   7.881  11.642  0.00  0.00    +0.000 OA
ATOM     10  N   UNL     1      47.652   6.936  11.269  0.00  0.00    +0.000 N 
ATOM     11  H   UNL     1      48.169   6.135  10.947  0.00  0.00    +0.000 HD
BRANCH   8  19
ATOM     12  C   UNL     1      44.542   4.342  12.704  0.00  0.00    +0.000 A 
ATOM     13  N   UNL     1      43.817   3.250  13.013  0.00  0.00    +0.000 NA
ATOM     14  C   UNL     1      43.450   2.440  12.018  0.00  0.00    +0.000 A 
ATOM     15  N   UNL     1      43.734   2.580  10.727  0.00  0.00    +0.000 NA
ATOM     16  C   UNL     1      44.451   3.688  10.461  0.00  0.00    +0.000 A 
ATOM     17  S   UNL     1      44.905   4.031   8.862  0.00  0.00    +0.000 S 
ATOM     18  C   UNL     1      45.702   5.455   9.339  0.00  0.00    +0.000 A 
ATOM     19  C   UNL     1      45.634   5.707  10.706  0.00  0.00    +0.000 A 
ATOM     20  C   UNL     1      44.895   4.637  11.377  0.00  0.00    +0.000 A 
BRANCH  12  22
ATOM     21  C   UNL     1      46.202   4.956  14.234  0.00  0.00    +0.000 C 
ATOM     22  O   UNL     1      44.892   5.192  13.731  0.00  0.00    +0.000 OA
ENDBRANCH  12  22
ENDBRANCH   8  19
ENDBRANCH   7  10
ENDBRANCH   1   7
BRANCH   4  23
ATOM     23  C   UNL     1      48.779   7.842  17.626  0.00  0.00    +0.000 C 
BRANCH  23  24
ATOM     24  N   UNL     1      47.945   6.768  18.161  0.00  0.00    +0.000 NA
ATOM     25  H   UNL     1      47.521   6.273  17.375  0.00  0.00    +0.000 HD
BRANCH  24  26
ATOM     26  C   UNL     1      48.677   5.777  18.970  0.00  0.00    +0.000 C 
ATOM     27  C   UNL     1      47.984   5.460  20.305  0.00  0.00    +0.000 C 
BRANCH  26  28
ATOM     28  C   UNL     1      48.854   4.488  18.170  0.00  0.00    +0.000 A 
ATOM     29  C   UNL     1      47.797   3.943  17.427  0.00  0.00    +0.000 A 
ATOM     30  C   UNL     1      47.985   2.789  16.657  0.00  0.00    +0.000 A 
ATOM     31  C   UNL     1      49.226   2.157  16.629  0.00  0.00    +0.000 A 
ATOM     32  C   UNL     1      50.279   2.667  17.385  0.00  0.00    +0.000 A 
ATOM     33  C   UNL     1      50.093   3.820  18.151  0.00  0.00    +0.000 A 
ENDBRANCH  26  28
ENDBRANCH  24  26
ENDBRANCH  23  24
ENDBRANCH   4  23
TORSDOF 8
ENDMDL
MODEL 8
REMARK VINA RESULT:    -6.748      4.742      9.509
REMARK INTER + INTRA:         -11.466
REMARK INTER:                 -10.365
REMARK INTRA:                  -1.101
REMARK UNBOUND:                -1.562
REMARK  Name = 
REMARK  10 active torsions:
REMARK  status: ('A' for Active; 'I' for Inactive)
REMARK    1  A    between atoms: C_1  and  O_2
REMARK    2  A    between atoms: O_2  and  C_3
REMARK    3  A    between atoms: C_10  and  C_11
REMARK    4  A    between atoms: N_13  and  C_14
REMARK    5  A    between atoms: C_14  and  C_15
REMARK    6  A    between atoms: C_18  and  C_19
REMARK    7  A    between atoms: C_19  and  N_20
REMARK    8  A    between atoms: N_20  and  C_21
REMARK    9  A    between atoms: C_21  and  C_22
REMARK   10  A    between atoms: C_21  and  C_23
REMARK                            x       y       z     vdW  Elec       q    Type
REMARK                         _______ _______ _______ _____ _____    ______ ____
ROOT
ATOM      1  C   UNL     1      48.652   3.338  17.150  0.00  0.00    +0.000 A 
ATOM      2  C   UNL     1      49.339   4.470  17.612  0.00  0.00    +0.000 A 
ATOM      3  C   UNL     1      50.708   4.407  17.908  0.00  0.00    +0.000 A 
ATOM      4  C   UNL     1      51.429   3.216  17.738  0.00  0.00    +0.000 A 
ATOM      5  C   UNL     1      50.744   2.091  17.260  0.00  0.00    +0.000 A 
ATOM      6  C   UNL     1      49.375   2.152  16.968  0.00  0.00    +0.000 A 
ENDROOT
BRANCH   1   7
ATOM      7  C   UNL     1      47.178   3.412  16.821  0.00  0.00    +0.000 C 
BRANCH   7  10
ATOM      8  C   UNL     1      46.985   4.201  14.485  0.00  0.00    +0.000 C 
ATOM      9  O   UNL     1      47.285   3.095  14.035  0.00  0.00    +0.000 OA
ATOM     10  N   UNL     1      46.911   4.431  15.835  0.00  0.00    +0.000 N 
ATOM     11  H   UNL     1      46.677   5.348  16.177  0.00  0.00    +0.000 HD
BRANCH   8  19
ATOM     12  C   UNL     1      44.222   5.122  12.654  0.00  0.00    +0.000 A 
ATOM     13  N   UNL     1      43.288   5.714  11.884  0.00  0.00    +0.000 NA
ATOM     14  C   UNL     1      43.608   6.863  11.285  0.00  0.00    +0.000 A 
ATOM     15  N   UNL     1      44.772   7.502  11.350  0.00  0.00    +0.000 NA
ATOM     16  C   UNL     1      45.672   6.882  12.136  0.00  0.00    +0.000 A 
ATOM     17  S   UNL     1      47.217   7.556  12.339  0.00  0.00    +0.000 S 
ATOM     18  C   UNL     1      47.689   6.291  13.372  0.00  0.00    +0.000 A 
ATOM     19  C   UNL     1      46.694   5.344  13.594  0.00  0.00    +0.000 A 
ATOM     20  C   UNL     1      45.491   5.695  12.840  0.00  0.00    +0.000 A 
BRANCH  12  22
ATOM     21  C   UNL     1      43.659   2.865  12.403  0.00  0.00    +0.000 C 
ATOM     22  O   UNL     1      43.877   3.952  13.295  0.00  0.00    +0.000 OA
ENDBRANCH  12  22
ENDBRANCH   8  19
ENDBRANCH   7  10
ENDBRANCH   1   7
BRANCH   4  23
ATOM     23  C   UNL     1      52.919   3.148  18.019  0.00  0.00    +0.000 C 
BRANCH  23  24
ATOM     24  N   UNL     1      53.268   1.967  18.806  0.00  0.00    +0.000 NA
ATOM     25  H   UNL     1      52.688   1.189  18.485  0.00  0.00    +0.000 HD
BRANCH  24  26
ATOM     26  C   UNL     1      54.677   1.553  18.687  0.00  0.00    +0.000 C 
ATOM     27  C   UNL     1      55.424   1.566  20.031  0.00  0.00    +0.000 C 
BRANCH  26  28
ATOM     28  C   UNL     1      54.754   0.155  18.077  0.00  0.00    +0.000 A 
ATOM     29  C   UNL     1      54.905  -0.028  16.695  0.00  0.00    +0.000 A 
ATOM     30  C   UNL     1      55.026  -1.313  16.152  0.00  0.00    +0.000 A 
ATOM     31  C   UNL     1      54.985  -2.432  16.980  0.00  0.00    +0.000 A 
ATOM     32  C   UNL     1      54.806  -2.271  18.352  0.00  0.00    +0.000 A 
ATOM     33  C   UNL     1      54.688  -0.989  18.895  0.00  0.00    +0.000 A 
ENDBRANCH  26  28
ENDBRANCH  24  26
ENDBRANCH  23  24
ENDBRANCH   4  23
TORSDOF 8
ENDMDL
MODEL 9
REMARK VINA RESULT:    -6.673      3.587      9.021
REMARK INTER + INTRA:         -11.356
REMARK INTER:                  -9.040
REMARK INTRA:                  -2.316
REMARK UNBOUND:                -1.562
REMARK  Name = 
REMARK  10 active torsions:
REMARK  status: ('A' for Active; 'I' for Inactive)
REMARK    1  A    between atoms: C_1  and  O_2
REMARK    2  A    between atoms: O_2  and  C_3
REMARK    3  A    between atoms: C_10  and  C_11
REMARK    4  A    between atoms: N_13  and  C_14
REMARK    5  A    between atoms: C_14  and  C_15
REMARK    6  A    between atoms: C_18  and  C_19
REMARK    7  A    between atoms: C_19  and  N_20
REMARK    8  A    between atoms: N_20  and  C_21
REMARK    9  A    between atoms: C_21  and  C_22
REMARK   10  A    between atoms: C_21  and  C_23
REMARK                            x       y       z     vdW  Elec       q    Type
REMARK                         _______ _______ _______ _____ _____    ______ ____
ROOT
ATOM      1  C   UNL     1      48.740   3.619  17.727  0.00  0.00    +0.000 A 
ATOM      2  C   UNL     1      48.976   4.516  18.778  0.00  0.00    +0.000 A 
ATOM      3  C   UNL     1      50.267   4.690  19.297  0.00  0.00    +0.000 A 
ATOM      4  C   UNL     1      51.358   3.983  18.770  0.00  0.00    +0.000 A 
ATOM      5  C   UNL     1      51.121   3.098  17.709  0.00  0.00    +0.000 A 
ATOM      6  C   UNL     1      49.831   2.921  17.193  0.00  0.00    +0.000 A 
ENDROOT
BRANCH   1   7
ATOM      7  C   UNL     1      47.349   3.441  17.163  0.00  0.00    +0.000 C 
BRANCH   7  10
ATOM      8  C   UNL     1      47.115   4.243  14.835  0.00  0.00    +0.000 C 
ATOM      9  O   UNL     1      47.444   3.149  14.374  0.00  0.00    +0.000 OA
ATOM     10  N   UNL     1      47.045   4.460  16.187  0.00  0.00    +0.000 N 
ATOM     11  H   UNL     1      46.787   5.367  16.538  0.00  0.00    +0.000 HD
BRANCH   8  19
ATOM     12  C   UNL     1      44.473   4.916  12.737  0.00  0.00    +0.000 A 
ATOM     13  N   UNL     1      43.562   5.430  11.887  0.00  0.00    +0.000 NA
ATOM     14  C   UNL     1      43.802   6.635  11.366  0.00  0.00    +0.000 A 
ATOM     15  N   UNL     1      44.866   7.402  11.583  0.00  0.00    +0.000 NA
ATOM     16  C   UNL     1      45.745   6.856  12.443  0.00  0.00    +0.000 A 
ATOM     17  S   UNL     1      47.166   7.697  12.840  0.00  0.00    +0.000 S 
ATOM     18  C   UNL     1      47.675   6.449  13.877  0.00  0.00    +0.000 A 
ATOM     19  C   UNL     1      46.784   5.383  13.955  0.00  0.00    +0.000 A 
ATOM     20  C   UNL     1      45.636   5.625  13.083  0.00  0.00    +0.000 A 
BRANCH  12  22
ATOM     21  C   UNL     1      43.548   2.793  12.404  0.00  0.00    +0.000 C 
ATOM     22  O   UNL     1      44.206   3.685  13.296  0.00  0.00    +0.000 OA
ENDBRANCH  12  22
ENDBRANCH   8  19
ENDBRANCH   7  10
ENDBRANCH   1   7
BRANCH   4  23
ATOM     23  C   UNL     1      52.765   4.191  19.298  0.00  0.00    +0.000 C 
BRANCH  23  24
ATOM     24  N   UNL     1      53.059   5.607  19.510  0.00  0.00    +0.000 NA
ATOM     25  H   UNL     1      53.807   5.675  20.203  0.00  0.00    +0.000 HD
BRANCH  24  26
ATOM     26  C   UNL     1      53.503   6.322  18.301  0.00  0.00    +0.000 C 
ATOM     27  C   UNL     1      54.265   5.422  17.314  0.00  0.00    +0.000 C 
BRANCH  26  28
ATOM     28  C   UNL     1      52.298   6.942  17.597  0.00  0.00    +0.000 A 
ATOM     29  C   UNL     1      51.929   6.546  16.304  0.00  0.00    +0.000 A 
ATOM     30  C   UNL     1      50.792   7.083  15.688  0.00  0.00    +0.000 A 
ATOM     31  C   UNL     1      50.017   8.033  16.350  0.00  0.00    +0.000 A 
ATOM     32  C   UNL     1      50.385   8.459  17.623  0.00  0.00    +0.000 A 
ATOM     33  C   UNL     1      51.517   7.922  18.240  0.00  0.00    +0.000 A 
ENDBRANCH  26  28
ENDBRANCH  24  26
ENDBRANCH  23  24
ENDBRANCH   4  23
TORSDOF 8
ENDMDL
