MODEL 1
REMARK VINA RESULT:    -8.667      0.000      0.000
REMARK INTER + INTRA:         -14.204
REMARK INTER:                 -12.973
REMARK INTRA:                  -1.230
REMARK UNBOUND:                -1.230
REMARK  Name = 
REMARK  9 active torsions:
REMARK  status: ('A' for Active; 'I' for Inactive)
REMARK    1  A    between atoms: C_2  and  C_23
REMARK    2  A    between atoms: N_3  and  CA_4
REMARK    3  A    between atoms: CA_4  and  C_5
REMARK    4  A    between atoms: CA_4  and  C_7
REMARK    5  A    between atoms: C_5  and  O_6
REMARK    6  A    between atoms: C_10  and  C_11
REMARK    7  A    between atoms: C_11  and  N_12
REMARK    8  A    between atoms: N_12  and  C_13
REMARK    9  A    between atoms: C_13  and  C_14
REMARK                            x       y       z     vdW  Elec       q    Type
REMARK                         _______ _______ _______ _____ _____    ______ ____
ROOT
ATOM      1  CA  UNL     1      48.376   6.518  13.824  0.00  0.00    +0.000 C 
ENDROOT
BRANCH   1   2
ATOM      2  C   UNL     1      46.999   6.296  13.208  0.00  0.00    +0.000 A 
ATOM      3  C   UNL     1      46.647   7.003  12.047  0.00  0.00    +0.000 A 
ATOM      4  C   UNL     1      45.426   6.771  11.407  0.00  0.00    +0.000 A 
ATOM      5  C   UNL     1      44.524   5.825  11.902  0.00  0.00    +0.000 A 
ATOM      6  C   UNL     1      44.867   5.119  13.060  0.00  0.00    +0.000 A 
ATOM      7  C   UNL     1      46.092   5.344  13.698  0.00  0.00    +0.000 A 
BRANCH   5   8
ATOM      8  C   UNL     1      43.216   5.561  11.192  0.00  0.00    +0.000 C 
BRANCH   8   9
ATOM      9  N   UNL     1      43.441   4.883   9.918  0.00  0.00    +0.000 NA
ATOM     10  H   UNL     1      44.108   5.425   9.368  0.00  0.00    +0.000 HD
BRANCH   9  11
ATOM     11  C   UNL     1      43.954   3.531  10.111  0.00  0.00    +0.000 C 
BRANCH  11  12
ATOM     12  C   UNL     1      44.998   3.199   9.068  0.00  0.00    +0.000 A 
ATOM     13  C   UNL     1      45.593   4.219   8.309  0.00  0.00    +0.000 A 
ATOM     14  C   UNL     1      46.563   3.922   7.351  0.00  0.00    +0.000 A 
ATOM     15  C   UNL     1      46.952   2.596   7.141  0.00  0.00    +0.000 A 
ATOM     16  C   UNL     1      46.361   1.580   7.885  0.00  0.00    +0.000 A 
ATOM     17 CL   UNL     1      46.835  -0.055   7.626  0.00  0.00    +0.000 Cl
ATOM     18  C   UNL     1      45.386   1.874   8.843  0.00  0.00    +0.000 A 
ENDBRANCH  11  12
ENDBRANCH   9  11
ENDBRANCH   8   9
ENDBRANCH   5   8
ENDBRANCH   1   2
BRANCH   1  21
ATOM     19  O   UNL     1      50.312   6.224  15.897  0.00  0.00    +0.000 OA
ATOM     20  C   UNL     1      49.174   6.589  16.183  0.00  0.00    +0.000 C 
ATOM     21  N   UNL     1      48.214   6.827  15.236  0.00  0.00    +0.000 N 
ATOM     22  H   UNL     1      47.255   6.948  15.538  0.00  0.00    +0.000 HD
BRANCH  20  23
ATOM     23  C   UNL     1      48.781   6.865  17.572  0.00  0.00    +0.000 A 
ATOM     24  C   UNL     1      48.443   8.154  17.957  0.00  0.00    +0.000 A 
ATOM     25  S   UNL     1      47.948   8.271  19.586  0.00  0.00    +0.000 S 
ATOM     26  C   UNL     1      48.211   6.610  19.845  0.00  0.00    +0.000 A 
ATOM     27  N   UNL     1      47.970   6.041  21.058  0.00  0.00    +0.000 NA
ATOM     28  C   UNL     1      48.238   4.779  21.118  0.00  0.00    +0.000 A 
ATOM     29  N   UNL     1      48.734   4.036  20.080  0.00  0.00    +0.000 N 
ATOM     30  C   UNL     1      48.959   4.557  18.830  0.00  0.00    +0.000 A 
ATOM     31  O   UNL     1      49.342   3.844  17.908  0.00  0.00    +0.000 OA
ATOM     32  C   UNL     1      48.674   5.975  18.706  0.00  0.00    +0.000 A 
ATOM     33  H   UNL     1      48.913   3.049  20.187  0.00  0.00    +0.000 HD
ENDBRANCH  20  23
ENDBRANCH   1  21
BRANCH   1  34
ATOM     34  C   UNL     1      49.198   7.635  13.130  0.00  0.00    +0.000 C 
BRANCH  34  35
ATOM     35  O   UNL     1      50.202   7.117  12.251  0.00  0.00    +0.000 OA
ATOM     36  H   UNL     1      50.376   7.789  11.570  0.00  0.00    +0.000 HD
ENDBRANCH  34  35
ENDBRANCH   1  34
TORSDOF 9
ENDMDL
MODEL 2
REMARK VINA RESULT:    -8.591      1.410      2.336
REMARK INTER + INTRA:         -14.090
REMARK INTER:                 -12.339
REMARK INTRA:                  -1.750
REMARK UNBOUND:                -1.230
REMARK  Name = 
REMARK  9 active torsions:
REMARK  status: ('A' for Active; 'I' for Inactive)
REMARK    1  A    between atoms: C_2  and  C_23
REMARK    2  A    between atoms: N_3  and  CA_4
REMARK    3  A    between atoms: CA_4  and  C_5
REMARK    4  A    between atoms: CA_4  and  C_7
REMARK    5  A    between atoms: C_5  and  O_6
REMARK    6  A    between atoms: C_10  and  C_11
REMARK    7  A    between atoms: C_11  and  N_12
REMARK    8  A    between atoms: N_12  and  C_13
REMARK    9  A    between atoms: C_13  and  C_14
REMARK                            x       y       z     vdW  Elec       q    Type
REMARK                         _______ _______ _______ _____ _____    ______ ____
ROOT
ATOM      1  CA  UNL     1      48.569   6.608  13.715  0.00  0.00    +0.000 C 
ENDROOT
BRANCH   1   2
ATOM      2  C   UNL     1      47.267   6.293  12.987  0.00  0.00    +0.000 A 
ATOM      3  C   UNL     1      46.275   5.552  13.648  0.00  0.00    +0.000 A 
ATOM      4  C   UNL     1      45.038   5.309  13.045  0.00  0.00    +0.000 A 
ATOM      5  C   UNL     1      44.752   5.801  11.769  0.00  0.00    +0.000 A 
ATOM      6  C   UNL     1      45.736   6.538  11.102  0.00  0.00    +0.000 A 
ATOM      7  C   UNL     1      46.973   6.790  11.707  0.00  0.00    +0.000 A 
BRANCH   5   8
ATOM      8  C   UNL     1      43.403   5.557  11.131  0.00  0.00    +0.000 C 
BRANCH   8   9
ATOM      9  N   UNL     1      43.549   4.877   9.847  0.00  0.00    +0.000 NA
ATOM     10  H   UNL     1      44.244   5.371   9.287  0.00  0.00    +0.000 HD
BRANCH   9  11
ATOM     11  C   UNL     1      43.960   3.487  10.017  0.00  0.00    +0.000 C 
BRANCH  11  12
ATOM     12  C   UNL     1      45.012   3.110   8.999  0.00  0.00    +0.000 A 
ATOM     13  C   UNL     1      45.632   4.098   8.217  0.00  0.00    +0.000 A 
ATOM     14  C   UNL     1      46.610   3.760   7.283  0.00  0.00    +0.000 A 
ATOM     15  C   UNL     1      46.984   2.424   7.119  0.00  0.00    +0.000 A 
ATOM     16  C   UNL     1      46.369   1.438   7.885  0.00  0.00    +0.000 A 
ATOM     17 CL   UNL     1      46.825  -0.209   7.681  0.00  0.00    +0.000 Cl
ATOM     18  C   UNL     1      45.386   1.774   8.820  0.00  0.00    +0.000 A 
ENDBRANCH  11  12
ENDBRANCH   9  11
ENDBRANCH   8   9
ENDBRANCH   5   8
ENDBRANCH   1   2
BRANCH   1  21
ATOM     19  O   UNL     1      50.355   6.237  15.907  0.00  0.00    +0.000 OA
ATOM     20  C   UNL     1      49.181   6.520  16.128  0.00  0.00    +0.000 C 
ATOM     21  N   UNL     1      48.284   6.790  15.129  0.00  0.00    +0.000 N 
ATOM     22  H   UNL     1      47.300   6.838  15.362  0.00  0.00    +0.000 HD
BRANCH  20  23
ATOM     23  C   UNL     1      48.669   6.661  17.498  0.00  0.00    +0.000 A 
ATOM     24  C   UNL     1      48.602   5.555  18.334  0.00  0.00    +0.000 A 
ATOM     25  S   UNL     1      48.048   5.921  19.906  0.00  0.00    +0.000 S 
ATOM     26  C   UNL     1      47.836   7.562  19.511  0.00  0.00    +0.000 A 
ATOM     27  N   UNL     1      47.379   8.454  20.433  0.00  0.00    +0.000 NA
ATOM     28  C   UNL     1      47.242   9.658  19.989  0.00  0.00    +0.000 A 
ATOM     29  N   UNL     1      47.510  10.051  18.705  0.00  0.00    +0.000 N 
ATOM     30  C   UNL     1      48.004   9.198  17.750  0.00  0.00    +0.000 A 
ATOM     31  O   UNL     1      48.294   9.603  16.629  0.00  0.00    +0.000 OA
ATOM     32  C   UNL     1      48.179   7.828  18.197  0.00  0.00    +0.000 A 
ATOM     33  H   UNL     1      47.392  11.012  18.420  0.00  0.00    +0.000 HD
ENDBRANCH  20  23
ENDBRANCH   1  21
BRANCH   1  34
ATOM     34  C   UNL     1      49.309   7.853  13.161  0.00  0.00    +0.000 C 
BRANCH  34  35
ATOM     35  O   UNL     1      50.731   7.688  13.144  0.00  0.00    +0.000 OA
ATOM     36  H   UNL     1      51.034   7.817  12.230  0.00  0.00    +0.000 HD
ENDBRANCH  34  35
ENDBRANCH   1  34
TORSDOF 9
ENDMDL
MODEL 3
REMARK VINA RESULT:    -7.434      3.494      8.555
REMARK INTER + INTRA:         -12.358
REMARK INTER:                 -10.315
REMARK INTRA:                  -2.043
REMARK UNBOUND:                -1.230
REMARK  Name = 
REMARK  9 active torsions:
REMARK  status: ('A' for Active; 'I' for Inactive)
REMARK    1  A    between atoms: C_2  and  C_23
REMARK    2  A    between atoms: N_3  and  CA_4
REMARK    3  A    between atoms: CA_4  and  C_5
REMARK    4  A    between atoms: CA_4  and  C_7
REMARK    5  A    between atoms: C_5  and  O_6
REMARK    6  A    between atoms: C_10  and  C_11
REMARK    7  A    between atoms: C_11  and  N_12
REMARK    8  A    between atoms: N_12  and  C_13
REMARK    9  A    between atoms: C_13  and  C_14
REMARK                            x       y       z     vdW  Elec       q    Type
REMARK                         _______ _______ _______ _____ _____    ______ ____
ROOT
ATOM      1  CA  UNL     1      47.900   7.867  12.308  0.00  0.00    +0.000 C 
ENDROOT
BRANCH   1   2
ATOM      2  C   UNL     1      48.216   7.852  13.799  0.00  0.00    +0.000 A 
ATOM      3  C   UNL     1      48.926   6.767  14.337  0.00  0.00    +0.000 A 
ATOM      4  C   UNL     1      49.303   6.751  15.683  0.00  0.00    +0.000 A 
ATOM      5  C   UNL     1      48.990   7.819  16.529  0.00  0.00    +0.000 A 
ATOM      6  C   UNL     1      48.281   8.902  16.001  0.00  0.00    +0.000 A 
ATOM      7  C   UNL     1      47.909   8.924  14.652  0.00  0.00    +0.000 A 
BRANCH   5   8
ATOM      8  C   UNL     1      49.422   7.808  17.978  0.00  0.00    +0.000 C 
BRANCH   8   9
ATOM      9  N   UNL     1      48.309   7.450  18.852  0.00  0.00    +0.000 NA
ATOM     10  H   UNL     1      47.462   7.360  18.291  0.00  0.00    +0.000 HD
BRANCH   9  11
ATOM     11  C   UNL     1      48.560   6.198  19.558  0.00  0.00    +0.000 C 
BRANCH  11  12
ATOM     12  C   UNL     1      48.427   5.018  18.622  0.00  0.00    +0.000 A 
ATOM     13  C   UNL     1      47.218   4.775  17.951  0.00  0.00    +0.000 A 
ATOM     14  C   UNL     1      47.090   3.694  17.079  0.00  0.00    +0.000 A 
ATOM     15  C   UNL     1      48.175   2.839  16.865  0.00  0.00    +0.000 A 
ATOM     16  C   UNL     1      49.374   3.070  17.532  0.00  0.00    +0.000 A 
ATOM     17 CL   UNL     1      50.711   2.016  17.274  0.00  0.00    +0.000 Cl
ATOM     18  C   UNL     1      49.504   4.151  18.410  0.00  0.00    +0.000 A 
ENDBRANCH  11  12
ENDBRANCH   9  11
ENDBRANCH   8   9
ENDBRANCH   5   8
ENDBRANCH   1   2
BRANCH   1  21
ATOM     19  O   UNL     1      45.053   7.714  12.235  0.00  0.00    +0.000 OA
ATOM     20  C   UNL     1      45.716   6.698  12.047  0.00  0.00    +0.000 C 
ATOM     21  N   UNL     1      47.084   6.707  11.989  0.00  0.00    +0.000 N 
ATOM     22  H   UNL     1      47.576   5.821  12.013  0.00  0.00    +0.000 HD
BRANCH  20  23
ATOM     23  C   UNL     1      45.077   5.398  11.798  0.00  0.00    +0.000 A 
ATOM     24  C   UNL     1      44.381   4.758  12.813  0.00  0.00    +0.000 A 
ATOM     25  S   UNL     1      43.649   3.297  12.321  0.00  0.00    +0.000 S 
ATOM     26  C   UNL     1      44.274   3.447  10.746  0.00  0.00    +0.000 A 
ATOM     27  N   UNL     1      44.013   2.509   9.794  0.00  0.00    +0.000 NA
ATOM     28  C   UNL     1      44.571   2.738   8.653  0.00  0.00    +0.000 A 
ATOM     29  N   UNL     1      45.375   3.812   8.379  0.00  0.00    +0.000 N 
ATOM     30  C   UNL     1      45.639   4.800   9.294  0.00  0.00    +0.000 A 
ATOM     31  O   UNL     1      46.310   5.781   8.990  0.00  0.00    +0.000 OA
ATOM     32  C   UNL     1      45.034   4.593  10.597  0.00  0.00    +0.000 A 
ATOM     33  H   UNL     1      45.776   3.941   7.461  0.00  0.00    +0.000 HD
ENDBRANCH  20  23
ENDBRANCH   1  21
BRANCH   1  34
ATOM     34  C   UNL     1      49.159   7.892  11.403  0.00  0.00    +0.000 C 
BRANCH  34  35
ATOM     35  O   UNL     1      49.929   9.089  11.560  0.00  0.00    +0.000 OA
ATOM     36  H   UNL     1      50.319   9.076  12.450  0.00  0.00    +0.000 HD
ENDBRANCH  34  35
ENDBRANCH   1  34
TORSDOF 9
ENDMDL
MODEL 4
REMARK VINA RESULT:    -7.287      3.653      5.398
REMARK INTER + INTRA:         -12.138
REMARK INTER:                 -10.428
REMARK INTRA:                  -1.710
REMARK UNBOUND:                -1.230
REMARK  Name = 
REMARK  9 active torsions:
REMARK  status: ('A' for Active; 'I' for Inactive)
REMARK    1  A    between atoms: C_2  and  C_23
REMARK    2  A    between atoms: N_3  and  CA_4
REMARK    3  A    between atoms: CA_4  and  C_5
REMARK    4  A    between atoms: CA_4  and  C_7
REMARK    5  A    between atoms: C_5  and  O_6
REMARK    6  A    between atoms: C_10  and  C_11
REMARK    7  A    between atoms: C_11  and  N_12
REMARK    8  A    between atoms: N_12  and  C_13
REMARK    9  A    between atoms: C_13  and  C_14
REMARK                            x       y       z     vdW  Elec       q    Type
REMARK                         _______ _______ _______ _____ _____    ______ ____
ROOT
ATOM      1  CA  UNL     1      48.761   4.418  17.751  0.00  0.00    +0.000 C 
ENDROOT
BRANCH   1   2
ATOM      2  C   UNL     1      48.266   4.963  16.415  0.00  0.00    +0.000 A 
ATOM      3  C   UNL     1      48.791   6.171  15.932  0.00  0.00    +0.000 A 
ATOM      4  C   UNL     1      48.422   6.664  14.677  0.00  0.00    +0.000 A 
ATOM      5  C   UNL     1      47.523   5.965  13.866  0.00  0.00    +0.000 A 
ATOM      6  C   UNL     1      46.993   4.762  14.343  0.00  0.00    +0.000 A 
ATOM      7  C   UNL     1      47.368   4.262  15.595  0.00  0.00    +0.000 A 
BRANCH   5   8
ATOM      8  C   UNL     1      47.146   6.490  12.500  0.00  0.00    +0.000 C 
BRANCH   8   9
ATOM      9  N   UNL     1      45.901   7.251  12.559  0.00  0.00    +0.000 NA
ATOM     10  H   UNL     1      46.121   8.247  12.572  0.00  0.00    +0.000 HD
BRANCH   9  11
ATOM     11  C   UNL     1      45.037   6.958  11.421  0.00  0.00    +0.000 C 
BRANCH  11  12
ATOM     12  C   UNL     1      44.523   5.538  11.488  0.00  0.00    +0.000 A 
ATOM     13  C   UNL     1      43.819   5.089  12.617  0.00  0.00    +0.000 A 
ATOM     14  C   UNL     1      43.334   3.783  12.684  0.00  0.00    +0.000 A 
ATOM     15  C   UNL     1      43.545   2.906  11.617  0.00  0.00    +0.000 A 
ATOM     16  C   UNL     1      44.248   3.342  10.497  0.00  0.00    +0.000 A 
ATOM     17 CL   UNL     1      44.514   2.262   9.183  0.00  0.00    +0.000 Cl
ATOM     18  C   UNL     1      44.739   4.649  10.429  0.00  0.00    +0.000 A 
ENDBRANCH  11  12
ENDBRANCH   9  11
ENDBRANCH   8   9
ENDBRANCH   5   8
ENDBRANCH   1   2
BRANCH   1  21
ATOM     19  O   UNL     1      50.879   4.637  19.648  0.00  0.00    +0.000 OA
ATOM     20  C   UNL     1      51.115   4.183  18.532  0.00  0.00    +0.000 C 
ATOM     21  N   UNL     1      50.137   3.975  17.596  0.00  0.00    +0.000 N 
ATOM     22  H   UNL     1      50.414   3.772  16.643  0.00  0.00    +0.000 HD
BRANCH  20  23
ATOM     23  C   UNL     1      52.468   3.761  18.144  0.00  0.00    +0.000 A 
ATOM     24  C   UNL     1      53.514   4.672  18.161  0.00  0.00    +0.000 A 
ATOM     25  S   UNL     1      55.022   3.987  17.748  0.00  0.00    +0.000 S 
ATOM     26  C   UNL     1      54.321   2.459  17.488  0.00  0.00    +0.000 A 
ATOM     27  N   UNL     1      55.079   1.393  17.110  0.00  0.00    +0.000 NA
ATOM     28  C   UNL     1      54.412   0.303  16.925  0.00  0.00    +0.000 A 
ATOM     29  N   UNL     1      53.056   0.183  17.073  0.00  0.00    +0.000 N 
ATOM     30  C   UNL     1      52.256   1.218  17.486  0.00  0.00    +0.000 A 
ATOM     31  O   UNL     1      51.054   1.053  17.671  0.00  0.00    +0.000 OA
ATOM     32  C   UNL     1      52.955   2.470  17.710  0.00  0.00    +0.000 A 
ATOM     33  H   UNL     1      52.593  -0.702  16.923  0.00  0.00    +0.000 HD
ENDBRANCH  20  23
ENDBRANCH   1  21
BRANCH   1  34
ATOM     34  C   UNL     1      47.894   3.263  18.314  0.00  0.00    +0.000 C 
BRANCH  34  35
ATOM     35  O   UNL     1      48.250   2.908  19.655  0.00  0.00    +0.000 OA
ATOM     36  H   UNL     1      47.440   2.931  20.193  0.00  0.00    +0.000 HD
ENDBRANCH  34  35
ENDBRANCH   1  34
TORSDOF 9
ENDMDL
MODEL 5
REMARK VINA RESULT:    -7.207      2.455      3.314
REMARK INTER + INTRA:         -12.019
REMARK INTER:                 -10.624
REMARK INTRA:                  -1.395
REMARK UNBOUND:                -1.230
REMARK  Name = 
REMARK  9 active torsions:
REMARK  status: ('A' for Active; 'I' for Inactive)
REMARK    1  A    between atoms: C_2  and  C_23
REMARK    2  A    between atoms: N_3  and  CA_4
REMARK    3  A    between atoms: CA_4  and  C_5
REMARK    4  A    between atoms: CA_4  and  C_7
REMARK    5  A    between atoms: C_5  and  O_6
REMARK    6  A    between atoms: C_10  and  C_11
REMARK    7  A    between atoms: C_11  and  N_12
REMARK    8  A    between atoms: N_12  and  C_13
REMARK    9  A    between atoms: C_13  and  C_14
REMARK                            x       y       z     vdW  Elec       q    Type
REMARK                         _______ _______ _______ _____ _____    ______ ____
ROOT
ATOM      1  CA  UNL     1      47.378   4.455  15.664  0.00  0.00    +0.000 C 
ENDROOT
BRANCH   1   2
ATOM      2  C   UNL     1      46.902   4.901  14.286  0.00  0.00    +0.000 A 
ATOM      3  C   UNL     1      45.956   4.120  13.603  0.00  0.00    +0.000 A 
ATOM      4  C   UNL     1      45.436   4.534  12.373  0.00  0.00    +0.000 A 
ATOM      5  C   UNL     1      45.840   5.739  11.791  0.00  0.00    +0.000 A 
ATOM      6  C   UNL     1      46.784   6.521  12.464  0.00  0.00    +0.000 A 
ATOM      7  C   UNL     1      47.299   6.113  13.700  0.00  0.00    +0.000 A 
BRANCH   5   8
ATOM      8  C   UNL     1      45.256   6.193  10.472  0.00  0.00    +0.000 C 
BRANCH   8   9
ATOM      9  N   UNL     1      45.785   5.400   9.367  0.00  0.00    +0.000 NA
ATOM     10  H   UNL     1      46.666   4.975   9.655  0.00  0.00    +0.000 HD
BRANCH   9  11
ATOM     11  C   UNL     1      44.851   4.355   8.959  0.00  0.00    +0.000 C 
BRANCH  11  12
ATOM     12  C   UNL     1      45.581   3.219   8.279  0.00  0.00    +0.000 A 
ATOM     13  C   UNL     1      45.525   1.920   8.809  0.00  0.00    +0.000 A 
ATOM     14  C   UNL     1      46.187   0.864   8.183  0.00  0.00    +0.000 A 
ATOM     15  C   UNL     1      46.916   1.095   7.014  0.00  0.00    +0.000 A 
ATOM     16  C   UNL     1      46.982   2.381   6.487  0.00  0.00    +0.000 A 
ATOM     17 CL   UNL     1      47.884   2.668   5.048  0.00  0.00    +0.000 Cl
ATOM     18  C   UNL     1      46.323   3.442   7.114  0.00  0.00    +0.000 A 
ENDBRANCH  11  12
ENDBRANCH   9  11
ENDBRANCH   8   9
ENDBRANCH   5   8
ENDBRANCH   1   2
BRANCH   1  21
ATOM     19  O   UNL     1      47.678   5.725  18.199  0.00  0.00    +0.000 OA
ATOM     20  C   UNL     1      48.491   5.958  17.309  0.00  0.00    +0.000 C 
ATOM     21  N   UNL     1      48.458   5.328  16.093  0.00  0.00    +0.000 N 
ATOM     22  H   UNL     1      49.036   5.690  15.344  0.00  0.00    +0.000 HD
BRANCH  20  23
ATOM     23  C   UNL     1      49.610   6.889  17.513  0.00  0.00    +0.000 A 
ATOM     24  C   UNL     1      49.364   8.236  17.739  0.00  0.00    +0.000 A 
ATOM     25  S   UNL     1      50.778   9.149  18.023  0.00  0.00    +0.000 S 
ATOM     26  C   UNL     1      51.771   7.784  17.810  0.00  0.00    +0.000 A 
ATOM     27  N   UNL     1      53.124   7.874  17.927  0.00  0.00    +0.000 NA
ATOM     28  C   UNL     1      53.753   6.766  17.715  0.00  0.00    +0.000 A 
ATOM     29  N   UNL     1      53.154   5.579  17.388  0.00  0.00    +0.000 N 
ATOM     30  C   UNL     1      51.793   5.431  17.293  0.00  0.00    +0.000 A 
ATOM     31  O   UNL     1      51.292   4.335  17.062  0.00  0.00    +0.000 OA
ATOM     32  C   UNL     1      51.036   6.647  17.523  0.00  0.00    +0.000 A 
ATOM     33  H   UNL     1      53.701   4.743  17.244  0.00  0.00    +0.000 HD
ENDBRANCH  20  23
ENDBRANCH   1  21
BRANCH   1  34
ATOM     34  C   UNL     1      47.843   2.976  15.716  0.00  0.00    +0.000 C 
BRANCH  34  35
ATOM     35  O   UNL     1      49.022   2.795  16.507  0.00  0.00    +0.000 OA
ATOM     36  H   UNL     1      48.775   2.280  17.294  0.00  0.00    +0.000 HD
ENDBRANCH  34  35
ENDBRANCH   1  34
TORSDOF 9
ENDMDL
MODEL 6
REMARK VINA RESULT:    -7.073      3.353      4.676
REMARK INTER + INTRA:         -11.819
REMARK INTER:                 -10.461
REMARK INTRA:                  -1.358
REMARK UNBOUND:                -1.230
REMARK  Name = 
REMARK  9 active torsions:
REMARK  status: ('A' for Active; 'I' for Inactive)
REMARK    1  A    between atoms: C_2  and  C_23
REMARK    2  A    between atoms: N_3  and  CA_4
REMARK    3  A    between atoms: CA_4  and  C_5
REMARK    4  A    between atoms: CA_4  and  C_7
REMARK    5  A    between atoms: C_5  and  O_6
REMARK    6  A    between atoms: C_10  and  C_11
REMARK    7  A    between atoms: C_11  and  N_12
REMARK    8  A    between atoms: N_12  and  C_13
REMARK    9  A    between atoms: C_13  and  C_14
REMARK                            x       y       z     vdW  Elec       q    Type
REMARK                         _______ _______ _______ _____ _____    ______ ____
ROOT
ATOM      1  CA  UNL     1      48.219   4.365  17.097  0.00  0.00    +0.000 C 
ENDROOT
BRANCH   1   2
ATOM      2  C   UNL     1      47.902   4.931  15.717  0.00  0.00    +0.000 A 
ATOM      3  C   UNL     1      46.998   4.248  14.889  0.00  0.00    +0.000 A 
ATOM      4  C   UNL     1      46.621   4.774  13.649  0.00  0.00    +0.000 A 
ATOM      5  C   UNL     1      47.129   5.997  13.203  0.00  0.00    +0.000 A 
ATOM      6  C   UNL     1      48.033   6.682  14.022  0.00  0.00    +0.000 A 
ATOM      7  C   UNL     1      48.405   6.162  15.266  0.00  0.00    +0.000 A 
BRANCH   5   8
ATOM      8  C   UNL     1      46.699   6.573  11.873  0.00  0.00    +0.000 C 
BRANCH   8   9
ATOM      9  N   UNL     1      45.636   5.769  11.276  0.00  0.00    +0.000 NA
ATOM     10  H   UNL     1      44.736   6.095  11.628  0.00  0.00    +0.000 HD
BRANCH   9  11
ATOM     11  C   UNL     1      45.649   5.856   9.820  0.00  0.00    +0.000 C 
BRANCH  11  12
ATOM     12  C   UNL     1      45.576   4.479   9.199  0.00  0.00    +0.000 A 
ATOM     13  C   UNL     1      44.919   3.433   9.865  0.00  0.00    +0.000 A 
ATOM     14  C   UNL     1      44.839   2.162   9.295  0.00  0.00    +0.000 A 
ATOM     15  C   UNL     1      45.417   1.921   8.047  0.00  0.00    +0.000 A 
ATOM     16  C   UNL     1      46.077   2.951   7.384  0.00  0.00    +0.000 A 
ATOM     17 CL   UNL     1      46.794   2.656   5.847  0.00  0.00    +0.000 Cl
ATOM     18  C   UNL     1      46.162   4.225   7.954  0.00  0.00    +0.000 A 
ENDBRANCH  11  12
ENDBRANCH   9  11
ENDBRANCH   8   9
ENDBRANCH   5   8
ENDBRANCH   1   2
BRANCH   1  21
ATOM     19  O   UNL     1      49.989   4.633  19.316  0.00  0.00    +0.000 OA
ATOM     20  C   UNL     1      50.431   4.247  18.237  0.00  0.00    +0.000 C 
ATOM     21  N   UNL     1      49.630   4.019  17.149  0.00  0.00    +0.000 N 
ATOM     22  H   UNL     1      50.068   3.879  16.247  0.00  0.00    +0.000 HD
BRANCH  20  23
ATOM     23  C   UNL     1      51.855   3.931  18.057  0.00  0.00    +0.000 A 
ATOM     24  C   UNL     1      52.811   4.929  18.181  0.00  0.00    +0.000 A 
ATOM     25  S   UNL     1      54.412   4.365  18.008  0.00  0.00    +0.000 S 
ATOM     26  C   UNL     1      53.881   2.775  17.717  0.00  0.00    +0.000 A 
ATOM     27  N   UNL     1      54.768   1.768  17.491  0.00  0.00    +0.000 NA
ATOM     28  C   UNL     1      54.225   0.620  17.260  0.00  0.00    +0.000 A 
ATOM     29  N   UNL     1      52.876   0.388  17.225  0.00  0.00    +0.000 N 
ATOM     30  C   UNL     1      51.944   1.362  17.481  0.00  0.00    +0.000 A 
ATOM     31  O   UNL     1      50.746   1.100  17.505  0.00  0.00    +0.000 OA
ATOM     32  C   UNL     1      52.501   2.675  17.748  0.00  0.00    +0.000 A 
ATOM     33  H   UNL     1      52.512  -0.537  17.049  0.00  0.00    +0.000 HD
ENDBRANCH  20  23
ENDBRANCH   1  21
BRANCH   1  34
ATOM     34  C   UNL     1      47.359   3.132  17.478  0.00  0.00    +0.000 C 
BRANCH  34  35
ATOM     35  O   UNL     1      47.642   2.648  18.796  0.00  0.00    +0.000 OA
ATOM     36  H   UNL     1      48.199   1.856  18.707  0.00  0.00    +0.000 HD
ENDBRANCH  34  35
ENDBRANCH   1  34
TORSDOF 9
ENDMDL
MODEL 7
REMARK VINA RESULT:    -6.923      3.577      7.866
REMARK INTER + INTRA:         -11.594
REMARK INTER:                  -9.240
REMARK INTRA:                  -2.354
REMARK UNBOUND:                -1.230
REMARK  Name = 
REMARK  9 active torsions:
REMARK  status: ('A' for Active; 'I' for Inactive)
REMARK    1  A    between atoms: C_2  and  C_23
REMARK    2  A    between atoms: N_3  and  CA_4
REMARK    3  A    between atoms: CA_4  and  C_5
REMARK    4  A    between atoms: CA_4  and  C_7
REMARK    5  A    between atoms: C_5  and  O_6
REMARK    6  A    between atoms: C_10  and  C_11
REMARK    7  A    between atoms: C_11  and  N_12
REMARK    8  A    between atoms: N_12  and  C_13
REMARK    9  A    between atoms: C_13  and  C_14
REMARK                            x       y       z     vdW  Elec       q    Type
REMARK                         _______ _______ _______ _____ _____    ______ ____
ROOT
ATOM      1  CA  UNL     1      48.883   8.528  13.313  0.00  0.00    +0.000 C 
ENDROOT
BRANCH   1   2
ATOM      2  C   UNL     1      48.989   8.294  14.817  0.00  0.00    +0.000 A 
ATOM      3  C   UNL     1      49.832   7.278  15.293  0.00  0.00    +0.000 A 
ATOM      4  C   UNL     1      50.017   7.083  16.665  0.00  0.00    +0.000 A 
ATOM      5  C   UNL     1      49.371   7.896  17.600  0.00  0.00    +0.000 A 
ATOM      6  C   UNL     1      48.527   8.908  17.133  0.00  0.00    +0.000 A 
ATOM      7  C   UNL     1      48.347   9.112  15.760  0.00  0.00    +0.000 A 
BRANCH   5   8
ATOM      8  C   UNL     1      49.593   7.695  19.082  0.00  0.00    +0.000 C 
BRANCH   8   9
ATOM      9  N   UNL     1      48.452   7.021  19.694  0.00  0.00    +0.000 NA
ATOM     10  H   UNL     1      47.670   7.033  19.040  0.00  0.00    +0.000 HD
BRANCH   9  11
ATOM     11  C   UNL     1      48.769   5.642  20.050  0.00  0.00    +0.000 C 
BRANCH  11  12
ATOM     12  C   UNL     1      48.544   4.719  18.873  0.00  0.00    +0.000 A 
ATOM     13  C   UNL     1      47.350   4.782  18.138  0.00  0.00    +0.000 A 
ATOM     14  C   UNL     1      47.138   3.941  17.046  0.00  0.00    +0.000 A 
ATOM     15  C   UNL     1      48.123   3.023  16.673  0.00  0.00    +0.000 A 
ATOM     16  C   UNL     1      49.306   2.950  17.401  0.00  0.00    +0.000 A 
ATOM     17 CL   UNL     1      50.519   1.816  16.946  0.00  0.00    +0.000 Cl
ATOM     18  C   UNL     1      49.520   3.789  18.499  0.00  0.00    +0.000 A 
ENDBRANCH  11  12
ENDBRANCH   9  11
ENDBRANCH   8   9
ENDBRANCH   5   8
ENDBRANCH   1   2
BRANCH   1  21
ATOM     19  O   UNL     1      46.096   9.101  13.135  0.00  0.00    +0.000 OA
ATOM     20  C   UNL     1      46.506   7.995  12.794  0.00  0.00    +0.000 C 
ATOM     21  N   UNL     1      47.837   7.673  12.777  0.00  0.00    +0.000 N 
ATOM     22  H   UNL     1      48.099   6.701  12.663  0.00  0.00    +0.000 HD
BRANCH  20  23
ATOM     23  C   UNL     1      45.593   6.952  12.307  0.00  0.00    +0.000 A 
ATOM     24  C   UNL     1      44.486   7.295  11.544  0.00  0.00    +0.000 A 
ATOM     25  S   UNL     1      43.581   5.950  11.011  0.00  0.00    +0.000 S 
ATOM     26  C   UNL     1      44.611   4.864  11.820  0.00  0.00    +0.000 A 
ATOM     27  N   UNL     1      44.398   3.521  11.768  0.00  0.00    +0.000 NA
ATOM     28  C   UNL     1      45.241   2.819  12.448  0.00  0.00    +0.000 A 
ATOM     29  N   UNL     1      46.273   3.337  13.184  0.00  0.00    +0.000 N 
ATOM     30  C   UNL     1      46.549   4.681  13.240  0.00  0.00    +0.000 A 
ATOM     31  O   UNL     1      47.522   5.101  13.857  0.00  0.00    +0.000 OA
ATOM     32  C   UNL     1      45.630   5.518  12.490  0.00  0.00    +0.000 A 
ATOM     33  H   UNL     1      46.907   2.734  13.688  0.00  0.00    +0.000 HD
ENDBRANCH  20  23
ENDBRANCH   1  21
BRANCH   1  34
ATOM     34  C   UNL     1      50.210   8.282  12.549  0.00  0.00    +0.000 C 
BRANCH  34  35
ATOM     35  O   UNL     1      50.210   7.047  11.825  0.00  0.00    +0.000 OA
ATOM     36  H   UNL     1      50.356   6.329  12.464  0.00  0.00    +0.000 HD
ENDBRANCH  34  35
ENDBRANCH   1  34
TORSDOF 9
ENDMDL
MODEL 8
REMARK VINA RESULT:    -6.879      3.801      8.049
REMARK INTER + INTRA:         -11.527
REMARK INTER:                  -9.707
REMARK INTRA:                  -1.820
REMARK UNBOUND:                -1.230
REMARK  Name = 
REMARK  9 active torsions:
REMARK  status: ('A' for Active; 'I' for Inactive)
REMARK    1  A    between atoms: C_2  and  C_23
REMARK    2  A    between atoms: N_3  and  CA_4
REMARK    3  A    between atoms: CA_4  and  C_5
REMARK    4  A    between atoms: CA_4  and  C_7
REMARK    5  A    between atoms: C_5  and  O_6
REMARK    6  A    between atoms: C_10  and  C_11
REMARK    7  A    between atoms: C_11  and  N_12
REMARK    8  A    between atoms: N_12  and  C_13
REMARK    9  A    between atoms: C_13  and  C_14
REMARK                            x       y       z     vdW  Elec       q    Type
REMARK                         _______ _______ _______ _____ _____    ______ ____
ROOT
ATOM      1  CA  UNL     1      48.407   8.256  12.025  0.00  0.00    +0.000 C 
ENDROOT
BRANCH   1   2
ATOM      2  C   UNL     1      48.528   7.983  13.521  0.00  0.00    +0.000 A 
ATOM      3  C   UNL     1      48.318   9.034  14.427  0.00  0.00    +0.000 A 
ATOM      4  C   UNL     1      48.342   8.808  15.807  0.00  0.00    +0.000 A 
ATOM      5  C   UNL     1      48.571   7.529  16.321  0.00  0.00    +0.000 A 
ATOM      6  C   UNL     1      48.784   6.478  15.425  0.00  0.00    +0.000 A 
ATOM      7  C   UNL     1      48.752   6.699  14.043  0.00  0.00    +0.000 A 
BRANCH   5   8
ATOM      8  C   UNL     1      48.572   7.287  17.814  0.00  0.00    +0.000 C 
BRANCH   8   9
ATOM      9  N   UNL     1      47.386   6.538  18.221  0.00  0.00    +0.000 NA
ATOM     10  H   UNL     1      46.891   6.222  17.388  0.00  0.00    +0.000 HD
BRANCH   9  11
ATOM     11  C   UNL     1      47.734   5.387  19.047  0.00  0.00    +0.000 C 
BRANCH  11  12
ATOM     12  C   UNL     1      48.290   4.266  18.198  0.00  0.00    +0.000 A 
ATOM     13  C   UNL     1      47.469   3.599  17.275  0.00  0.00    +0.000 A 
ATOM     14  C   UNL     1      47.975   2.570  16.481  0.00  0.00    +0.000 A 
ATOM     15  C   UNL     1      49.315   2.194  16.600  0.00  0.00    +0.000 A 
ATOM     16  C   UNL     1      50.134   2.845  17.518  0.00  0.00    +0.000 A 
ATOM     17 CL   UNL     1      51.784   2.381  17.670  0.00  0.00    +0.000 Cl
ATOM     18  C   UNL     1      49.628   3.874  18.318  0.00  0.00    +0.000 A 
ENDBRANCH  11  12
ENDBRANCH   9  11
ENDBRANCH   8   9
ENDBRANCH   5   8
ENDBRANCH   1   2
BRANCH   1  21
ATOM     19  O   UNL     1      45.574   8.074  11.761  0.00  0.00    +0.000 OA
ATOM     20  C   UNL     1      46.275   7.136  11.389  0.00  0.00    +0.000 C 
ATOM     21  N   UNL     1      47.644   7.182  11.412  0.00  0.00    +0.000 N 
ATOM     22  H   UNL     1      48.159   6.322  11.266  0.00  0.00    +0.000 HD
BRANCH  20  23
ATOM     23  C   UNL     1      45.688   5.914  10.822  0.00  0.00    +0.000 A 
ATOM     24  C   UNL     1      45.898   5.594   9.489  0.00  0.00    +0.000 A 
ATOM     25  S   UNL     1      45.198   4.107   9.027  0.00  0.00    +0.000 S 
ATOM     26  C   UNL     1      44.552   3.862  10.582  0.00  0.00    +0.000 A 
ATOM     27  N   UNL     1      43.826   2.748  10.874  0.00  0.00    +0.000 NA
ATOM     28  C   UNL     1      43.377   2.706  12.084  0.00  0.00    +0.000 A 
ATOM     29  N   UNL     1      43.578   3.680  13.025  0.00  0.00    +0.000 N 
ATOM     30  C   UNL     1      44.331   4.803  12.788  0.00  0.00    +0.000 A 
ATOM     31  O   UNL     1      44.542   5.621  13.678  0.00  0.00    +0.000 OA
ATOM     32  C   UNL     1      44.862   4.901  11.441  0.00  0.00    +0.000 A 
ATOM     33  H   UNL     1      43.208   3.585  13.959  0.00  0.00    +0.000 HD
ENDBRANCH  20  23
ENDBRANCH   1  21
BRANCH   1  34
ATOM     34  C   UNL     1      49.773   8.410  11.307  0.00  0.00    +0.000 C 
BRANCH  34  35
ATOM     35  O   UNL     1      50.509   9.552  11.757  0.00  0.00    +0.000 OA
ATOM     36  H   UNL     1      51.454   9.368  11.625  0.00  0.00    +0.000 HD
ENDBRANCH  34  35
ENDBRANCH   1  34
TORSDOF 9
ENDMDL
MODEL 9
REMARK VINA RESULT:    -6.866      1.595      1.819
REMARK INTER + INTRA:         -11.508
REMARK INTER:                 -10.008
REMARK INTRA:                  -1.500
REMARK UNBOUND:                -1.230
REMARK  Name = 
REMARK  9 active torsions:
REMARK  status: ('A' for Active; 'I' for Inactive)
REMARK    1  A    between atoms: C_2  and  C_23
REMARK    2  A    between atoms: N_3  and  CA_4
REMARK    3  A    between atoms: CA_4  and  C_5
REMARK    4  A    between atoms: CA_4  and  C_7
REMARK    5  A    between atoms: C_5  and  O_6
REMARK    6  A    between atoms: C_10  and  C_11
REMARK    7  A    between atoms: C_11  and  N_12
REMARK    8  A    between atoms: N_12  and  C_13
REMARK    9  A    between atoms: C_13  and  C_14
REMARK                            x       y       z     vdW  Elec       q    Type
REMARK                         _______ _______ _______ _____ _____    ______ ____
ROOT
ATOM      1  CA  UNL     1      49.455   7.972  13.056  0.00  0.00    +0.000 C 
ENDROOT
BRANCH   1   2
ATOM      2  C   UNL     1      48.090   7.419  12.661  0.00  0.00    +0.000 A 
ATOM      3  C   UNL     1      47.813   7.185  11.304  0.00  0.00    +0.000 A 
ATOM      4  C   UNL     1      46.604   6.606  10.907  0.00  0.00    +0.000 A 
ATOM      5  C   UNL     1      45.640   6.238  11.849  0.00  0.00    +0.000 A 
ATOM      6  C   UNL     1      45.907   6.471  13.202  0.00  0.00    +0.000 A 
ATOM      7  C   UNL     1      47.120   7.042  13.603  0.00  0.00    +0.000 A 
BRANCH   5   8
ATOM      8  C   UNL     1      44.345   5.590  11.416  0.00  0.00    +0.000 C 
BRANCH   8   9
ATOM      9  N   UNL     1      44.428   5.132  10.031  0.00  0.00    +0.000 NA
ATOM     10  H   UNL     1      45.311   5.448   9.631  0.00  0.00    +0.000 HD
BRANCH   9  11
ATOM     11  C   UNL     1      44.343   3.679   9.939  0.00  0.00    +0.000 C 
BRANCH  11  12
ATOM     12  C   UNL     1      45.275   3.153   8.871  0.00  0.00    +0.000 A 
ATOM     13  C   UNL     1      45.901   4.036   7.977  0.00  0.00    +0.000 A 
ATOM     14  C   UNL     1      46.769   3.561   6.994  0.00  0.00    +0.000 A 
ATOM     15  C   UNL     1      47.024   2.191   6.893  0.00  0.00    +0.000 A 
ATOM     16  C   UNL     1      46.402   1.309   7.771  0.00  0.00    +0.000 A 
ATOM     17 CL   UNL     1      46.710  -0.380   7.647  0.00  0.00    +0.000 Cl
ATOM     18  C   UNL     1      45.528   1.782   8.755  0.00  0.00    +0.000 A 
ENDBRANCH  11  12
ENDBRANCH   9  11
ENDBRANCH   8   9
ENDBRANCH   5   8
ENDBRANCH   1   2
BRANCH   1  21
ATOM     19  O   UNL     1      51.825   7.699  14.617  0.00  0.00    +0.000 OA
ATOM     20  C   UNL     1      50.735   7.755  15.181  0.00  0.00    +0.000 C 
ATOM     21  N   UNL     1      49.563   7.964  14.506  0.00  0.00    +0.000 N 
ATOM     22  H   UNL     1      48.689   7.820  14.997  0.00  0.00    +0.000 HD
BRANCH  20  23
ATOM     23  C   UNL     1      50.622   7.671  16.644  0.00  0.00    +0.000 A 
ATOM     24  C   UNL     1      51.293   8.580  17.449  0.00  0.00    +0.000 A 
ATOM     25  S   UNL     1      50.988   8.371  19.115  0.00  0.00    +0.000 S 
ATOM     26  C   UNL     1      49.983   7.030  18.821  0.00  0.00    +0.000 A 
ATOM     27  N   UNL     1      49.378   6.367  19.845  0.00  0.00    +0.000 NA
ATOM     28  C   UNL     1      48.665   5.356  19.478  0.00  0.00    +0.000 A 
ATOM     29  N   UNL     1      48.509   4.939  18.183  0.00  0.00    +0.000 N 
ATOM     30  C   UNL     1      49.070   5.594  17.115  0.00  0.00    +0.000 A 
ATOM     31  O   UNL     1      48.854   5.228  15.965  0.00  0.00    +0.000 OA
ATOM     32  C   UNL     1      49.883   6.743  17.471  0.00  0.00    +0.000 A 
ATOM     33  H   UNL     1      47.929   4.144  17.959  0.00  0.00    +0.000 HD
ENDBRANCH  20  23
ENDBRANCH   1  21
BRANCH   1  34
ATOM     34  C   UNL     1      49.730   9.399  12.514  0.00  0.00    +0.000 C 
BRANCH  34  35
ATOM     35  O   UNL     1      48.975  10.405  13.198  0.00  0.00    +0.000 OA
ATOM     36  H   UNL     1      48.232   9.965  13.646  0.00  0.00    +0.000 HD
ENDBRANCH  34  35
ENDBRANCH   1  34
TORSDOF 9
ENDMDL
