MODEL 1
REMARK VINA RESULT:    -9.033      0.000      0.000
REMARK INTER + INTRA:         -12.423
REMARK INTER:                 -11.674
REMARK INTRA:                  -0.749
REMARK UNBOUND:                -0.749
REMARK  Name = 
REMARK  5 active torsions:
REMARK  status: ('A' for Active; 'I' for Inactive)
REMARK    1  A    between atoms: C_2  and  C_4
REMARK    2  A    between atoms: C_7  and  O_8
REMARK    3  A    between atoms: O_8  and  C_9
REMARK    4  A    between atoms: C_9  and  C_10
REMARK    5  A    between atoms: C_15  and  C_16
REMARK                            x       y       z     vdW  Elec       q    Type
REMARK                         _______ _______ _______ _____ _____    ______ ____
ROOT
ATOM      1  C   UNL     1      43.576   4.386  11.134  0.00  0.00    +0.000 C 
ENDROOT
BRANCH   1   2
ATOM      2  C   UNL     1      44.866   4.758  11.829  0.00  0.00    +0.000 A 
ATOM      3  C   UNL     1      45.457   3.852  12.717  0.00  0.00    +0.000 A 
ATOM      4  C   UNL     1      46.610   4.207  13.400  0.00  0.00    +0.000 A 
ATOM      5  F   UNL     1      47.174   3.332  14.243  0.00  0.00    +0.000 F 
ATOM      6  C   UNL     1      47.189   5.462  13.231  0.00  0.00    +0.000 A 
ATOM      7  C   UNL     1      46.620   6.403  12.358  0.00  0.00    +0.000 A 
ATOM      8  C   UNL     1      45.448   6.026  11.670  0.00  0.00    +0.000 A 
BRANCH   7   9
ATOM      9  C   UNL     1      47.224   7.739  12.163  0.00  0.00    +0.000 A 
ATOM     10  C   UNL     1      48.555   7.903  11.757  0.00  0.00    +0.000 A 
ATOM     11  C   UNL     1      49.095   9.177  11.584  0.00  0.00    +0.000 A 
ATOM     12  C   UNL     1      48.279  10.271  11.812  0.00  0.00    +0.000 A 
ATOM     13  N   UNL     1      46.995  10.175  12.201  0.00  0.00    +0.000 NA
ATOM     14  C   UNL     1      46.505   8.920  12.368  0.00  0.00    +0.000 A 
ENDBRANCH   7   9
ENDBRANCH   1   2
BRANCH   1  15
ATOM     15  O   UNL     1      43.613   4.709   9.738  0.00  0.00    +0.000 OA
BRANCH  15  19
ATOM     16  C   UNL     1      46.412   2.458   7.726  0.00  0.00    +0.000 A 
ATOM     17  C   UNL     1      45.540   1.830   8.618  0.00  0.00    +0.000 A 
ATOM     18  C   UNL     1      44.599   2.600   9.305  0.00  0.00    +0.000 A 
ATOM     19  C   UNL     1      44.568   3.966   9.073  0.00  0.00    +0.000 A 
ATOM     20  N   UNL     1      45.416   4.596   8.231  0.00  0.00    +0.000 NA
ATOM     21  C   UNL     1      46.326   3.832   7.584  0.00  0.00    +0.000 A 
BRANCH  16  23
ATOM     22  N   UNL     1      48.491   2.452   6.479  0.00  0.00    +0.000 N 
ATOM     23  C   UNL     1      47.421   1.732   6.931  0.00  0.00    +0.000 C 
ATOM     24  O   UNL     1      47.332   0.529   6.726  0.00  0.00    +0.000 OA
ATOM     25  H   UNL     1      49.234   1.926   6.041  0.00  0.00    +0.000 HD
ATOM     26  H   UNL     1      48.725   3.362   6.856  0.00  0.00    +0.000 HD
ENDBRANCH  16  23
ENDBRANCH  15  19
ENDBRANCH   1  15
TORSDOF 5
ENDMDL
MODEL 2
REMARK VINA RESULT:    -8.261      1.754      2.162
REMARK INTER + INTRA:         -11.425
REMARK INTER:                 -10.587
REMARK INTRA:                  -0.838
REMARK UNBOUND:                -0.749
REMARK  Name = 
REMARK  5 active torsions:
REMARK  status: ('A' for Active; 'I' for Inactive)
REMARK    1  A    between atoms: C_2  and  C_4
REMARK    2  A    between atoms: C_7  and  O_8
REMARK    3  A    between atoms: O_8  and  C_9
REMARK    4  A    between atoms: C_9  and  C_10
REMARK    5  A    between atoms: C_15  and  C_16
REMARK                            x       y       z     vdW  Elec       q    Type
REMARK                         _______ _______ _______ _____ _____    ______ ____
ROOT
ATOM      1  C   UNL     1      44.164   3.904  11.526  0.00  0.00    +0.000 C 
ENDROOT
BRANCH   1   2
ATOM      2  C   UNL     1      44.968   5.107  11.966  0.00  0.00    +0.000 A 
ATOM      3  C   UNL     1      46.067   4.930  12.815  0.00  0.00    +0.000 A 
ATOM      4  C   UNL     1      46.775   6.032  13.266  0.00  0.00    +0.000 A 
ATOM      5  F   UNL     1      47.830   5.855  14.073  0.00  0.00    +0.000 F 
ATOM      6  C   UNL     1      46.406   7.324  12.901  0.00  0.00    +0.000 A 
ATOM      7  C   UNL     1      45.303   7.544  12.059  0.00  0.00    +0.000 A 
ATOM      8  C   UNL     1      44.593   6.412  11.609  0.00  0.00    +0.000 A 
BRANCH   7   9
ATOM      9  C   UNL     1      44.900   8.909  11.659  0.00  0.00    +0.000 A 
ATOM     10  C   UNL     1      45.680  10.034  11.955  0.00  0.00    +0.000 A 
ATOM     11  C   UNL     1      45.270  11.309  11.563  0.00  0.00    +0.000 A 
ATOM     12  C   UNL     1      44.081  11.430  10.866  0.00  0.00    +0.000 A 
ATOM     13  N   UNL     1      43.293  10.386  10.551  0.00  0.00    +0.000 NA
ATOM     14  C   UNL     1      43.718   9.162  10.956  0.00  0.00    +0.000 A 
ENDBRANCH   7   9
ENDBRANCH   1   2
BRANCH   1  15
ATOM     15  O   UNL     1      43.712   4.033  10.173  0.00  0.00    +0.000 OA
BRANCH  15  19
ATOM     16  C   UNL     1      46.497   2.643   7.477  0.00  0.00    +0.000 A 
ATOM     17  C   UNL     1      45.906   1.751   8.374  0.00  0.00    +0.000 A 
ATOM     18  C   UNL     1      44.969   2.229   9.292  0.00  0.00    +0.000 A 
ATOM     19  C   UNL     1      44.662   3.581   9.278  0.00  0.00    +0.000 A 
ATOM     20  N   UNL     1      45.238   4.465   8.434  0.00  0.00    +0.000 NA
ATOM     21  C   UNL     1      46.150   3.981   7.560  0.00  0.00    +0.000 A 
BRANCH  16  23
ATOM     22  N   UNL     1      47.502   2.962   5.294  0.00  0.00    +0.000 N 
ATOM     23  C   UNL     1      47.475   2.234   6.450  0.00  0.00    +0.000 C 
ATOM     24  O   UNL     1      48.260   1.316   6.643  0.00  0.00    +0.000 OA
ATOM     25  H   UNL     1      48.252   2.753   4.649  0.00  0.00    +0.000 HD
ATOM     26  H   UNL     1      47.066   3.873   5.221  0.00  0.00    +0.000 HD
ENDBRANCH  16  23
ENDBRANCH  15  19
ENDBRANCH   1  15
TORSDOF 5
ENDMDL
MODEL 3
REMARK VINA RESULT:    -8.176      2.289      2.822
REMARK INTER + INTRA:         -11.315
REMARK INTER:                 -10.560
REMARK INTRA:                  -0.755
REMARK UNBOUND:                -0.749
REMARK  Name = 
REMARK  5 active torsions:
REMARK  status: ('A' for Active; 'I' for Inactive)
REMARK    1  A    between atoms: C_2  and  C_4
REMARK    2  A    between atoms: C_7  and  O_8
REMARK    3  A    between atoms: O_8  and  C_9
REMARK    4  A    between atoms: C_9  and  C_10
REMARK    5  A    between atoms: C_15  and  C_16
REMARK                            x       y       z     vdW  Elec       q    Type
REMARK                         _______ _______ _______ _____ _____    ______ ____
ROOT
ATOM      1  C   UNL     1      44.138   3.792  11.586  0.00  0.00    +0.000 C 
ENDROOT
BRANCH   1   2
ATOM      2  C   UNL     1      44.631   5.200  11.831  0.00  0.00    +0.000 A 
ATOM      3  C   UNL     1      43.895   6.284  11.340  0.00  0.00    +0.000 A 
ATOM      4  C   UNL     1      44.369   7.575  11.513  0.00  0.00    +0.000 A 
ATOM      5  F   UNL     1      43.656   8.608  11.046  0.00  0.00    +0.000 F 
ATOM      6  C   UNL     1      45.579   7.817  12.158  0.00  0.00    +0.000 A 
ATOM      7  C   UNL     1      46.353   6.756  12.655  0.00  0.00    +0.000 A 
ATOM      8  C   UNL     1      45.856   5.449  12.472  0.00  0.00    +0.000 A 
BRANCH   7   9
ATOM      9  C   UNL     1      47.638   6.996  13.346  0.00  0.00    +0.000 A 
ATOM     10  C   UNL     1      48.520   8.009  12.948  0.00  0.00    +0.000 A 
ATOM     11  C   UNL     1      49.725   8.209  13.621  0.00  0.00    +0.000 A 
ATOM     12  C   UNL     1      50.019   7.389  14.697  0.00  0.00    +0.000 A 
ATOM     13  N   UNL     1      49.210   6.404  15.125  0.00  0.00    +0.000 NA
ATOM     14  C   UNL     1      48.050   6.231  14.441  0.00  0.00    +0.000 A 
ENDBRANCH   7   9
ENDBRANCH   1   2
BRANCH   1  15
ATOM     15  O   UNL     1      43.579   3.645  10.275  0.00  0.00    +0.000 OA
BRANCH  15  19
ATOM     16  C   UNL     1      46.499   2.639   7.552  0.00  0.00    +0.000 A 
ATOM     17  C   UNL     1      46.061   3.963   7.630  0.00  0.00    +0.000 A 
ATOM     18  C   UNL     1      45.064   4.296   8.549  0.00  0.00    +0.000 A 
ATOM     19  C   UNL     1      44.544   3.293   9.351  0.00  0.00    +0.000 A 
ATOM     20  N   UNL     1      44.937   2.003   9.277  0.00  0.00    +0.000 NA
ATOM     21  C   UNL     1      45.897   1.701   8.374  0.00  0.00    +0.000 A 
BRANCH  16  23
ATOM     22  N   UNL     1      47.743   2.910   5.489  0.00  0.00    +0.000 N 
ATOM     23  C   UNL     1      47.566   2.189   6.637  0.00  0.00    +0.000 C 
ATOM     24  O   UNL     1      48.292   1.245   6.914  0.00  0.00    +0.000 OA
ATOM     25  H   UNL     1      48.549   2.670   4.929  0.00  0.00    +0.000 HD
ATOM     26  H   UNL     1      47.351   3.835   5.368  0.00  0.00    +0.000 HD
ENDBRANCH  16  23
ENDBRANCH  15  19
ENDBRANCH   1  15
TORSDOF 5
ENDMDL
MODEL 4
REMARK VINA RESULT:    -7.738      2.874      6.982
REMARK INTER + INTRA:         -10.749
REMARK INTER:                 -10.000
REMARK INTRA:                  -0.749
REMARK UNBOUND:                -0.749
REMARK  Name = 
REMARK  5 active torsions:
REMARK  status: ('A' for Active; 'I' for Inactive)
REMARK    1  A    between atoms: C_2  and  C_4
REMARK    2  A    between atoms: C_7  and  O_8
REMARK    3  A    between atoms: O_8  and  C_9
REMARK    4  A    between atoms: C_9  and  C_10
REMARK    5  A    between atoms: C_15  and  C_16
REMARK                            x       y       z     vdW  Elec       q    Type
REMARK                         _______ _______ _______ _____ _____    ______ ____
ROOT
ATOM      1  C   UNL     1      44.547   6.618  10.988  0.00  0.00    +0.000 C 
ENDROOT
BRANCH   1   2
ATOM      2  C   UNL     1      44.479   5.167  10.571  0.00  0.00    +0.000 A 
ATOM      3  C   UNL     1      43.706   4.269  11.317  0.00  0.00    +0.000 A 
ATOM      4  C   UNL     1      43.683   2.927  10.974  0.00  0.00    +0.000 A 
ATOM      5  F   UNL     1      42.935   2.075  11.689  0.00  0.00    +0.000 F 
ATOM      6  C   UNL     1      44.428   2.445   9.901  0.00  0.00    +0.000 A 
ATOM      7  C   UNL     1      45.225   3.311   9.134  0.00  0.00    +0.000 A 
ATOM      8  C   UNL     1      45.238   4.674   9.497  0.00  0.00    +0.000 A 
BRANCH   7   9
ATOM      9  C   UNL     1      46.020   2.816   7.990  0.00  0.00    +0.000 A 
ATOM     10  C   UNL     1      46.314   3.622   6.882  0.00  0.00    +0.000 A 
ATOM     11  C   UNL     1      47.066   3.124   5.819  0.00  0.00    +0.000 A 
ATOM     12  C   UNL     1      47.522   1.820   5.892  0.00  0.00    +0.000 A 
ATOM     13  N   UNL     1      47.273   1.001   6.931  0.00  0.00    +0.000 NA
ATOM     14  C   UNL     1      46.531   1.516   7.944  0.00  0.00    +0.000 A 
ENDBRANCH   7   9
ENDBRANCH   1   2
BRANCH   1  15
ATOM     15  O   UNL     1      44.541   6.762  12.414  0.00  0.00    +0.000 OA
BRANCH  15  19
ATOM     16  C   UNL     1      48.337   7.165  13.955  0.00  0.00    +0.000 A 
ATOM     17  C   UNL     1      47.696   8.280  13.410  0.00  0.00    +0.000 A 
ATOM     18  C   UNL     1      46.412   8.135  12.880  0.00  0.00    +0.000 A 
ATOM     19  C   UNL     1      45.822   6.882  12.915  0.00  0.00    +0.000 A 
ATOM     20  N   UNL     1      46.433   5.786  13.417  0.00  0.00    +0.000 NA
ATOM     21  C   UNL     1      47.679   5.948  13.916  0.00  0.00    +0.000 A 
BRANCH  16  23
ATOM     22  N   UNL     1      50.550   8.149  14.069  0.00  0.00    +0.000 N 
ATOM     23  C   UNL     1      49.681   7.219  14.564  0.00  0.00    +0.000 C 
ATOM     24  O   UNL     1      49.987   6.497  15.503  0.00  0.00    +0.000 OA
ATOM     25  H   UNL     1      51.421   8.261  14.569  0.00  0.00    +0.000 HD
ATOM     26  H   UNL     1      50.241   8.924  13.495  0.00  0.00    +0.000 HD
ENDBRANCH  16  23
ENDBRANCH  15  19
ENDBRANCH   1  15
TORSDOF 5
ENDMDL
MODEL 5
REMARK VINA RESULT:    -7.238      4.665      8.065
REMARK INTER + INTRA:         -10.103
REMARK INTER:                  -9.536
REMARK INTRA:                  -0.568
REMARK UNBOUND:                -0.749
REMARK  Name = 
REMARK  5 active torsions:
REMARK  status: ('A' for Active; 'I' for Inactive)
REMARK    1  A    between atoms: C_2  and  C_4
REMARK    2  A    between atoms: C_7  and  O_8
REMARK    3  A    between atoms: O_8  and  C_9
REMARK    4  A    between atoms: C_9  and  C_10
REMARK    5  A    between atoms: C_15  and  C_16
REMARK                            x       y       z     vdW  Elec       q    Type
REMARK                         _______ _______ _______ _____ _____    ______ ____
ROOT
ATOM      1  C   UNL     1      45.985   5.475  13.952  0.00  0.00    +0.000 C 
ENDROOT
BRANCH   1   2
ATOM      2  C   UNL     1      45.120   5.231  12.736  0.00  0.00    +0.000 A 
ATOM      3  C   UNL     1      43.771   5.604  12.762  0.00  0.00    +0.000 A 
ATOM      4  C   UNL     1      42.959   5.334  11.672  0.00  0.00    +0.000 A 
ATOM      5  F   UNL     1      41.671   5.700  11.701  0.00  0.00    +0.000 F 
ATOM      6  C   UNL     1      43.458   4.681  10.548  0.00  0.00    +0.000 A 
ATOM      7  C   UNL     1      44.802   4.280  10.487  0.00  0.00    +0.000 A 
ATOM      8  C   UNL     1      45.615   4.563  11.604  0.00  0.00    +0.000 A 
BRANCH   7   9
ATOM      9  C   UNL     1      45.348   3.589   9.299  0.00  0.00    +0.000 A 
ATOM     10  C   UNL     1      45.827   4.289   8.184  0.00  0.00    +0.000 A 
ATOM     11  C   UNL     1      46.335   3.607   7.079  0.00  0.00    +0.000 A 
ATOM     12  C   UNL     1      46.363   2.224   7.118  0.00  0.00    +0.000 A 
ATOM     13  N   UNL     1      45.920   1.499   8.162  0.00  0.00    +0.000 NA
ATOM     14  C   UNL     1      45.424   2.196   9.216  0.00  0.00    +0.000 A 
ENDBRANCH   7   9
ENDBRANCH   1   2
BRANCH   1  15
ATOM     15  O   UNL     1      46.882   4.384  14.193  0.00  0.00    +0.000 OA
BRANCH  15  19
ATOM     16  C   UNL     1      48.390   4.578  18.020  0.00  0.00    +0.000 A 
ATOM     17  C   UNL     1      48.722   5.575  17.100  0.00  0.00    +0.000 A 
ATOM     18  C   UNL     1      48.216   5.499  15.801  0.00  0.00    +0.000 A 
ATOM     19  C   UNL     1      47.399   4.429  15.473  0.00  0.00    +0.000 A 
ATOM     20  N   UNL     1      47.082   3.442  16.341  0.00  0.00    +0.000 NA
ATOM     21  C   UNL     1      47.592   3.531  17.590  0.00  0.00    +0.000 A 
BRANCH  16  23
ATOM     22  N   UNL     1      48.378   3.585  20.232  0.00  0.00    +0.000 N 
ATOM     23  C   UNL     1      48.849   4.581  19.423  0.00  0.00    +0.000 C 
ATOM     24  O   UNL     1      49.651   5.408  19.832  0.00  0.00    +0.000 OA
ATOM     25  H   UNL     1      48.789   3.523  21.153  0.00  0.00    +0.000 HD
ATOM     26  H   UNL     1      47.942   2.750  19.860  0.00  0.00    +0.000 HD
ENDBRANCH  16  23
ENDBRANCH  15  19
ENDBRANCH   1  15
TORSDOF 5
ENDMDL
MODEL 6
REMARK VINA RESULT:    -7.053      5.423      7.861
REMARK INTER + INTRA:          -9.864
REMARK INTER:                  -9.083
REMARK INTRA:                  -0.780
REMARK UNBOUND:                -0.749
REMARK  Name = 
REMARK  5 active torsions:
REMARK  status: ('A' for Active; 'I' for Inactive)
REMARK    1  A    between atoms: C_2  and  C_4
REMARK    2  A    between atoms: C_7  and  O_8
REMARK    3  A    between atoms: O_8  and  C_9
REMARK    4  A    between atoms: C_9  and  C_10
REMARK    5  A    between atoms: C_15  and  C_16
REMARK                            x       y       z     vdW  Elec       q    Type
REMARK                         _______ _______ _______ _____ _____    ______ ____
ROOT
ATOM      1  C   UNL     1      48.727   6.475  15.880  0.00  0.00    +0.000 C 
ENDROOT
BRANCH   1   2
ATOM      2  C   UNL     1      48.272   6.513  14.439  0.00  0.00    +0.000 A 
ATOM      3  C   UNL     1      48.920   7.360  13.532  0.00  0.00    +0.000 A 
ATOM      4  C   UNL     1      48.472   7.442  12.223  0.00  0.00    +0.000 A 
ATOM      5  F   UNL     1      49.102   8.249  11.359  0.00  0.00    +0.000 F 
ATOM      6  C   UNL     1      47.375   6.702  11.790  0.00  0.00    +0.000 A 
ATOM      7  C   UNL     1      46.691   5.849  12.671  0.00  0.00    +0.000 A 
ATOM      8  C   UNL     1      47.159   5.778  13.999  0.00  0.00    +0.000 A 
BRANCH   7   9
ATOM      9  C   UNL     1      45.526   5.054  12.226  0.00  0.00    +0.000 A 
ATOM     10  C   UNL     1      44.908   5.267  10.987  0.00  0.00    +0.000 A 
ATOM     11  C   UNL     1      43.810   4.500  10.598  0.00  0.00    +0.000 A 
ATOM     12  C   UNL     1      43.357   3.518  11.462  0.00  0.00    +0.000 A 
ATOM     13  N   UNL     1      43.912   3.268  12.661  0.00  0.00    +0.000 NA
ATOM     14  C   UNL     1      44.972   4.039  13.012  0.00  0.00    +0.000 A 
ENDBRANCH   7   9
ENDBRANCH   1   2
BRANCH   1  15
ATOM     15  O   UNL     1      48.132   5.387  16.597  0.00  0.00    +0.000 OA
BRANCH  15  19
ATOM     16  C   UNL     1      50.889   2.431  17.380  0.00  0.00    +0.000 A 
ATOM     17  C   UNL     1      49.593   2.076  16.997  0.00  0.00    +0.000 A 
ATOM     18  C   UNL     1      48.660   3.083  16.742  0.00  0.00    +0.000 A 
ATOM     19  C   UNL     1      49.058   4.403  16.881  0.00  0.00    +0.000 A 
ATOM     20  N   UNL     1      50.300   4.768  17.271  0.00  0.00    +0.000 NA
ATOM     21  C   UNL     1      51.184   3.776  17.522  0.00  0.00    +0.000 A 
BRANCH  16  23
ATOM     22  N   UNL     1      51.568   0.223  18.116  0.00  0.00    +0.000 N 
ATOM     23  C   UNL     1      51.956   1.446  17.644  0.00  0.00    +0.000 C 
ATOM     24  O   UNL     1      53.129   1.693  17.406  0.00  0.00    +0.000 OA
ATOM     25  H   UNL     1      52.288  -0.482  18.180  0.00  0.00    +0.000 HD
ATOM     26  H   UNL     1      50.609  -0.095  18.063  0.00  0.00    +0.000 HD
ENDBRANCH  16  23
ENDBRANCH  15  19
ENDBRANCH   1  15
TORSDOF 5
ENDMDL
MODEL 7
REMARK VINA RESULT:    -6.665      2.764      6.945
REMARK INTER + INTRA:          -9.363
REMARK INTER:                  -8.674
REMARK INTRA:                  -0.688
REMARK UNBOUND:                -0.749
REMARK  Name = 
REMARK  5 active torsions:
REMARK  status: ('A' for Active; 'I' for Inactive)
REMARK    1  A    between atoms: C_2  and  C_4
REMARK    2  A    between atoms: C_7  and  O_8
REMARK    3  A    between atoms: O_8  and  C_9
REMARK    4  A    between atoms: C_9  and  C_10
REMARK    5  A    between atoms: C_15  and  C_16
REMARK                            x       y       z     vdW  Elec       q    Type
REMARK                         _______ _______ _______ _____ _____    ______ ____
ROOT
ATOM      1  C   UNL     1      46.071   5.069  14.017  0.00  0.00    +0.000 C 
ENDROOT
BRANCH   1   2
ATOM      2  C   UNL     1      45.209   4.924  12.784  0.00  0.00    +0.000 A 
ATOM      3  C   UNL     1      43.873   5.343  12.822  0.00  0.00    +0.000 A 
ATOM      4  C   UNL     1      43.062   5.163  11.713  0.00  0.00    +0.000 A 
ATOM      5  F   UNL     1      41.787   5.573  11.754  0.00  0.00    +0.000 F 
ATOM      6  C   UNL     1      43.546   4.557  10.557  0.00  0.00    +0.000 A 
ATOM      7  C   UNL     1      44.877   4.113  10.483  0.00  0.00    +0.000 A 
ATOM      8  C   UNL     1      45.689   4.304  11.619  0.00  0.00    +0.000 A 
BRANCH   7   9
ATOM      9  C   UNL     1      45.408   3.471   9.262  0.00  0.00    +0.000 A 
ATOM     10  C   UNL     1      45.846   4.215   8.158  0.00  0.00    +0.000 A 
ATOM     11  C   UNL     1      46.341   3.578   7.021  0.00  0.00    +0.000 A 
ATOM     12  C   UNL     1      46.398   2.195   7.016  0.00  0.00    +0.000 A 
ATOM     13  N   UNL     1      45.994   1.430   8.046  0.00  0.00    +0.000 NA
ATOM     14  C   UNL     1      45.510   2.082   9.133  0.00  0.00    +0.000 A 
ENDBRANCH   7   9
ENDBRANCH   1   2
BRANCH   1  15
ATOM     15  O   UNL     1      47.438   5.333  13.681  0.00  0.00    +0.000 OA
BRANCH  15  19
ATOM     16  C   UNL     1      47.914   9.154  12.221  0.00  0.00    +0.000 A 
ATOM     17  C   UNL     1      48.749   8.134  11.759  0.00  0.00    +0.000 A 
ATOM     18  C   UNL     1      48.590   6.842  12.265  0.00  0.00    +0.000 A 
ATOM     19  C   UNL     1      47.603   6.622  13.213  0.00  0.00    +0.000 A 
ATOM     20  N   UNL     1      46.799   7.598  13.690  0.00  0.00    +0.000 NA
ATOM     21  C   UNL     1      46.978   8.843  13.193  0.00  0.00    +0.000 A 
BRANCH  16  23
ATOM     22  N   UNL     1      47.281  11.484  12.432  0.00  0.00    +0.000 N 
ATOM     23  C   UNL     1      47.982  10.544  11.730  0.00  0.00    +0.000 C 
ATOM     24  O   UNL     1      48.674  10.851  10.769  0.00  0.00    +0.000 OA
ATOM     25  H   UNL     1      47.429  12.447  12.162  0.00  0.00    +0.000 HD
ATOM     26  H   UNL     1      46.933  11.311  13.366  0.00  0.00    +0.000 HD
ENDBRANCH  16  23
ENDBRANCH  15  19
ENDBRANCH   1  15
TORSDOF 5
ENDMDL
MODEL 8
REMARK VINA RESULT:    -6.628      5.844      7.792
REMARK INTER + INTRA:          -9.315
REMARK INTER:                  -8.581
REMARK INTRA:                  -0.733
REMARK UNBOUND:                -0.749
REMARK  Name = 
REMARK  5 active torsions:
REMARK  status: ('A' for Active; 'I' for Inactive)
REMARK    1  A    between atoms: C_2  and  C_4
REMARK    2  A    between atoms: C_7  and  O_8
REMARK    3  A    between atoms: O_8  and  C_9
REMARK    4  A    between atoms: C_9  and  C_10
REMARK    5  A    between atoms: C_15  and  C_16
REMARK                            x       y       z     vdW  Elec       q    Type
REMARK                         _______ _______ _______ _____ _____    ______ ____
ROOT
ATOM      1  C   UNL     1      47.402   3.707  16.240  0.00  0.00    +0.000 C 
ENDROOT
BRANCH   1   2
ATOM      2  C   UNL     1      48.685   4.126  16.921  0.00  0.00    +0.000 A 
ATOM      3  C   UNL     1      48.890   5.474  17.238  0.00  0.00    +0.000 A 
ATOM      4  C   UNL     1      50.086   5.875  17.811  0.00  0.00    +0.000 A 
ATOM      5  F   UNL     1      50.272   7.165  18.118  0.00  0.00    +0.000 F 
ATOM      6  C   UNL     1      51.103   4.959  18.068  0.00  0.00    +0.000 A 
ATOM      7  C   UNL     1      50.941   3.600  17.754  0.00  0.00    +0.000 A 
ATOM      8  C   UNL     1      49.718   3.209  17.172  0.00  0.00    +0.000 A 
BRANCH   7   9
ATOM      9  C   UNL     1      52.010   2.614  18.024  0.00  0.00    +0.000 A 
ATOM     10  C   UNL     1      52.008   1.336  17.449  0.00  0.00    +0.000 A 
ATOM     11  C   UNL     1      53.032   0.430  17.725  0.00  0.00    +0.000 A 
ATOM     12  C   UNL     1      54.051   0.829  18.571  0.00  0.00    +0.000 A 
ATOM     13  N   UNL     1      54.106   2.043  19.149  0.00  0.00    +0.000 NA
ATOM     14  C   UNL     1      53.090   2.896  18.866  0.00  0.00    +0.000 A 
ENDBRANCH   7   9
ENDBRANCH   1   2
BRANCH   1  15
ATOM     15  O   UNL     1      47.643   3.184  14.928  0.00  0.00    +0.000 OA
BRANCH  15  19
ATOM     16  C   UNL     1      45.230   4.962  12.105  0.00  0.00    +0.000 A 
ATOM     17  C   UNL     1      46.000   5.763  12.951  0.00  0.00    +0.000 A 
ATOM     18  C   UNL     1      46.809   5.155  13.913  0.00  0.00    +0.000 A 
ATOM     19  C   UNL     1      46.815   3.771  13.991  0.00  0.00    +0.000 A 
ATOM     20  N   UNL     1      46.061   2.979  13.197  0.00  0.00    +0.000 NA
ATOM     21  C   UNL     1      45.278   3.590  12.280  0.00  0.00    +0.000 A 
BRANCH  16  23
ATOM     22  N   UNL     1      44.299   6.865  10.926  0.00  0.00    +0.000 N 
ATOM     23  C   UNL     1      44.365   5.505  11.039  0.00  0.00    +0.000 C 
ATOM     24  O   UNL     1      43.772   4.772  10.260  0.00  0.00    +0.000 OA
ATOM     25  H   UNL     1      43.803   7.225  10.123  0.00  0.00    +0.000 HD
ATOM     26  H   UNL     1      44.975   7.476  11.367  0.00  0.00    +0.000 HD
ENDBRANCH  16  23
ENDBRANCH  15  19
ENDBRANCH   1  15
TORSDOF 5
ENDMDL
MODEL 9
REMARK VINA RESULT:    -6.523      4.925      8.222
REMARK INTER + INTRA:          -9.178
REMARK INTER:                  -8.496
REMARK INTRA:                  -0.682
REMARK UNBOUND:                -0.749
REMARK  Name = 
REMARK  5 active torsions:
REMARK  status: ('A' for Active; 'I' for Inactive)
REMARK    1  A    between atoms: C_2  and  C_4
REMARK    2  A    between atoms: C_7  and  O_8
REMARK    3  A    between atoms: O_8  and  C_9
REMARK    4  A    between atoms: C_9  and  C_10
REMARK    5  A    between atoms: C_15  and  C_16
REMARK                            x       y       z     vdW  Elec       q    Type
REMARK                         _______ _______ _______ _____ _____    ______ ____
ROOT
ATOM      1  C   UNL     1      48.874   7.050  13.832  0.00  0.00    +0.000 C 
ENDROOT
BRANCH   1   2
ATOM      2  C   UNL     1      47.576   7.207  13.073  0.00  0.00    +0.000 A 
ATOM      3  C   UNL     1      46.793   8.350  13.273  0.00  0.00    +0.000 A 
ATOM      4  C   UNL     1      45.575   8.475  12.623  0.00  0.00    +0.000 A 
ATOM      5  F   UNL     1      44.835   9.575  12.813  0.00  0.00    +0.000 F 
ATOM      6  C   UNL     1      45.104   7.473  11.779  0.00  0.00    +0.000 A 
ATOM      7  C   UNL     1      45.854   6.306  11.561  0.00  0.00    +0.000 A 
ATOM      8  C   UNL     1      47.090   6.194  12.230  0.00  0.00    +0.000 A 
BRANCH   7   9
ATOM      9  C   UNL     1      45.369   5.234  10.666  0.00  0.00    +0.000 A 
ATOM     10  C   UNL     1      45.728   5.173   9.313  0.00  0.00    +0.000 A 
ATOM     11  C   UNL     1      45.253   4.148   8.495  0.00  0.00    +0.000 A 
ATOM     12  C   UNL     1      44.428   3.190   9.057  0.00  0.00    +0.000 A 
ATOM     13  N   UNL     1      44.052   3.196  10.349  0.00  0.00    +0.000 NA
ATOM     14  C   UNL     1      44.526   4.213  11.113  0.00  0.00    +0.000 A 
ENDBRANCH   7   9
ENDBRANCH   1   2
BRANCH   1  15
ATOM     15  O   UNL     1      48.865   7.792  15.058  0.00  0.00    +0.000 OA
BRANCH  15  19
ATOM     16  C   UNL     1      48.776   5.313  18.345  0.00  0.00    +0.000 A 
ATOM     17  C   UNL     1      48.694   6.696  18.526  0.00  0.00    +0.000 A 
ATOM     18  C   UNL     1      48.735   7.532  17.408  0.00  0.00    +0.000 A 
ATOM     19  C   UNL     1      48.857   6.953  16.155  0.00  0.00    +0.000 A 
ATOM     20  N   UNL     1      48.959   5.619  15.959  0.00  0.00    +0.000 NA
ATOM     21  C   UNL     1      48.927   4.830  17.056  0.00  0.00    +0.000 A 
BRANCH  16  23
ATOM     22  N   UNL     1      48.330   3.069  19.146  0.00  0.00    +0.000 N 
ATOM     23  C   UNL     1      48.713   4.344  19.456  0.00  0.00    +0.000 C 
ATOM     24  O   UNL     1      49.036   4.652  20.594  0.00  0.00    +0.000 OA
ATOM     25  H   UNL     1      48.405   2.385  19.886  0.00  0.00    +0.000 HD
ATOM     26  H   UNL     1      48.323   2.725  18.194  0.00  0.00    +0.000 HD
ENDBRANCH  16  23
ENDBRANCH  15  19
ENDBRANCH   1  15
TORSDOF 5
ENDMDL
