MODEL 1
REMARK VINA RESULT:    -7.850      0.000      0.000
REMARK INTER + INTRA:          -9.804
REMARK INTER:                  -9.456
REMARK INTRA:                  -0.348
REMARK UNBOUND:                -0.348
REMARK  Name = 
REMARK  4 active torsions:
REMARK  status: ('A' for Active; 'I' for Inactive)
REMARK    1  A    between atoms: N_1  and  C_2
REMARK    2  A    between atoms: C_2  and  C_3
REMARK    3  A    between atoms: C_6  and  C_7
REMARK    4  A    between atoms: C_7  and  N_8
REMARK                            x       y       z     vdW  Elec       q    Type
REMARK                         _______ _______ _______ _____ _____    ______ ____
ROOT
ATOM      1  C   UNL     1      46.700   2.839   6.933  0.00  0.00    +0.000 A 
ATOM      2  C   UNL     1      46.045   4.012   7.330  0.00  0.00    +0.000 A 
ATOM      3  C   UNL     1      45.203   4.019   8.445  0.00  0.00    +0.000 A 
ATOM      4  C   UNL     1      44.989   2.848   9.185  0.00  0.00    +0.000 A 
ATOM      5  C   UNL     1      45.643   1.673   8.787  0.00  0.00    +0.000 A 
ATOM      6  C   UNL     1      46.495   1.670   7.676  0.00  0.00    +0.000 A 
ENDROOT
BRANCH   1   7
ATOM      7  C   UNL     1      47.578   2.829   5.708  0.00  0.00    +0.000 C 
BRANCH   7   8
ATOM      8  N   UNL     1      48.526   1.721   5.737  0.00  0.00    +0.000 NA
ATOM      9  H   UNL     1      49.333   1.959   5.166  0.00  0.00    +0.000 HD
ATOM     10  H   UNL     1      48.091   0.910   5.299  0.00  0.00    +0.000 HD
ENDBRANCH   7   8
ENDBRANCH   1   7
BRANCH   4  11
ATOM     11  C   UNL     1      43.980   2.816  10.317  0.00  0.00    +0.000 C 
BRANCH  11  12
ATOM     12  N   UNL     1      44.133   4.006  11.149  0.00  0.00    +0.000 N 
ATOM     13  N   UNL     1      43.522   5.158  10.778  0.00  0.00    +0.000 NA
ATOM     14  C   UNL     1      44.311   6.097  11.311  0.00  0.00    +0.000 A 
ATOM     15  C   UNL     1      45.350   5.555  12.098  0.00  0.00    +0.000 A 
ATOM     16  C   UNL     1      46.472   6.054  12.784  0.00  0.00    +0.000 A 
ATOM     17  C   UNL     1      47.273   5.164  13.504  0.00  0.00    +0.000 A 
ATOM     18  C   UNL     1      46.946   3.806  13.581  0.00  0.00    +0.000 A 
ATOM     19  C   UNL     1      45.855   3.289  12.881  0.00  0.00    +0.000 A 
ATOM     20  C   UNL     1      45.113   4.186  12.107  0.00  0.00    +0.000 A 
ENDBRANCH  11  12
ENDBRANCH   4  11
TORSDOF 4
ENDMDL
MODEL 2
REMARK VINA RESULT:    -7.000      1.346      2.525
REMARK INTER + INTRA:          -8.780
REMARK INTER:                  -8.286
REMARK INTRA:                  -0.494
REMARK UNBOUND:                -0.348
REMARK  Name = 
REMARK  4 active torsions:
REMARK  status: ('A' for Active; 'I' for Inactive)
REMARK    1  A    between atoms: N_1  and  C_2
REMARK    2  A    between atoms: C_2  and  C_3
REMARK    3  A    between atoms: C_6  and  C_7
REMARK    4  A    between atoms: C_7  and  N_8
REMARK                            x       y       z     vdW  Elec       q    Type
REMARK                         _______ _______ _______ _____ _____    ______ ____
ROOT
ATOM      1  C   UNL     1      46.287   2.750   7.400  0.00  0.00    +0.000 A 
ATOM      2  C   UNL     1      45.763   1.923   8.403  0.00  0.00    +0.000 A 
ATOM      3  C   UNL     1      45.185   2.470   9.551  0.00  0.00    +0.000 A 
ATOM      4  C   UNL     1      45.125   3.859   9.727  0.00  0.00    +0.000 A 
ATOM      5  C   UNL     1      45.651   4.687   8.725  0.00  0.00    +0.000 A 
ATOM      6  C   UNL     1      46.220   4.137   7.570  0.00  0.00    +0.000 A 
ENDROOT
BRANCH   1   7
ATOM      7  C   UNL     1      46.943   2.153   6.181  0.00  0.00    +0.000 C 
BRANCH   7   8
ATOM      8  N   UNL     1      48.349   1.855   6.421  0.00  0.00    +0.000 NA
ATOM      9  H   UNL     1      48.444   0.875   6.676  0.00  0.00    +0.000 HD
ATOM     10  H   UNL     1      48.663   2.394   7.227  0.00  0.00    +0.000 HD
ENDBRANCH   7   8
ENDBRANCH   1   7
BRANCH   4  11
ATOM     11  C   UNL     1      44.616   4.458  11.024  0.00  0.00    +0.000 C 
BRANCH  11  12
ATOM     12  N   UNL     1      45.706   4.543  11.991  0.00  0.00    +0.000 N 
ATOM     13  N   UNL     1      45.781   3.628  12.989  0.00  0.00    +0.000 NA
ATOM     14  C   UNL     1      46.408   4.299  13.960  0.00  0.00    +0.000 A 
ATOM     15  C   UNL     1      46.821   5.587  13.556  0.00  0.00    +0.000 A 
ATOM     16  C   UNL     1      47.413   6.705  14.171  0.00  0.00    +0.000 A 
ATOM     17  C   UNL     1      47.708   7.826  13.392  0.00  0.00    +0.000 A 
ATOM     18  C   UNL     1      47.460   7.828  12.015  0.00  0.00    +0.000 A 
ATOM     19  C   UNL     1      46.845   6.740  11.394  0.00  0.00    +0.000 A 
ATOM     20  C   UNL     1      46.491   5.660  12.208  0.00  0.00    +0.000 A 
ENDBRANCH  11  12
ENDBRANCH   4  11
TORSDOF 4
ENDMDL
MODEL 3
REMARK VINA RESULT:    -6.937      1.735      5.945
REMARK INTER + INTRA:          -8.704
REMARK INTER:                  -8.783
REMARK INTRA:                   0.079
REMARK UNBOUND:                -0.348
REMARK  Name = 
REMARK  4 active torsions:
REMARK  status: ('A' for Active; 'I' for Inactive)
REMARK    1  A    between atoms: N_1  and  C_2
REMARK    2  A    between atoms: C_2  and  C_3
REMARK    3  A    between atoms: C_6  and  C_7
REMARK    4  A    between atoms: C_7  and  N_8
REMARK                            x       y       z     vdW  Elec       q    Type
REMARK                         _______ _______ _______ _____ _____    ______ ____
ROOT
ATOM      1  C   UNL     1      46.797   4.853  13.769  0.00  0.00    +0.000 A 
ATOM      2  C   UNL     1      45.987   3.822  13.274  0.00  0.00    +0.000 A 
ATOM      3  C   UNL     1      45.427   3.905  11.997  0.00  0.00    +0.000 A 
ATOM      4  C   UNL     1      45.656   5.026  11.187  0.00  0.00    +0.000 A 
ATOM      5  C   UNL     1      46.464   6.059  11.684  0.00  0.00    +0.000 A 
ATOM      6  C   UNL     1      47.035   5.970  12.959  0.00  0.00    +0.000 A 
ENDROOT
BRANCH   1   7
ATOM      7  C   UNL     1      47.369   4.776  15.162  0.00  0.00    +0.000 C 
BRANCH   7   8
ATOM      8  N   UNL     1      47.534   3.394  15.597  0.00  0.00    +0.000 NA
ATOM      9  H   UNL     1      47.395   2.775  14.802  0.00  0.00    +0.000 HD
ATOM     10  H   UNL     1      46.798   3.174  16.267  0.00  0.00    +0.000 HD
ENDBRANCH   7   8
ENDBRANCH   1   7
BRANCH   4  11
ATOM     11  C   UNL     1      44.950   5.180   9.854  0.00  0.00    +0.000 C 
BRANCH  11  12
ATOM     12  N   UNL     1      44.803   3.875   9.218  0.00  0.00    +0.000 N 
ATOM     13  N   UNL     1      43.952   2.966   9.756  0.00  0.00    +0.000 NA
ATOM     14  C   UNL     1      44.490   1.800   9.383  0.00  0.00    +0.000 A 
ATOM     15  C   UNL     1      45.606   1.959   8.533  0.00  0.00    +0.000 A 
ATOM     16  C   UNL     1      46.565   1.115   7.946  0.00  0.00    +0.000 A 
ATOM     17  C   UNL     1      47.531   1.674   7.106  0.00  0.00    +0.000 A 
ATOM     18  C   UNL     1      47.524   3.043   6.816  0.00  0.00    +0.000 A 
ATOM     19  C   UNL     1      46.600   3.899   7.415  0.00  0.00    +0.000 A 
ATOM     20  C   UNL     1      45.691   3.328   8.310  0.00  0.00    +0.000 A 
ENDBRANCH  11  12
ENDBRANCH   4  11
TORSDOF 4
ENDMDL
MODEL 4
REMARK VINA RESULT:    -5.966      2.864      6.637
REMARK INTER + INTRA:          -7.535
REMARK INTER:                  -7.168
REMARK INTRA:                  -0.366
REMARK UNBOUND:                -0.348
REMARK  Name = 
REMARK  4 active torsions:
REMARK  status: ('A' for Active; 'I' for Inactive)
REMARK    1  A    between atoms: N_1  and  C_2
REMARK    2  A    between atoms: C_2  and  C_3
REMARK    3  A    between atoms: C_6  and  C_7
REMARK    4  A    between atoms: C_7  and  N_8
REMARK                            x       y       z     vdW  Elec       q    Type
REMARK                         _______ _______ _______ _____ _____    ______ ____
ROOT
ATOM      1  C   UNL     1      47.766   4.342  16.076  0.00  0.00    +0.000 A 
ATOM      2  C   UNL     1      47.142   3.759  14.966  0.00  0.00    +0.000 A 
ATOM      3  C   UNL     1      47.005   4.467  13.769  0.00  0.00    +0.000 A 
ATOM      4  C   UNL     1      47.483   5.780  13.658  0.00  0.00    +0.000 A 
ATOM      5  C   UNL     1      48.106   6.365  14.770  0.00  0.00    +0.000 A 
ATOM      6  C   UNL     1      48.252   5.650  15.965  0.00  0.00    +0.000 A 
ENDROOT
BRANCH   1   7
ATOM      7  C   UNL     1      47.878   3.587  17.376  0.00  0.00    +0.000 C 
BRANCH   7   8
ATOM      8  N   UNL     1      46.628   2.918  17.716  0.00  0.00    +0.000 NA
ATOM      9  H   UNL     1      46.752   2.399  18.582  0.00  0.00    +0.000 HD
ATOM     10  H   UNL     1      46.421   2.229  16.994  0.00  0.00    +0.000 HD
ENDBRANCH   7   8
ENDBRANCH   1   7
BRANCH   4  11
ATOM     11  C   UNL     1      47.226   6.597  12.407  0.00  0.00    +0.000 C 
BRANCH  11  12
ATOM     12  N   UNL     1      45.837   6.436  11.988  0.00  0.00    +0.000 N 
ATOM     13  N   UNL     1      44.843   6.649  12.885  0.00  0.00    +0.000 NA
ATOM     14  C   UNL     1      43.861   5.863  12.432  0.00  0.00    +0.000 A 
ATOM     15  C   UNL     1      44.183   5.237  11.208  0.00  0.00    +0.000 A 
ATOM     16  C   UNL     1      43.586   4.280  10.368  0.00  0.00    +0.000 A 
ATOM     17  C   UNL     1      44.229   3.933   9.178  0.00  0.00    +0.000 A 
ATOM     18  C   UNL     1      45.424   4.555   8.801  0.00  0.00    +0.000 A 
ATOM     19  C   UNL     1      46.045   5.483   9.636  0.00  0.00    +0.000 A 
ATOM     20  C   UNL     1      45.422   5.758  10.856  0.00  0.00    +0.000 A 
ENDBRANCH  11  12
ENDBRANCH   4  11
TORSDOF 4
ENDMDL
MODEL 5
REMARK VINA RESULT:    -5.887      2.552      5.560
REMARK INTER + INTRA:          -7.439
REMARK INTER:                  -6.782
REMARK INTRA:                  -0.658
REMARK UNBOUND:                -0.348
REMARK  Name = 
REMARK  4 active torsions:
REMARK  status: ('A' for Active; 'I' for Inactive)
REMARK    1  A    between atoms: N_1  and  C_2
REMARK    2  A    between atoms: C_2  and  C_3
REMARK    3  A    between atoms: C_6  and  C_7
REMARK    4  A    between atoms: C_7  and  N_8
REMARK                            x       y       z     vdW  Elec       q    Type
REMARK                         _______ _______ _______ _____ _____    ______ ____
ROOT
ATOM      1  C   UNL     1      47.792   7.116  12.416  0.00  0.00    +0.000 A 
ATOM      2  C   UNL     1      47.464   5.903  13.037  0.00  0.00    +0.000 A 
ATOM      3  C   UNL     1      46.149   5.434  13.039  0.00  0.00    +0.000 A 
ATOM      4  C   UNL     1      45.127   6.172  12.425  0.00  0.00    +0.000 A 
ATOM      5  C   UNL     1      45.455   7.386  11.805  0.00  0.00    +0.000 A 
ATOM      6  C   UNL     1      46.775   7.850  11.795  0.00  0.00    +0.000 A 
ENDROOT
BRANCH   1   7
ATOM      7  C   UNL     1      49.207   7.635  12.449  0.00  0.00    +0.000 C 
BRANCH   7   8
ATOM      8  N   UNL     1      49.960   7.068  13.562  0.00  0.00    +0.000 NA
ATOM      9  H   UNL     1      49.344   6.968  14.365  0.00  0.00    +0.000 HD
ATOM     10  H   UNL     1      50.685   7.730  13.835  0.00  0.00    +0.000 HD
ENDBRANCH   7   8
ENDBRANCH   1   7
BRANCH   4  11
ATOM     11  C   UNL     1      43.679   5.733  12.533  0.00  0.00    +0.000 C 
BRANCH  11  12
ATOM     12  N   UNL     1      43.514   4.419  11.922  0.00  0.00    +0.000 N 
ATOM     13  N   UNL     1      43.289   3.341  12.714  0.00  0.00    +0.000 NA
ATOM     14  C   UNL     1      43.795   2.334  11.996  0.00  0.00    +0.000 A 
ATOM     15  C   UNL     1      44.242   2.742  10.720  0.00  0.00    +0.000 A 
ATOM     16  C   UNL     1      44.914   2.145   9.640  0.00  0.00    +0.000 A 
ATOM     17  C   UNL     1      45.155   2.904   8.492  0.00  0.00    +0.000 A 
ATOM     18  C   UNL     1      44.699   4.223   8.397  0.00  0.00    +0.000 A 
ATOM     19  C   UNL     1      44.058   4.841   9.471  0.00  0.00    +0.000 A 
ATOM     20  C   UNL     1      43.896   4.085  10.635  0.00  0.00    +0.000 A 
ENDBRANCH  11  12
ENDBRANCH   4  11
TORSDOF 4
ENDMDL
MODEL 6
REMARK VINA RESULT:    -5.838      4.512      7.676
REMARK INTER + INTRA:          -7.381
REMARK INTER:                  -6.946
REMARK INTRA:                  -0.434
REMARK UNBOUND:                -0.348
REMARK  Name = 
REMARK  4 active torsions:
REMARK  status: ('A' for Active; 'I' for Inactive)
REMARK    1  A    between atoms: N_1  and  C_2
REMARK    2  A    between atoms: C_2  and  C_3
REMARK    3  A    between atoms: C_6  and  C_7
REMARK    4  A    between atoms: C_7  and  N_8
REMARK                            x       y       z     vdW  Elec       q    Type
REMARK                         _______ _______ _______ _____ _____    ______ ____
ROOT
ATOM      1  C   UNL     1      50.743   2.382  17.384  0.00  0.00    +0.000 A 
ATOM      2  C   UNL     1      50.567   3.721  17.756  0.00  0.00    +0.000 A 
ATOM      3  C   UNL     1      49.413   4.419  17.391  0.00  0.00    +0.000 A 
ATOM      4  C   UNL     1      48.410   3.795  16.637  0.00  0.00    +0.000 A 
ATOM      5  C   UNL     1      48.587   2.455  16.262  0.00  0.00    +0.000 A 
ATOM      6  C   UNL     1      49.739   1.753  16.638  0.00  0.00    +0.000 A 
ENDROOT
BRANCH   1   7
ATOM      7  C   UNL     1      52.007   1.645  17.749  0.00  0.00    +0.000 C 
BRANCH   7   8
ATOM      8  N   UNL     1      51.734   0.260  18.113  0.00  0.00    +0.000 NA
ATOM      9  H   UNL     1      52.615  -0.233  18.234  0.00  0.00    +0.000 HD
ATOM     10  H   UNL     1      51.254  -0.192  17.336  0.00  0.00    +0.000 HD
ENDBRANCH   7   8
ENDBRANCH   1   7
BRANCH   4  11
ATOM     11  C   UNL     1      47.216   4.580  16.130  0.00  0.00    +0.000 C 
BRANCH  11  12
ATOM     12  N   UNL     1      47.488   5.082  14.787  0.00  0.00    +0.000 N 
ATOM     13  N   UNL     1      48.228   6.209  14.637  0.00  0.00    +0.000 NA
ATOM     14  C   UNL     1      47.777   6.708  13.481  0.00  0.00    +0.000 A 
ATOM     15  C   UNL     1      46.840   5.861  12.849  0.00  0.00    +0.000 A 
ATOM     16  C   UNL     1      46.015   5.928  11.713  0.00  0.00    +0.000 A 
ATOM     17  C   UNL     1      45.221   4.825  11.390  0.00  0.00    +0.000 A 
ATOM     18  C   UNL     1      45.274   3.655  12.155  0.00  0.00    +0.000 A 
ATOM     19  C   UNL     1      46.064   3.583  13.303  0.00  0.00    +0.000 A 
ATOM     20  C   UNL     1      46.791   4.725  13.648  0.00  0.00    +0.000 A 
ENDBRANCH  11  12
ENDBRANCH   4  11
TORSDOF 4
ENDMDL
MODEL 7
REMARK VINA RESULT:    -5.708      2.247      3.223
REMARK INTER + INTRA:          -7.223
REMARK INTER:                  -7.123
REMARK INTRA:                  -0.100
REMARK UNBOUND:                -0.348
REMARK  Name = 
REMARK  4 active torsions:
REMARK  status: ('A' for Active; 'I' for Inactive)
REMARK    1  A    between atoms: N_1  and  C_2
REMARK    2  A    between atoms: C_2  and  C_3
REMARK    3  A    between atoms: C_6  and  C_7
REMARK    4  A    between atoms: C_7  and  N_8
REMARK                            x       y       z     vdW  Elec       q    Type
REMARK                         _______ _______ _______ _____ _____    ______ ____
ROOT
ATOM      1  C   UNL     1      45.442   3.915   8.739  0.00  0.00    +0.000 A 
ATOM      2  C   UNL     1      45.868   5.215   9.042  0.00  0.00    +0.000 A 
ATOM      3  C   UNL     1      45.709   5.737  10.328  0.00  0.00    +0.000 A 
ATOM      4  C   UNL     1      45.111   4.974  11.340  0.00  0.00    +0.000 A 
ATOM      5  C   UNL     1      44.682   3.674  11.035  0.00  0.00    +0.000 A 
ATOM      6  C   UNL     1      44.852   3.147   9.749  0.00  0.00    +0.000 A 
ENDROOT
BRANCH   1   7
ATOM      7  C   UNL     1      45.582   3.370   7.340  0.00  0.00    +0.000 C 
BRANCH   7   8
ATOM      8  N   UNL     1      46.657   4.033   6.612  0.00  0.00    +0.000 NA
ATOM      9  H   UNL     1      46.352   4.217   5.660  0.00  0.00    +0.000 HD
ATOM     10  H   UNL     1      47.447   3.393   6.544  0.00  0.00    +0.000 HD
ENDBRANCH   7   8
ENDBRANCH   1   7
BRANCH   4  11
ATOM     11  C   UNL     1      44.820   5.577  12.700  0.00  0.00    +0.000 C 
BRANCH  11  12
ATOM     12  N   UNL     1      45.455   6.886  12.807  0.00  0.00    +0.000 N 
ATOM     13  N   UNL     1      44.732   8.000  12.532  0.00  0.00    +0.000 NA
ATOM     14  C   UNL     1      45.665   8.864  12.118  0.00  0.00    +0.000 A 
ATOM     15  C   UNL     1      46.975   8.348  12.226  0.00  0.00    +0.000 A 
ATOM     16  C   UNL     1      48.266   8.770  11.865  0.00  0.00    +0.000 A 
ATOM     17  C   UNL     1      49.356   7.958  12.187  0.00  0.00    +0.000 A 
ATOM     18  C   UNL     1      49.176   6.764  12.894  0.00  0.00    +0.000 A 
ATOM     19  C   UNL     1      47.900   6.315  13.233  0.00  0.00    +0.000 A 
ATOM     20  C   UNL     1      46.820   7.108  12.834  0.00  0.00    +0.000 A 
ENDBRANCH  11  12
ENDBRANCH   4  11
TORSDOF 4
ENDMDL
MODEL 8
REMARK VINA RESULT:    -5.491      3.498      5.686
REMARK INTER + INTRA:          -6.962
REMARK INTER:                  -6.492
REMARK INTRA:                  -0.470
REMARK UNBOUND:                -0.348
REMARK  Name = 
REMARK  4 active torsions:
REMARK  status: ('A' for Active; 'I' for Inactive)
REMARK    1  A    between atoms: N_1  and  C_2
REMARK    2  A    between atoms: C_2  and  C_3
REMARK    3  A    between atoms: C_6  and  C_7
REMARK    4  A    between atoms: C_7  and  N_8
REMARK                            x       y       z     vdW  Elec       q    Type
REMARK                         _______ _______ _______ _____ _____    ______ ____
ROOT
ATOM      1  C   UNL     1      44.857   4.003  11.226  0.00  0.00    +0.000 A 
ATOM      2  C   UNL     1      45.231   5.130  10.482  0.00  0.00    +0.000 A 
ATOM      3  C   UNL     1      45.873   6.209  11.095  0.00  0.00    +0.000 A 
ATOM      4  C   UNL     1      46.149   6.189  12.469  0.00  0.00    +0.000 A 
ATOM      5  C   UNL     1      45.772   5.062  13.213  0.00  0.00    +0.000 A 
ATOM      6  C   UNL     1      45.138   3.977  12.596  0.00  0.00    +0.000 A 
ENDROOT
BRANCH   1   7
ATOM      7  C   UNL     1      44.131   2.857  10.567  0.00  0.00    +0.000 C 
BRANCH   7   8
ATOM      8  N   UNL     1      43.213   2.201  11.491  0.00  0.00    +0.000 NA
ATOM      9  H   UNL     1      43.679   1.400  11.910  0.00  0.00    +0.000 HD
ATOM     10  H   UNL     1      42.425   1.833  10.960  0.00  0.00    +0.000 HD
ENDBRANCH   7   8
ENDBRANCH   1   7
BRANCH   4  11
ATOM     11  C   UNL     1      46.729   7.406  13.163  0.00  0.00    +0.000 C 
BRANCH  11  12
ATOM     12  N   UNL     1      48.098   7.129  13.586  0.00  0.00    +0.000 N 
ATOM     13  N   UNL     1      48.339   6.796  14.878  0.00  0.00    +0.000 NA
ATOM     14  C   UNL     1      49.594   7.217  15.063  0.00  0.00    +0.000 A 
ATOM     15  C   UNL     1      50.183   7.717  13.881  0.00  0.00    +0.000 A 
ATOM     16  C   UNL     1      51.392   8.347  13.536  0.00  0.00    +0.000 A 
ATOM     17  C   UNL     1      51.625   8.671  12.197  0.00  0.00    +0.000 A 
ATOM     18  C   UNL     1      50.695   8.339  11.207  0.00  0.00    +0.000 A 
ATOM     19  C   UNL     1      49.477   7.743  11.536  0.00  0.00    +0.000 A 
ATOM     20  C   UNL     1      49.235   7.497  12.890  0.00  0.00    +0.000 A 
ENDBRANCH  11  12
ENDBRANCH   4  11
TORSDOF 4
ENDMDL
MODEL 9
REMARK VINA RESULT:    -5.278      4.375      6.436
REMARK INTER + INTRA:          -6.705
REMARK INTER:                  -6.239
REMARK INTRA:                  -0.466
REMARK UNBOUND:                -0.348
REMARK  Name = 
REMARK  4 active torsions:
REMARK  status: ('A' for Active; 'I' for Inactive)
REMARK    1  A    between atoms: N_1  and  C_2
REMARK    2  A    between atoms: C_2  and  C_3
REMARK    3  A    between atoms: C_6  and  C_7
REMARK    4  A    between atoms: C_7  and  N_8
REMARK                            x       y       z     vdW  Elec       q    Type
REMARK                         _______ _______ _______ _____ _____    ______ ____
ROOT
ATOM      1  C   UNL     1      44.336   5.910  12.128  0.00  0.00    +0.000 A 
ATOM      2  C   UNL     1      44.888   4.686  12.531  0.00  0.00    +0.000 A 
ATOM      3  C   UNL     1      46.136   4.638  13.157  0.00  0.00    +0.000 A 
ATOM      4  C   UNL     1      46.865   5.812  13.388  0.00  0.00    +0.000 A 
ATOM      5  C   UNL     1      46.314   7.036  12.983  0.00  0.00    +0.000 A 
ATOM      6  C   UNL     1      45.058   7.085  12.365  0.00  0.00    +0.000 A 
ENDROOT
BRANCH   1   7
ATOM      7  C   UNL     1      43.006   5.953  11.419  0.00  0.00    +0.000 C 
BRANCH   7   8
ATOM      8  N   UNL     1      42.628   7.318  11.072  0.00  0.00    +0.000 NA
ATOM      9  H   UNL     1      41.751   7.548  11.533  0.00  0.00    +0.000 HD
ATOM     10  H   UNL     1      42.447   7.361  10.070  0.00  0.00    +0.000 HD
ENDBRANCH   7   8
ENDBRANCH   1   7
BRANCH   4  11
ATOM     11  C   UNL     1      48.272   5.755  13.951  0.00  0.00    +0.000 C 
BRANCH  11  12
ATOM     12  N   UNL     1      48.239   5.990  15.391  0.00  0.00    +0.000 N 
ATOM     13  N   UNL     1      48.732   7.153  15.885  0.00  0.00    +0.000 NA
ATOM     14  C   UNL     1      49.123   6.809  17.117  0.00  0.00    +0.000 A 
ATOM     15  C   UNL     1      48.791   5.476  17.444  0.00  0.00    +0.000 A 
ATOM     16  C   UNL     1      49.035   4.602  18.518  0.00  0.00    +0.000 A 
ATOM     17  C   UNL     1      48.486   3.318  18.481  0.00  0.00    +0.000 A 
ATOM     18  C   UNL     1      47.672   2.917  17.416  0.00  0.00    +0.000 A 
ATOM     19  C   UNL     1      47.446   3.759  16.328  0.00  0.00    +0.000 A 
ATOM     20  C   UNL     1      48.068   5.011  16.352  0.00  0.00    +0.000 A 
ENDBRANCH  11  12
ENDBRANCH   4  11
TORSDOF 4
ENDMDL
