MODEL 1
REMARK VINA RESULT:    -7.173      0.000      0.000
REMARK INTER + INTRA:          -9.727
REMARK INTER:                  -9.060
REMARK INTRA:                  -0.667
REMARK UNBOUND:                -0.667
REMARK  Name = 
REMARK  5 active torsions:
REMARK  status: ('A' for Active; 'I' for Inactive)
REMARK    1  A    between atoms: N_1  and  C_2
REMARK    2  A    between atoms: C_2  and  C_3
REMARK    3  A    between atoms: C_6  and  C_7
REMARK    4  A    between atoms: C_7  and  N_8
REMARK    5  A    between atoms: C_13  and  C_14
REMARK                            x       y       z     vdW  Elec       q    Type
REMARK                         _______ _______ _______ _____ _____    ______ ____
ROOT
ATOM      1  N   UNL     1      44.583   5.055  10.597  0.00  0.00    +0.000 N 
ATOM      2  C   UNL     1      43.830   4.087  11.223  0.00  0.00    +0.000 A 
ATOM      3  C   UNL     1      44.115   2.877  10.634  0.00  0.00    +0.000 A 
ATOM      4  C   UNL     1      44.992   3.130   9.550  0.00  0.00    +0.000 A 
ATOM      5  C   UNL     1      45.581   2.327   8.561  0.00  0.00    +0.000 A 
ATOM      6  C   UNL     1      46.360   2.953   7.588  0.00  0.00    +0.000 A 
ATOM      7  C   UNL     1      46.544   4.333   7.679  0.00  0.00    +0.000 A 
ATOM      8  N   UNL     1      46.028   5.153   8.641  0.00  0.00    +0.000 NA
ATOM      9  C   UNL     1      45.256   4.499   9.531  0.00  0.00    +0.000 A 
ENDROOT
BRANCH   6  10
ATOM     10  C   UNL     1      46.969   2.214   6.456  0.00  0.00    +0.000 C 
ATOM     11  N   UNL     1      47.329   2.913   5.336  0.00  0.00    +0.000 N 
ATOM     12  O   UNL     1      47.163   1.004   6.513  0.00  0.00    +0.000 OA
ATOM     13  H   UNL     1      47.243   3.907   5.207  0.00  0.00    +0.000 HD
ATOM     14  H   UNL     1      47.769   2.386   4.592  0.00  0.00    +0.000 HD
ENDBRANCH   6  10
BRANCH   1  15
ATOM     15  C   UNL     1      44.651   6.446  11.028  0.00  0.00    +0.000 C 
BRANCH  15  19
ATOM     16  C   UNL     1      47.703   8.468  12.191  0.00  0.00    +0.000 C 
ATOM     17  C   UNL     1      47.739   7.017  11.675  0.00  0.00    +0.000 C 
ATOM     18  C   UNL     1      46.776   6.105  12.435  0.00  0.00    +0.000 C 
ATOM     19  C   UNL     1      45.327   6.623  12.411  0.00  0.00    +0.000 C 
ATOM     20  C   UNL     1      45.274   8.085  12.886  0.00  0.00    +0.000 C 
ATOM     21  C   UNL     1      46.255   8.992  12.146  0.00  0.00    +0.000 C 
BRANCH  16  22
ATOM     22  C   UNL     1      48.367   8.556  13.584  0.00  0.00    +0.000 C 
BRANCH  22  23
ATOM     23  N   UNL     1      48.150   9.840  14.242  0.00  0.00    +0.000 NA
ATOM     24  H   UNL     1      48.143  10.577  13.537  0.00  0.00    +0.000 HD
ATOM     25  H   UNL     1      48.936  10.053  14.853  0.00  0.00    +0.000 HD
ENDBRANCH  22  23
ENDBRANCH  16  22
ENDBRANCH  15  19
ENDBRANCH   1  15
TORSDOF 5
ENDMDL
MODEL 2
REMARK VINA RESULT:    -6.610      2.605      6.889
REMARK INTER + INTRA:          -9.015
REMARK INTER:                  -8.418
REMARK INTRA:                  -0.597
REMARK UNBOUND:                -0.667
REMARK  Name = 
REMARK  5 active torsions:
REMARK  status: ('A' for Active; 'I' for Inactive)
REMARK    1  A    between atoms: N_1  and  C_2
REMARK    2  A    between atoms: C_2  and  C_3
REMARK    3  A    between atoms: C_6  and  C_7
REMARK    4  A    between atoms: C_7  and  N_8
REMARK    5  A    between atoms: C_13  and  C_14
REMARK                            x       y       z     vdW  Elec       q    Type
REMARK                         _______ _______ _______ _____ _____    ______ ____
ROOT
ATOM      1  N   UNL     1      44.313   4.476  11.068  0.00  0.00    +0.000 N 
ATOM      2  C   UNL     1      43.000   4.888  11.094  0.00  0.00    +0.000 A 
ATOM      3  C   UNL     1      42.972   6.202  11.504  0.00  0.00    +0.000 A 
ATOM      4  C   UNL     1      44.300   6.569  11.834  0.00  0.00    +0.000 A 
ATOM      5  C   UNL     1      44.893   7.733  12.349  0.00  0.00    +0.000 A 
ATOM      6  C   UNL     1      46.262   7.707  12.616  0.00  0.00    +0.000 A 
ATOM      7  C   UNL     1      46.970   6.543  12.315  0.00  0.00    +0.000 A 
ATOM      8  N   UNL     1      46.450   5.401  11.777  0.00  0.00    +0.000 NA
ATOM      9  C   UNL     1      45.120   5.471  11.575  0.00  0.00    +0.000 A 
ENDROOT
BRANCH   6  10
ATOM     10  C   UNL     1      46.978   8.851  13.229  0.00  0.00    +0.000 C 
ATOM     11  N   UNL     1      47.193   8.841  14.580  0.00  0.00    +0.000 N 
ATOM     12  O   UNL     1      47.384   9.789  12.550  0.00  0.00    +0.000 OA
ATOM     13  H   UNL     1      46.930   8.106  15.215  0.00  0.00    +0.000 HD
ATOM     14  H   UNL     1      47.709   9.623  14.965  0.00  0.00    +0.000 HD
ENDBRANCH   6  10
BRANCH   1  15
ATOM     15  C   UNL     1      44.755   3.183  10.562  0.00  0.00    +0.000 C 
BRANCH  15  19
ATOM     16  C   UNL     1      46.882   2.695   7.400  0.00  0.00    +0.000 C 
ATOM     17  C   UNL     1      46.396   4.050   7.947  0.00  0.00    +0.000 C 
ATOM     18  C   UNL     1      44.882   4.085   8.157  0.00  0.00    +0.000 C 
ATOM     19  C   UNL     1      44.386   2.952   9.075  0.00  0.00    +0.000 C 
ATOM     20  C   UNL     1      44.895   1.592   8.568  0.00  0.00    +0.000 C 
ATOM     21  C   UNL     1      46.403   1.565   8.331  0.00  0.00    +0.000 C 
BRANCH  16  22
ATOM     22  C   UNL     1      46.451   2.528   5.926  0.00  0.00    +0.000 C 
BRANCH  22  23
ATOM     23  N   UNL     1      47.453   3.003   4.978  0.00  0.00    +0.000 NA
ATOM     24  H   UNL     1      48.362   3.025   5.441  0.00  0.00    +0.000 HD
ATOM     25  H   UNL     1      47.255   3.968   4.720  0.00  0.00    +0.000 HD
ENDBRANCH  22  23
ENDBRANCH  16  22
ENDBRANCH  15  19
ENDBRANCH   1  15
TORSDOF 5
ENDMDL
MODEL 3
REMARK VINA RESULT:    -5.875      4.652      6.153
REMARK INTER + INTRA:          -8.087
REMARK INTER:                  -7.648
REMARK INTRA:                  -0.438
REMARK UNBOUND:                -0.667
REMARK  Name = 
REMARK  5 active torsions:
REMARK  status: ('A' for Active; 'I' for Inactive)
REMARK    1  A    between atoms: N_1  and  C_2
REMARK    2  A    between atoms: C_2  and  C_3
REMARK    3  A    between atoms: C_6  and  C_7
REMARK    4  A    between atoms: C_7  and  N_8
REMARK    5  A    between atoms: C_13  and  C_14
REMARK                            x       y       z     vdW  Elec       q    Type
REMARK                         _______ _______ _______ _____ _____    ______ ____
ROOT
ATOM      1  N   UNL     1      47.447   5.338  14.634  0.00  0.00    +0.000 N 
ATOM      2  C   UNL     1      48.038   6.507  14.213  0.00  0.00    +0.000 A 
ATOM      3  C   UNL     1      47.501   6.842  12.991  0.00  0.00    +0.000 A 
ATOM      4  C   UNL     1      46.631   5.791  12.610  0.00  0.00    +0.000 A 
ATOM      5  C   UNL     1      45.849   5.532  11.473  0.00  0.00    +0.000 A 
ATOM      6  C   UNL     1      45.150   4.326  11.418  0.00  0.00    +0.000 A 
ATOM      7  C   UNL     1      45.232   3.468  12.516  0.00  0.00    +0.000 A 
ATOM      8  N   UNL     1      45.943   3.689  13.660  0.00  0.00    +0.000 NA
ATOM      9  C   UNL     1      46.626   4.851  13.640  0.00  0.00    +0.000 A 
ENDROOT
BRANCH   6  10
ATOM     10  C   UNL     1      44.355   3.917  10.237  0.00  0.00    +0.000 C 
ATOM     11  N   UNL     1      44.354   4.728   9.135  0.00  0.00    +0.000 N 
ATOM     12  O   UNL     1      43.714   2.870  10.229  0.00  0.00    +0.000 OA
ATOM     13  H   UNL     1      44.872   5.585   9.032  0.00  0.00    +0.000 HD
ATOM     14  H   UNL     1      43.825   4.407   8.333  0.00  0.00    +0.000 HD
ENDBRANCH   6  10
BRANCH   1  15
ATOM     15  C   UNL     1      47.663   4.737  15.944  0.00  0.00    +0.000 C 
BRANCH  15  19
ATOM     16  C   UNL     1      48.636   4.618  19.658  0.00  0.00    +0.000 C 
ATOM     17  C   UNL     1      47.629   5.601  19.032  0.00  0.00    +0.000 C 
ATOM     18  C   UNL     1      48.222   6.368  17.850  0.00  0.00    +0.000 C 
ATOM     19  C   UNL     1      48.779   5.437  16.758  0.00  0.00    +0.000 C 
ATOM     20  C   UNL     1      49.758   4.421  17.371  0.00  0.00    +0.000 C 
ATOM     21  C   UNL     1      49.176   3.673  18.569  0.00  0.00    +0.000 C 
BRANCH  16  22
ATOM     22  C   UNL     1      49.730   5.392  20.426  0.00  0.00    +0.000 C 
BRANCH  22  23
ATOM     23  N   UNL     1      50.809   4.535  20.906  0.00  0.00    +0.000 NA
ATOM     24  H   UNL     1      51.405   4.281  20.118  0.00  0.00    +0.000 HD
ATOM     25  H   UNL     1      50.426   3.658  21.252  0.00  0.00    +0.000 HD
ENDBRANCH  22  23
ENDBRANCH  16  22
ENDBRANCH  15  19
ENDBRANCH   1  15
TORSDOF 5
ENDMDL
MODEL 4
REMARK VINA RESULT:    -5.839      4.867      8.271
REMARK INTER + INTRA:          -8.042
REMARK INTER:                  -7.555
REMARK INTRA:                  -0.487
REMARK UNBOUND:                -0.667
REMARK  Name = 
REMARK  5 active torsions:
REMARK  status: ('A' for Active; 'I' for Inactive)
REMARK    1  A    between atoms: N_1  and  C_2
REMARK    2  A    between atoms: C_2  and  C_3
REMARK    3  A    between atoms: C_6  and  C_7
REMARK    4  A    between atoms: C_7  and  N_8
REMARK    5  A    between atoms: C_13  and  C_14
REMARK                            x       y       z     vdW  Elec       q    Type
REMARK                         _______ _______ _______ _____ _____    ______ ____
ROOT
ATOM      1  N   UNL     1      48.090   6.592  14.263  0.00  0.00    +0.000 N 
ATOM      2  C   UNL     1      48.489   7.895  14.458  0.00  0.00    +0.000 A 
ATOM      3  C   UNL     1      49.057   7.986  15.707  0.00  0.00    +0.000 A 
ATOM      4  C   UNL     1      48.907   6.723  16.333  0.00  0.00    +0.000 A 
ATOM      5  C   UNL     1      49.228   6.216  17.602  0.00  0.00    +0.000 A 
ATOM      6  C   UNL     1      48.859   4.903  17.895  0.00  0.00    +0.000 A 
ATOM      7  C   UNL     1      48.234   4.156  16.895  0.00  0.00    +0.000 A 
ATOM      8  N   UNL     1      47.936   4.587  15.635  0.00  0.00    +0.000 NA
ATOM      9  C   UNL     1      48.282   5.872  15.422  0.00  0.00    +0.000 A 
ENDROOT
BRANCH   6  10
ATOM     10  C   UNL     1      49.082   4.289  19.225  0.00  0.00    +0.000 C 
ATOM     11  N   UNL     1      48.354   3.182  19.565  0.00  0.00    +0.000 N 
ATOM     12  O   UNL     1      49.905   4.747  20.011  0.00  0.00    +0.000 OA
ATOM     13  H   UNL     1      47.683   2.713  18.980  0.00  0.00    +0.000 HD
ATOM     14  H   UNL     1      48.549   2.768  20.469  0.00  0.00    +0.000 HD
ENDBRANCH   6  10
BRANCH   1  15
ATOM     15  C   UNL     1      47.561   6.077  13.007  0.00  0.00    +0.000 C 
BRANCH  15  19
ATOM     16  C   UNL     1      44.985   4.235  10.831  0.00  0.00    +0.000 C 
ATOM     17  C   UNL     1      45.683   5.557  10.459  0.00  0.00    +0.000 C 
ATOM     18  C   UNL     1      45.521   6.626  11.541  0.00  0.00    +0.000 C 
ATOM     19  C   UNL     1      46.016   6.153  12.920  0.00  0.00    +0.000 C 
ATOM     20  C   UNL     1      45.360   4.812  13.292  0.00  0.00    +0.000 C 
ATOM     21  C   UNL     1      45.498   3.752  12.201  0.00  0.00    +0.000 C 
BRANCH  16  22
ATOM     22  C   UNL     1      43.451   4.400  10.749  0.00  0.00    +0.000 C 
BRANCH  22  23
ATOM     23  N   UNL     1      42.723   3.335  11.431  0.00  0.00    +0.000 NA
ATOM     24  H   UNL     1      43.392   2.657  11.795  0.00  0.00    +0.000 HD
ATOM     25  H   UNL     1      42.151   2.824  10.762  0.00  0.00    +0.000 HD
ENDBRANCH  22  23
ENDBRANCH  16  22
ENDBRANCH  15  19
ENDBRANCH   1  15
TORSDOF 5
ENDMDL
MODEL 5
REMARK VINA RESULT:    -5.542      4.072      5.798
REMARK INTER + INTRA:          -7.667
REMARK INTER:                  -7.165
REMARK INTRA:                  -0.502
REMARK UNBOUND:                -0.667
REMARK  Name = 
REMARK  5 active torsions:
REMARK  status: ('A' for Active; 'I' for Inactive)
REMARK    1  A    between atoms: N_1  and  C_2
REMARK    2  A    between atoms: C_2  and  C_3
REMARK    3  A    between atoms: C_6  and  C_7
REMARK    4  A    between atoms: C_7  and  N_8
REMARK    5  A    between atoms: C_13  and  C_14
REMARK                            x       y       z     vdW  Elec       q    Type
REMARK                         _______ _______ _______ _____ _____    ______ ____
ROOT
ATOM      1  N   UNL     1      47.722   6.822  13.746  0.00  0.00    +0.000 N 
ATOM      2  C   UNL     1      48.555   7.410  12.821  0.00  0.00    +0.000 A 
ATOM      3  C   UNL     1      47.998   7.241  11.575  0.00  0.00    +0.000 A 
ATOM      4  C   UNL     1      46.842   6.437  11.735  0.00  0.00    +0.000 A 
ATOM      5  C   UNL     1      45.901   5.890  10.848  0.00  0.00    +0.000 A 
ATOM      6  C   UNL     1      44.903   5.070  11.375  0.00  0.00    +0.000 A 
ATOM      7  C   UNL     1      44.871   4.877  12.757  0.00  0.00    +0.000 A 
ATOM      8  N   UNL     1      45.735   5.417  13.665  0.00  0.00    +0.000 NA
ATOM      9  C   UNL     1      46.698   6.169  13.095  0.00  0.00    +0.000 A 
ENDROOT
BRANCH   6  10
ATOM     10  C   UNL     1      43.903   4.382  10.525  0.00  0.00    +0.000 C 
ATOM     11  N   UNL     1      43.967   4.554   9.169  0.00  0.00    +0.000 N 
ATOM     12  O   UNL     1      43.038   3.661  11.012  0.00  0.00    +0.000 OA
ATOM     13  H   UNL     1      44.657   5.095   8.674  0.00  0.00    +0.000 HD
ATOM     14  H   UNL     1      43.289   4.048   8.613  0.00  0.00    +0.000 HD
ENDBRANCH   6  10
BRANCH   1  15
ATOM     15  C   UNL     1      47.911   6.906  15.189  0.00  0.00    +0.000 C 
BRANCH  15  19
ATOM     16  C   UNL     1      48.268   5.460  18.729  0.00  0.00    +0.000 C 
ATOM     17  C   UNL     1      49.131   6.590  18.137  0.00  0.00    +0.000 C 
ATOM     18  C   UNL     1      49.776   6.195  16.808  0.00  0.00    +0.000 C 
ATOM     19  C   UNL     1      48.745   5.734  15.763  0.00  0.00    +0.000 C 
ATOM     20  C   UNL     1      47.846   4.632  16.349  0.00  0.00    +0.000 C 
ATOM     21  C   UNL     1      47.223   5.015  17.690  0.00  0.00    +0.000 C 
BRANCH  16  22
ATOM     22  C   UNL     1      49.170   4.318  19.252  0.00  0.00    +0.000 C 
BRANCH  22  23
ATOM     23  N   UNL     1      48.430   3.097  19.554  0.00  0.00    +0.000 NA
ATOM     24  H   UNL     1      47.838   3.261  20.368  0.00  0.00    +0.000 HD
ATOM     25  H   UNL     1      49.077   2.361  19.830  0.00  0.00    +0.000 HD
ENDBRANCH  22  23
ENDBRANCH  16  22
ENDBRANCH  15  19
ENDBRANCH   1  15
TORSDOF 5
ENDMDL
MODEL 6
REMARK VINA RESULT:    -5.340      2.893      4.488
REMARK INTER + INTRA:          -7.411
REMARK INTER:                  -6.868
REMARK INTRA:                  -0.543
REMARK UNBOUND:                -0.667
REMARK  Name = 
REMARK  5 active torsions:
REMARK  status: ('A' for Active; 'I' for Inactive)
REMARK    1  A    between atoms: N_1  and  C_2
REMARK    2  A    between atoms: C_2  and  C_3
REMARK    3  A    between atoms: C_6  and  C_7
REMARK    4  A    between atoms: C_7  and  N_8
REMARK    5  A    between atoms: C_13  and  C_14
REMARK                            x       y       z     vdW  Elec       q    Type
REMARK                         _______ _______ _______ _____ _____    ______ ____
ROOT
ATOM      1  N   UNL     1      47.510   6.259  13.911  0.00  0.00    +0.000 N 
ATOM      2  C   UNL     1      47.575   5.335  14.928  0.00  0.00    +0.000 A 
ATOM      3  C   UNL     1      46.902   4.205  14.523  0.00  0.00    +0.000 A 
ATOM      4  C   UNL     1      46.323   4.488  13.261  0.00  0.00    +0.000 A 
ATOM      5  C   UNL     1      45.495   3.772  12.382  0.00  0.00    +0.000 A 
ATOM      6  C   UNL     1      45.055   4.415  11.225  0.00  0.00    +0.000 A 
ATOM      7  C   UNL     1      45.499   5.717  10.987  0.00  0.00    +0.000 A 
ATOM      8  N   UNL     1      46.335   6.442  11.786  0.00  0.00    +0.000 NA
ATOM      9  C   UNL     1      46.697   5.784  12.905  0.00  0.00    +0.000 A 
ENDROOT
BRANCH   6  10
ATOM     10  C   UNL     1      44.120   3.782  10.265  0.00  0.00    +0.000 C 
ATOM     11  N   UNL     1      43.944   4.366   9.041  0.00  0.00    +0.000 N 
ATOM     12  O   UNL     1      43.520   2.749  10.545  0.00  0.00    +0.000 OA
ATOM     13  H   UNL     1      44.414   5.191   8.706  0.00  0.00    +0.000 HD
ATOM     14  H   UNL     1      43.321   3.895   8.396  0.00  0.00    +0.000 HD
ENDBRANCH   6  10
BRANCH   1  15
ATOM     15  C   UNL     1      48.215   7.535  13.917  0.00  0.00    +0.000 C 
BRANCH  15  19
ATOM     16  C   UNL     1      50.436  10.183  12.241  0.00  0.00    +0.000 C 
ATOM     17  C   UNL     1      49.370   9.332  11.525  0.00  0.00    +0.000 C 
ATOM     18  C   UNL     1      49.571   7.834  11.753  0.00  0.00    +0.000 C 
ATOM     19  C   UNL     1      49.610   7.462  13.246  0.00  0.00    +0.000 C 
ATOM     20  C   UNL     1      50.642   8.329  13.987  0.00  0.00    +0.000 C 
ATOM     21  C   UNL     1      50.458   9.825  13.738  0.00  0.00    +0.000 C 
BRANCH  16  22
ATOM     22  C   UNL     1      51.802  10.035  11.532  0.00  0.00    +0.000 C 
BRANCH  22  23
ATOM     23  N   UNL     1      51.750  10.369  10.113  0.00  0.00    +0.000 NA
ATOM     24  H   UNL     1      50.956  10.989   9.947  0.00  0.00    +0.000 HD
ATOM     25  H   UNL     1      51.560   9.532   9.566  0.00  0.00    +0.000 HD
ENDBRANCH  22  23
ENDBRANCH  16  22
ENDBRANCH  15  19
ENDBRANCH   1  15
TORSDOF 5
ENDMDL
MODEL 7
REMARK VINA RESULT:    -5.136      3.591      5.062
REMARK INTER + INTRA:          -7.154
REMARK INTER:                  -6.733
REMARK INTRA:                  -0.421
REMARK UNBOUND:                -0.667
REMARK  Name = 
REMARK  5 active torsions:
REMARK  status: ('A' for Active; 'I' for Inactive)
REMARK    1  A    between atoms: N_1  and  C_2
REMARK    2  A    between atoms: C_2  and  C_3
REMARK    3  A    between atoms: C_6  and  C_7
REMARK    4  A    between atoms: C_7  and  N_8
REMARK    5  A    between atoms: C_13  and  C_14
REMARK                            x       y       z     vdW  Elec       q    Type
REMARK                         _______ _______ _______ _____ _____    ______ ____
ROOT
ATOM      1  N   UNL     1      46.803   7.807  13.157  0.00  0.00    +0.000 N 
ATOM      2  C   UNL     1      46.190   8.815  12.448  0.00  0.00    +0.000 A 
ATOM      3  C   UNL     1      45.074   8.291  11.838  0.00  0.00    +0.000 A 
ATOM      4  C   UNL     1      45.063   6.898  12.101  0.00  0.00    +0.000 A 
ATOM      5  C   UNL     1      44.229   5.837  11.716  0.00  0.00    +0.000 A 
ATOM      6  C   UNL     1      44.576   4.549  12.126  0.00  0.00    +0.000 A 
ATOM      7  C   UNL     1      45.706   4.396  12.932  0.00  0.00    +0.000 A 
ATOM      8  N   UNL     1      46.525   5.397  13.367  0.00  0.00    +0.000 NA
ATOM      9  C   UNL     1      46.162   6.613  12.910  0.00  0.00    +0.000 A 
ENDROOT
BRANCH   6  10
ATOM     10  C   UNL     1      43.811   3.348  11.717  0.00  0.00    +0.000 C 
ATOM     11  N   UNL     1      43.677   2.321  12.611  0.00  0.00    +0.000 N 
ATOM     12  O   UNL     1      43.294   3.266  10.607  0.00  0.00    +0.000 OA
ATOM     13  H   UNL     1      44.033   2.307  13.553  0.00  0.00    +0.000 HD
ATOM     14  H   UNL     1      43.124   1.526  12.314  0.00  0.00    +0.000 HD
ENDBRANCH   6  10
BRANCH   1  15
ATOM     15  C   UNL     1      47.945   8.005  14.040  0.00  0.00    +0.000 C 
BRANCH  15  19
ATOM     16  C   UNL     1      51.109   9.417  12.381  0.00  0.00    +0.000 C 
ATOM     17  C   UNL     1      49.842   8.956  11.636  0.00  0.00    +0.000 C 
ATOM     18  C   UNL     1      49.438   7.528  12.002  0.00  0.00    +0.000 C 
ATOM     19  C   UNL     1      49.242   7.338  13.517  0.00  0.00    +0.000 C 
ATOM     20  C   UNL     1      50.482   7.830  14.283  0.00  0.00    +0.000 C 
ATOM     21  C   UNL     1      50.903   9.247  13.898  0.00  0.00    +0.000 C 
BRANCH  16  22
ATOM     22  C   UNL     1      52.352   8.687  11.823  0.00  0.00    +0.000 C 
BRANCH  22  23
ATOM     23  N   UNL     1      52.410   8.687  10.365  0.00  0.00    +0.000 NA
ATOM     24  H   UNL     1      51.480   8.886   9.997  0.00  0.00    +0.000 HD
ATOM     25  H   UNL     1      52.644   7.756  10.029  0.00  0.00    +0.000 HD
ENDBRANCH  22  23
ENDBRANCH  16  22
ENDBRANCH  15  19
ENDBRANCH   1  15
TORSDOF 5
ENDMDL
MODEL 8
REMARK VINA RESULT:    -5.050      4.344      7.951
REMARK INTER + INTRA:          -7.045
REMARK INTER:                  -6.526
REMARK INTRA:                  -0.519
REMARK UNBOUND:                -0.667
REMARK  Name = 
REMARK  5 active torsions:
REMARK  status: ('A' for Active; 'I' for Inactive)
REMARK    1  A    between atoms: N_1  and  C_2
REMARK    2  A    between atoms: C_2  and  C_3
REMARK    3  A    between atoms: C_6  and  C_7
REMARK    4  A    between atoms: C_7  and  N_8
REMARK    5  A    between atoms: C_13  and  C_14
REMARK                            x       y       z     vdW  Elec       q    Type
REMARK                         _______ _______ _______ _____ _____    ______ ____
ROOT
ATOM      1  N   UNL     1      47.714   7.466  13.292  0.00  0.00    +0.000 N 
ATOM      2  C   UNL     1      48.435   8.408  12.593  0.00  0.00    +0.000 A 
ATOM      3  C   UNL     1      49.688   8.489  13.153  0.00  0.00    +0.000 A 
ATOM      4  C   UNL     1      49.697   7.646  14.292  0.00  0.00    +0.000 A 
ATOM      5  C   UNL     1      50.647   7.351  15.283  0.00  0.00    +0.000 A 
ATOM      6  C   UNL     1      50.269   6.496  16.319  0.00  0.00    +0.000 A 
ATOM      7  C   UNL     1      48.985   5.950  16.287  0.00  0.00    +0.000 A 
ATOM      8  N   UNL     1      48.040   6.171  15.327  0.00  0.00    +0.000 NA
ATOM      9  C   UNL     1      48.448   7.032  14.373  0.00  0.00    +0.000 A 
ENDROOT
BRANCH   6  10
ATOM     10  C   UNL     1      51.164   6.175  17.456  0.00  0.00    +0.000 C 
ATOM     11  N   UNL     1      51.876   5.008  17.419  0.00  0.00    +0.000 N 
ATOM     12  O   UNL     1      51.283   6.936  18.411  0.00  0.00    +0.000 OA
ATOM     13  H   UNL     1      51.874   4.337  16.667  0.00  0.00    +0.000 HD
ATOM     14  H   UNL     1      52.501   4.829  18.196  0.00  0.00    +0.000 HD
ENDBRANCH   6  10
BRANCH   1  15
ATOM     15  C   UNL     1      46.383   7.008  12.914  0.00  0.00    +0.000 C 
BRANCH  15  19
ATOM     16  C   UNL     1      43.603   4.613  11.776  0.00  0.00    +0.000 C 
ATOM     17  C   UNL     1      44.378   4.512  13.104  0.00  0.00    +0.000 C 
ATOM     18  C   UNL     1      45.892   4.484  12.894  0.00  0.00    +0.000 C 
ATOM     19  C   UNL     1      46.401   5.696  12.091  0.00  0.00    +0.000 C 
ATOM     20  C   UNL     1      45.612   5.837  10.778  0.00  0.00    +0.000 C 
ATOM     21  C   UNL     1      44.098   5.838  10.985  0.00  0.00    +0.000 C 
BRANCH  16  22
ATOM     22  C   UNL     1      43.694   3.278  11.003  0.00  0.00    +0.000 C 
BRANCH  22  23
ATOM     23  N   UNL     1      43.031   2.173  11.687  0.00  0.00    +0.000 NA
ATOM     24  H   UNL     1      42.956   1.384  11.046  0.00  0.00    +0.000 HD
ATOM     25  H   UNL     1      42.074   2.432  11.916  0.00  0.00    +0.000 HD
ENDBRANCH  22  23
ENDBRANCH  16  22
ENDBRANCH  15  19
ENDBRANCH   1  15
TORSDOF 5
ENDMDL
MODEL 9
REMARK VINA RESULT:    -4.706      4.564      6.603
REMARK INTER + INTRA:          -6.610
REMARK INTER:                  -5.984
REMARK INTRA:                  -0.626
REMARK UNBOUND:                -0.667
REMARK  Name = 
REMARK  5 active torsions:
REMARK  status: ('A' for Active; 'I' for Inactive)
REMARK    1  A    between atoms: N_1  and  C_2
REMARK    2  A    between atoms: C_2  and  C_3
REMARK    3  A    between atoms: C_6  and  C_7
REMARK    4  A    between atoms: C_7  and  N_8
REMARK    5  A    between atoms: C_13  and  C_14
REMARK                            x       y       z     vdW  Elec       q    Type
REMARK                         _______ _______ _______ _____ _____    ______ ____
ROOT
ATOM      1  N   UNL     1      47.394   7.219  12.839  0.00  0.00    +0.000 N 
ATOM      2  C   UNL     1      46.606   6.618  11.884  0.00  0.00    +0.000 A 
ATOM      3  C   UNL     1      46.145   5.428  12.397  0.00  0.00    +0.000 A 
ATOM      4  C   UNL     1      46.753   5.251  13.665  0.00  0.00    +0.000 A 
ATOM      5  C   UNL     1      46.722   4.232  14.630  0.00  0.00    +0.000 A 
ATOM      6  C   UNL     1      47.524   4.377  15.762  0.00  0.00    +0.000 A 
ATOM      7  C   UNL     1      48.276   5.547  15.891  0.00  0.00    +0.000 A 
ATOM      8  N   UNL     1      48.310   6.583  15.003  0.00  0.00    +0.000 NA
ATOM      9  C   UNL     1      47.546   6.370  13.914  0.00  0.00    +0.000 A 
ENDROOT
BRANCH   6  10
ATOM     10  C   UNL     1      47.627   3.333  16.808  0.00  0.00    +0.000 C 
ATOM     11  N   UNL     1      48.854   2.787  17.071  0.00  0.00    +0.000 N 
ATOM     12  O   UNL     1      46.643   2.963  17.441  0.00  0.00    +0.000 OA
ATOM     13  H   UNL     1      49.722   3.046  16.633  0.00  0.00    +0.000 HD
ATOM     14  H   UNL     1      48.897   2.096  17.810  0.00  0.00    +0.000 HD
ENDBRANCH   6  10
BRANCH   1  15
ATOM     15  C   UNL     1      47.957   8.557  12.713  0.00  0.00    +0.000 C 
BRANCH  15  19
ATOM     16  C   UNL     1      51.581   9.786  12.370  0.00  0.00    +0.000 C 
ATOM     17  C   UNL     1      50.327  10.675  12.281  0.00  0.00    +0.000 C 
ATOM     18  C   UNL     1      49.324  10.167  11.245  0.00  0.00    +0.000 C 
ATOM     19  C   UNL     1      48.904   8.707  11.495  0.00  0.00    +0.000 C 
ATOM     20  C   UNL     1      50.145   7.808  11.626  0.00  0.00    +0.000 C 
ATOM     21  C   UNL     1      51.160   8.330  12.642  0.00  0.00    +0.000 C 
BRANCH  16  22
ATOM     22  C   UNL     1      52.456   9.969  11.109  0.00  0.00    +0.000 C 
BRANCH  22  23
ATOM     23  N   UNL     1      53.594   9.058  11.064  0.00  0.00    +0.000 NA
ATOM     24  H   UNL     1      53.822   8.861  10.090  0.00  0.00    +0.000 HD
ATOM     25  H   UNL     1      53.335   8.161  11.471  0.00  0.00    +0.000 HD
ENDBRANCH  22  23
ENDBRANCH  16  22
ENDBRANCH  15  19
ENDBRANCH   1  15
TORSDOF 5
ENDMDL
