MODEL 1
REMARK VINA RESULT:    -7.570      0.000      0.000
REMARK INTER + INTRA:          -9.903
REMARK INTER:                  -9.340
REMARK INTRA:                  -0.562
REMARK UNBOUND:                -0.562
REMARK  Name = 
REMARK  6 active torsions:
REMARK  status: ('A' for Active; 'I' for Inactive)
REMARK    1  A    between atoms: C_1  and  C_2
REMARK    2  A    between atoms: C_6  and  C_7
REMARK    3  A    between atoms: C_11  and  C_12
REMARK    4  A    between atoms: C_12  and  N_13
REMARK    5  A    between atoms: C_16  and  C_17
REMARK    6  A    between atoms: C_19  and  C_20
REMARK                            x       y       z     vdW  Elec       q    Type
REMARK                         _______ _______ _______ _____ _____    ______ ____
ROOT
ATOM      1  C   UNL     1      49.324   7.849  12.687  0.00  0.00    +0.000 C 
ATOM      2  C   UNL     1      50.059   8.723  11.683  0.00  0.00    +0.000 C 
ATOM      3  C   UNL     1      50.211   7.239  11.617  0.00  0.00    +0.000 C 
ENDROOT
BRANCH   1   4
ATOM      4  N   UNL     1      49.775   7.865  14.087  0.00  0.00    +0.000 N 
ATOM      5  C   UNL     1      49.106   7.122  15.069  0.00  0.00    +0.000 A 
ATOM      6  N   UNL     1      49.041   7.720  16.269  0.00  0.00    +0.000 NA
ATOM      7  C   UNL     1      48.478   7.055  17.295  0.00  0.00    +0.000 A 
ATOM      8  C   UNL     1      48.408   7.766  18.614  0.00  0.00    +0.000 C 
ATOM      9  C   UNL     1      47.989   5.781  17.157  0.00  0.00    +0.000 A 
ATOM     10  C   UNL     1      48.097   5.248  15.895  0.00  0.00    +0.000 A 
ATOM     11  N   UNL     1      48.633   5.892  14.828  0.00  0.00    +0.000 NA
ATOM     12  H   UNL     1      49.881   8.785  14.505  0.00  0.00    +0.000 HD
BRANCH  10  13
ATOM     13  C   UNL     1      47.622   3.846  15.663  0.00  0.00    +0.000 C 
ATOM     14  N   UNL     1      47.216   3.159  16.777  0.00  0.00    +0.000 N 
ATOM     15  O   UNL     1      47.583   3.339  14.548  0.00  0.00    +0.000 OA
ATOM     16  H   UNL     1      47.197   3.630  17.674  0.00  0.00    +0.000 HD
ATOM     17  H   UNL     1      46.827   2.235  16.672  0.00  0.00    +0.000 HD
ENDBRANCH  10  13
ENDBRANCH   1   4
BRANCH   1  22
ATOM     18  C   UNL     1      45.824   6.579  11.676  0.00  0.00    +0.000 A 
ATOM     19  C   UNL     1      45.011   7.577  12.239  0.00  0.00    +0.000 A 
ATOM     20  C   UNL     1      45.568   8.642  12.953  0.00  0.00    +0.000 A 
ATOM     21  C   UNL     1      46.951   8.738  13.100  0.00  0.00    +0.000 A 
ATOM     22  C   UNL     1      47.809   7.776  12.542  0.00  0.00    +0.000 A 
ATOM     23  C   UNL     1      47.214   6.705  11.857  0.00  0.00    +0.000 A 
BRANCH  18  29
ATOM     24  C   UNL     1      45.685   3.707   7.553  0.00  0.00    +0.000 C 
ATOM     25  C   UNL     1      45.187   4.033   8.924  0.00  0.00    +0.000 A 
ATOM     26  C   UNL     1      44.229   3.263   9.565  0.00  0.00    +0.000 A 
ATOM     27  N   UNL     1      43.770   3.512  10.808  0.00  0.00    +0.000 NA
ATOM     28  C   UNL     1      44.302   4.583  11.450  0.00  0.00    +0.000 A 
ATOM     29  C   UNL     1      45.268   5.439  10.922  0.00  0.00    +0.000 A 
ATOM     30  C   UNL     1      45.698   5.133   9.620  0.00  0.00    +0.000 A 
ENDBRANCH  18  29
ENDBRANCH   1  22
TORSDOF 4
ENDMDL
MODEL 2
REMARK VINA RESULT:    -7.128      2.229      6.766
REMARK INTER + INTRA:          -9.357
REMARK INTER:                  -8.405
REMARK INTRA:                  -0.952
REMARK UNBOUND:                -0.562
REMARK  Name = 
REMARK  6 active torsions:
REMARK  status: ('A' for Active; 'I' for Inactive)
REMARK    1  A    between atoms: C_1  and  C_2
REMARK    2  A    between atoms: C_6  and  C_7
REMARK    3  A    between atoms: C_11  and  C_12
REMARK    4  A    between atoms: C_12  and  N_13
REMARK    5  A    between atoms: C_16  and  C_17
REMARK    6  A    between atoms: C_19  and  C_20
REMARK                            x       y       z     vdW  Elec       q    Type
REMARK                         _______ _______ _______ _____ _____    ______ ____
ROOT
ATOM      1  C   UNL     1      45.369   7.511  11.384  0.00  0.00    +0.000 C 
ATOM      2  C   UNL     1      44.859   8.940  11.493  0.00  0.00    +0.000 C 
ATOM      3  C   UNL     1      44.159   7.849  12.236  0.00  0.00    +0.000 C 
ENDROOT
BRANCH   1   4
ATOM      4  N   UNL     1      45.189   6.802  10.108  0.00  0.00    +0.000 N 
ATOM      5  C   UNL     1      45.086   5.405  10.067  0.00  0.00    +0.000 A 
ATOM      6  N   UNL     1      45.669   4.837   8.999  0.00  0.00    +0.000 NA
ATOM      7  C   UNL     1      45.564   3.504   8.836  0.00  0.00    +0.000 A 
ATOM      8  C   UNL     1      46.245   2.908   7.641  0.00  0.00    +0.000 C 
ATOM      9  C   UNL     1      44.865   2.716   9.713  0.00  0.00    +0.000 A 
ATOM     10  C   UNL     1      44.303   3.381  10.777  0.00  0.00    +0.000 A 
ATOM     11  N   UNL     1      44.406   4.717  10.993  0.00  0.00    +0.000 NA
ATOM     12  H   UNL     1      45.867   7.020   9.383  0.00  0.00    +0.000 HD
BRANCH  10  13
ATOM     13  C   UNL     1      43.489   2.602  11.764  0.00  0.00    +0.000 C 
ATOM     14  N   UNL     1      43.586   3.004  13.070  0.00  0.00    +0.000 N 
ATOM     15  O   UNL     1      42.767   1.669  11.433  0.00  0.00    +0.000 OA
ATOM     16  H   UNL     1      44.139   3.822  13.301  0.00  0.00    +0.000 HD
ATOM     17  H   UNL     1      43.011   2.558  13.768  0.00  0.00    +0.000 HD
ENDBRANCH  10  13
ENDBRANCH   1   4
BRANCH   1  22
ATOM     18  C   UNL     1      47.942   6.200  13.943  0.00  0.00    +0.000 A 
ATOM     19  C   UNL     1      49.142   6.629  13.350  0.00  0.00    +0.000 A 
ATOM     20  C   UNL     1      49.139   7.317  12.133  0.00  0.00    +0.000 A 
ATOM     21  C   UNL     1      47.933   7.606  11.497  0.00  0.00    +0.000 A 
ATOM     22  C   UNL     1      46.705   7.215  12.056  0.00  0.00    +0.000 A 
ATOM     23  C   UNL     1      46.746   6.500  13.263  0.00  0.00    +0.000 A 
BRANCH  18  29
ATOM     24  C   UNL     1      49.393   5.679  18.727  0.00  0.00    +0.000 C 
ATOM     25  C   UNL     1      48.606   5.199  17.551  0.00  0.00    +0.000 A 
ATOM     26  C   UNL     1      47.782   4.086  17.617  0.00  0.00    +0.000 A 
ATOM     27  N   UNL     1      47.042   3.634  16.585  0.00  0.00    +0.000 NA
ATOM     28  C   UNL     1      47.121   4.335  15.426  0.00  0.00    +0.000 A 
ATOM     29  C   UNL     1      47.911   5.467  15.223  0.00  0.00    +0.000 A 
ATOM     30  C   UNL     1      48.666   5.883  16.333  0.00  0.00    +0.000 A 
ENDBRANCH  18  29
ENDBRANCH   1  22
TORSDOF 4
ENDMDL
MODEL 3
REMARK VINA RESULT:    -6.772      1.926      2.785
REMARK INTER + INTRA:          -8.917
REMARK INTER:                  -8.818
REMARK INTRA:                  -0.100
REMARK UNBOUND:                -0.562
REMARK  Name = 
REMARK  6 active torsions:
REMARK  status: ('A' for Active; 'I' for Inactive)
REMARK    1  A    between atoms: C_1  and  C_2
REMARK    2  A    between atoms: C_6  and  C_7
REMARK    3  A    between atoms: C_11  and  C_12
REMARK    4  A    between atoms: C_12  and  N_13
REMARK    5  A    between atoms: C_16  and  C_17
REMARK    6  A    between atoms: C_19  and  C_20
REMARK                            x       y       z     vdW  Elec       q    Type
REMARK                         _______ _______ _______ _____ _____    ______ ____
ROOT
ATOM      1  C   UNL     1      49.355   8.331  15.507  0.00  0.00    +0.000 C 
ATOM      2  C   UNL     1      48.257   8.767  16.465  0.00  0.00    +0.000 C 
ATOM      3  C   UNL     1      49.267   9.764  15.999  0.00  0.00    +0.000 C 
ENDROOT
BRANCH   1   4
ATOM      4  N   UNL     1      50.416   7.448  16.017  0.00  0.00    +0.000 N 
ATOM      5  C   UNL     1      50.104   6.260  16.691  0.00  0.00    +0.000 A 
ATOM      6  N   UNL     1      50.935   5.961  17.703  0.00  0.00    +0.000 NA
ATOM      7  C   UNL     1      50.758   4.804  18.367  0.00  0.00    +0.000 A 
ATOM      8  C   UNL     1      51.696   4.517  19.501  0.00  0.00    +0.000 C 
ATOM      9  C   UNL     1      49.770   3.914  18.029  0.00  0.00    +0.000 A 
ATOM     10  C   UNL     1      48.967   4.302  16.984  0.00  0.00    +0.000 A 
ATOM     11  N   UNL     1      49.094   5.470  16.305  0.00  0.00    +0.000 NA
ATOM     12  H   UNL     1      51.111   7.892  16.610  0.00  0.00    +0.000 HD
BRANCH  10  13
ATOM     13  C   UNL     1      47.885   3.373  16.525  0.00  0.00    +0.000 C 
ATOM     14  N   UNL     1      46.880   3.132  17.423  0.00  0.00    +0.000 N 
ATOM     15  O   UNL     1      47.884   2.864  15.410  0.00  0.00    +0.000 OA
ATOM     16  H   UNL     1      46.876   3.622  18.311  0.00  0.00    +0.000 HD
ATOM     17  H   UNL     1      46.093   2.566  17.145  0.00  0.00    +0.000 HD
ENDBRANCH  10  13
ENDBRANCH   1   4
BRANCH   1  22
ATOM     18  C   UNL     1      47.440   6.708  12.577  0.00  0.00    +0.000 A 
ATOM     19  C   UNL     1      48.065   7.327  11.482  0.00  0.00    +0.000 A 
ATOM     20  C   UNL     1      49.080   8.270  11.669  0.00  0.00    +0.000 A 
ATOM     21  C   UNL     1      49.501   8.596  12.957  0.00  0.00    +0.000 A 
ATOM     22  C   UNL     1      48.921   7.994  14.086  0.00  0.00    +0.000 A 
ATOM     23  C   UNL     1      47.884   7.074  13.862  0.00  0.00    +0.000 A 
BRANCH  18  29
ATOM     24  C   UNL     1      44.141   4.263   9.679  0.00  0.00    +0.000 C 
ATOM     25  C   UNL     1      44.751   4.516  11.020  0.00  0.00    +0.000 A 
ATOM     26  C   UNL     1      44.376   3.806  12.149  0.00  0.00    +0.000 A 
ATOM     27  N   UNL     1      44.918   3.990  13.370  0.00  0.00    +0.000 NA
ATOM     28  C   UNL     1      45.893   4.929  13.467  0.00  0.00    +0.000 A 
ATOM     29  C   UNL     1      46.362   5.714  12.414  0.00  0.00    +0.000 A 
ATOM     30  C   UNL     1      45.752   5.481  11.170  0.00  0.00    +0.000 A 
ENDBRANCH  18  29
ENDBRANCH   1  22
TORSDOF 4
ENDMDL
MODEL 4
REMARK VINA RESULT:    -6.471      3.005      6.905
REMARK INTER + INTRA:          -8.547
REMARK INTER:                  -8.455
REMARK INTRA:                  -0.091
REMARK UNBOUND:                -0.562
REMARK  Name = 
REMARK  6 active torsions:
REMARK  status: ('A' for Active; 'I' for Inactive)
REMARK    1  A    between atoms: C_1  and  C_2
REMARK    2  A    between atoms: C_6  and  C_7
REMARK    3  A    between atoms: C_11  and  C_12
REMARK    4  A    between atoms: C_12  and  N_13
REMARK    5  A    between atoms: C_16  and  C_17
REMARK    6  A    between atoms: C_19  and  C_20
REMARK                            x       y       z     vdW  Elec       q    Type
REMARK                         _______ _______ _______ _____ _____    ______ ____
ROOT
ATOM      1  C   UNL     1      49.241   7.921  15.364  0.00  0.00    +0.000 C 
ATOM      2  C   UNL     1      50.334   7.685  14.333  0.00  0.00    +0.000 C 
ATOM      3  C   UNL     1      50.310   8.965  15.101  0.00  0.00    +0.000 C 
ENDROOT
BRANCH   1   4
ATOM      4  N   UNL     1      47.868   8.145  14.887  0.00  0.00    +0.000 N 
ATOM      5  C   UNL     1      47.233   7.216  14.052  0.00  0.00    +0.000 A 
ATOM      6  N   UNL     1      46.438   7.762  13.118  0.00  0.00    +0.000 NA
ATOM      7  C   UNL     1      45.731   6.947  12.312  0.00  0.00    +0.000 A 
ATOM      8  C   UNL     1      44.869   7.597  11.271  0.00  0.00    +0.000 C 
ATOM      9  C   UNL     1      45.783   5.582  12.430  0.00  0.00    +0.000 A 
ATOM     10  C   UNL     1      46.624   5.111  13.410  0.00  0.00    +0.000 A 
ATOM     11  N   UNL     1      47.373   5.896  14.226  0.00  0.00    +0.000 NA
ATOM     12  H   UNL     1      47.700   9.039  14.433  0.00  0.00    +0.000 HD
BRANCH  10  13
ATOM     13  C   UNL     1      46.713   3.632  13.633  0.00  0.00    +0.000 C 
ATOM     14  N   UNL     1      45.867   2.862  12.881  0.00  0.00    +0.000 N 
ATOM     15  O   UNL     1      47.501   3.132  14.427  0.00  0.00    +0.000 OA
ATOM     16  H   UNL     1      45.277   3.302  12.184  0.00  0.00    +0.000 HD
ATOM     17  H   UNL     1      45.929   1.857  12.941  0.00  0.00    +0.000 HD
ENDBRANCH  10  13
ENDBRANCH   1   4
BRANCH   1  22
ATOM     18  C   UNL     1      50.054   4.996  17.746  0.00  0.00    +0.000 A 
ATOM     19  C   UNL     1      49.475   5.462  18.939  0.00  0.00    +0.000 A 
ATOM     20  C   UNL     1      48.843   6.707  18.995  0.00  0.00    +0.000 A 
ATOM     21  C   UNL     1      48.762   7.501  17.852  0.00  0.00    +0.000 A 
ATOM     22  C   UNL     1      49.309   7.075  16.631  0.00  0.00    +0.000 A 
ATOM     23  C   UNL     1      49.962   5.833  16.618  0.00  0.00    +0.000 A 
BRANCH  18  29
ATOM     24  C   UNL     1      54.089   2.097  18.502  0.00  0.00    +0.000 C 
ATOM     25  C   UNL     1      52.687   2.265  18.014  0.00  0.00    +0.000 A 
ATOM     26  C   UNL     1      51.949   1.208  17.506  0.00  0.00    +0.000 A 
ATOM     27  N   UNL     1      50.675   1.316  17.076  0.00  0.00    +0.000 NA
ATOM     28  C   UNL     1      50.104   2.544  17.167  0.00  0.00    +0.000 A 
ATOM     29  C   UNL     1      50.733   3.689  17.655  0.00  0.00    +0.000 A 
ATOM     30  C   UNL     1      52.061   3.514  18.078  0.00  0.00    +0.000 A 
ENDBRANCH  18  29
ENDBRANCH   1  22
TORSDOF 4
ENDMDL
MODEL 5
REMARK VINA RESULT:    -6.285      4.059      8.267
REMARK INTER + INTRA:          -8.317
REMARK INTER:                  -7.633
REMARK INTRA:                  -0.684
REMARK UNBOUND:                -0.562
REMARK  Name = 
REMARK  6 active torsions:
REMARK  status: ('A' for Active; 'I' for Inactive)
REMARK    1  A    between atoms: C_1  and  C_2
REMARK    2  A    between atoms: C_6  and  C_7
REMARK    3  A    between atoms: C_11  and  C_12
REMARK    4  A    between atoms: C_12  and  N_13
REMARK    5  A    between atoms: C_16  and  C_17
REMARK    6  A    between atoms: C_19  and  C_20
REMARK                            x       y       z     vdW  Elec       q    Type
REMARK                         _______ _______ _______ _____ _____    ______ ____
ROOT
ATOM      1  C   UNL     1      48.360   5.516  17.742  0.00  0.00    +0.000 C 
ATOM      2  C   UNL     1      48.281   5.968  19.192  0.00  0.00    +0.000 C 
ATOM      3  C   UNL     1      47.053   5.461  18.511  0.00  0.00    +0.000 C 
ENDROOT
BRANCH   1   4
ATOM      4  N   UNL     1      48.552   6.538  16.701  0.00  0.00    +0.000 N 
ATOM      5  C   UNL     1      48.236   6.272  15.363  0.00  0.00    +0.000 A 
ATOM      6  N   UNL     1      49.071   6.836  14.474  0.00  0.00    +0.000 NA
ATOM      7  C   UNL     1      48.810   6.695  13.160  0.00  0.00    +0.000 A 
ATOM      8  C   UNL     1      49.776   7.323  12.201  0.00  0.00    +0.000 C 
ATOM      9  C   UNL     1      47.710   6.014  12.705  0.00  0.00    +0.000 A 
ATOM     10  C   UNL     1      46.913   5.470  13.684  0.00  0.00    +0.000 A 
ATOM     11  N   UNL     1      47.153   5.566  15.016  0.00  0.00    +0.000 NA
ATOM     12  H   UNL     1      49.479   6.953  16.658  0.00  0.00    +0.000 HD
BRANCH  10  13
ATOM     13  C   UNL     1      45.669   4.741  13.277  0.00  0.00    +0.000 C 
ATOM     14  N   UNL     1      45.826   3.416  12.966  0.00  0.00    +0.000 N 
ATOM     15  O   UNL     1      44.572   5.284  13.233  0.00  0.00    +0.000 OA
ATOM     16  H   UNL     1      46.735   2.981  13.078  0.00  0.00    +0.000 HD
ATOM     17  H   UNL     1      45.013   2.860  12.748  0.00  0.00    +0.000 HD
ENDBRANCH  10  13
ENDBRANCH   1   4
BRANCH   1  22
ATOM     18  C   UNL     1      51.274   2.995  17.549  0.00  0.00    +0.000 A 
ATOM     19  C   UNL     1      50.618   1.878  17.007  0.00  0.00    +0.000 A 
ATOM     20  C   UNL     1      49.251   1.915  16.718  0.00  0.00    +0.000 A 
ATOM     21  C   UNL     1      48.520   3.079  16.949  0.00  0.00    +0.000 A 
ATOM     22  C   UNL     1      49.131   4.229  17.474  0.00  0.00    +0.000 A 
ATOM     23  C   UNL     1      50.498   4.147  17.780  0.00  0.00    +0.000 A 
BRANCH  18  29
ATOM     24  C   UNL     1      55.582   5.438  18.410  0.00  0.00    +0.000 C 
ATOM     25  C   UNL     1      54.817   4.159  18.291  0.00  0.00    +0.000 A 
ATOM     26  C   UNL     1      55.403   2.925  18.522  0.00  0.00    +0.000 A 
ATOM     27  N   UNL     1      54.743   1.751  18.446  0.00  0.00    +0.000 NA
ATOM     28  C   UNL     1      53.424   1.815  18.130  0.00  0.00    +0.000 A 
ATOM     29  C   UNL     1      52.715   2.987  17.871  0.00  0.00    +0.000 A 
ATOM     30  C   UNL     1      53.460   4.175  17.957  0.00  0.00    +0.000 A 
ENDBRANCH  18  29
ENDBRANCH   1  22
TORSDOF 4
ENDMDL
MODEL 6
REMARK VINA RESULT:    -6.270      4.360      8.569
REMARK INTER + INTRA:          -8.298
REMARK INTER:                  -8.287
REMARK INTRA:                  -0.010
REMARK UNBOUND:                -0.562
REMARK  Name = 
REMARK  6 active torsions:
REMARK  status: ('A' for Active; 'I' for Inactive)
REMARK    1  A    between atoms: C_1  and  C_2
REMARK    2  A    between atoms: C_6  and  C_7
REMARK    3  A    between atoms: C_11  and  C_12
REMARK    4  A    between atoms: C_12  and  N_13
REMARK    5  A    between atoms: C_16  and  C_17
REMARK    6  A    between atoms: C_19  and  C_20
REMARK                            x       y       z     vdW  Elec       q    Type
REMARK                         _______ _______ _______ _____ _____    ______ ____
ROOT
ATOM      1  C   UNL     1      48.020   3.446  16.729  0.00  0.00    +0.000 C 
ATOM      2  C   UNL     1      46.867   4.116  17.460  0.00  0.00    +0.000 C 
ATOM      3  C   UNL     1      47.272   2.729  17.837  0.00  0.00    +0.000 C 
ENDROOT
BRANCH   1   4
ATOM      4  N   UNL     1      47.817   3.041  15.329  0.00  0.00    +0.000 N 
ATOM      5  C   UNL     1      47.192   3.897  14.413  0.00  0.00    +0.000 A 
ATOM      6  N   UNL     1      46.404   3.274  13.521  0.00  0.00    +0.000 NA
ATOM      7  C   UNL     1      45.814   4.006  12.557  0.00  0.00    +0.000 A 
ATOM      8  C   UNL     1      44.929   3.275  11.592  0.00  0.00    +0.000 C 
ATOM      9  C   UNL     1      46.008   5.359  12.446  0.00  0.00    +0.000 A 
ATOM     10  C   UNL     1      46.826   5.911  13.402  0.00  0.00    +0.000 A 
ATOM     11  N   UNL     1      47.420   5.216  14.405  0.00  0.00    +0.000 NA
ATOM     12  H   UNL     1      47.349   2.150  15.192  0.00  0.00    +0.000 HD
BRANCH  10  13
ATOM     13  C   UNL     1      47.123   7.378  13.335  0.00  0.00    +0.000 C 
ATOM     14  N   UNL     1      47.734   7.917  14.436  0.00  0.00    +0.000 N 
ATOM     15  O   UNL     1      46.852   8.061  12.354  0.00  0.00    +0.000 OA
ATOM     16  H   UNL     1      48.006   7.312  15.202  0.00  0.00    +0.000 HD
ATOM     17  H   UNL     1      48.016   8.885  14.421  0.00  0.00    +0.000 HD
ENDBRANCH  10  13
ENDBRANCH   1   4
BRANCH   1  22
ATOM     18  C   UNL     1      51.747   3.610  17.714  0.00  0.00    +0.000 A 
ATOM     19  C   UNL     1      52.011   4.975  17.514  0.00  0.00    +0.000 A 
ATOM     20  C   UNL     1      51.016   5.841  17.051  0.00  0.00    +0.000 A 
ATOM     21  C   UNL     1      49.732   5.359  16.799  0.00  0.00    +0.000 A 
ATOM     22  C   UNL     1      49.412   4.006  16.999  0.00  0.00    +0.000 A 
ATOM     23  C   UNL     1      50.443   3.160  17.435  0.00  0.00    +0.000 A 
BRANCH  18  29
ATOM     24  C   UNL     1      54.435  -0.600  17.153  0.00  0.00    +0.000 C 
ATOM     25  C   UNL     1      54.091   0.624  17.939  0.00  0.00    +0.000 A 
ATOM     26  C   UNL     1      54.746   0.957  19.114  0.00  0.00    +0.000 A 
ATOM     27  N   UNL     1      54.480   2.062  19.838  0.00  0.00    +0.000 NA
ATOM     28  C   UNL     1      53.513   2.885  19.360  0.00  0.00    +0.000 A 
ATOM     29  C   UNL     1      52.776   2.668  18.195  0.00  0.00    +0.000 A 
ATOM     30  C   UNL     1      53.094   1.495  17.490  0.00  0.00    +0.000 A 
ENDBRANCH  18  29
ENDBRANCH   1  22
TORSDOF 4
ENDMDL
MODEL 7
REMARK VINA RESULT:    -6.214      2.806      6.605
REMARK INTER + INTRA:          -8.229
REMARK INTER:                  -7.311
REMARK INTRA:                  -0.917
REMARK UNBOUND:                -0.562
REMARK  Name = 
REMARK  6 active torsions:
REMARK  status: ('A' for Active; 'I' for Inactive)
REMARK    1  A    between atoms: C_1  and  C_2
REMARK    2  A    between atoms: C_6  and  C_7
REMARK    3  A    between atoms: C_11  and  C_12
REMARK    4  A    between atoms: C_12  and  N_13
REMARK    5  A    between atoms: C_16  and  C_17
REMARK    6  A    between atoms: C_19  and  C_20
REMARK                            x       y       z     vdW  Elec       q    Type
REMARK                         _______ _______ _______ _____ _____    ______ ____
ROOT
ATOM      1  C   UNL     1      49.177   7.933  12.678  0.00  0.00    +0.000 C 
ATOM      2  C   UNL     1      50.574   8.188  12.132  0.00  0.00    +0.000 C 
ATOM      3  C   UNL     1      49.455   9.099  11.746  0.00  0.00    +0.000 C 
ENDROOT
BRANCH   1   4
ATOM      4  N   UNL     1      48.437   6.762  12.182  0.00  0.00    +0.000 N 
ATOM      5  C   UNL     1      47.037   6.748  12.165  0.00  0.00    +0.000 A 
ATOM      6  N   UNL     1      46.490   5.555  12.449  0.00  0.00    +0.000 NA
ATOM      7  C   UNL     1      45.151   5.425  12.390  0.00  0.00    +0.000 A 
ATOM      8  C   UNL     1      44.580   4.081  12.732  0.00  0.00    +0.000 C 
ATOM      9  C   UNL     1      44.333   6.465  12.029  0.00  0.00    +0.000 A 
ATOM     10  C   UNL     1      44.978   7.648  11.758  0.00  0.00    +0.000 A 
ATOM     11  N   UNL     1      46.321   7.829  11.830  0.00  0.00    +0.000 NA
ATOM     12  H   UNL     1      48.687   5.872  12.605  0.00  0.00    +0.000 HD
BRANCH  10  13
ATOM     13  C   UNL     1      44.164   8.827  11.319  0.00  0.00    +0.000 C 
ATOM     14  N   UNL     1      42.936   8.541  10.784  0.00  0.00    +0.000 N 
ATOM     15  O   UNL     1      44.557   9.981  11.440  0.00  0.00    +0.000 OA
ATOM     16  H   UNL     1      42.613   7.580  10.761  0.00  0.00    +0.000 HD
ATOM     17  H   UNL     1      42.319   9.297  10.531  0.00  0.00    +0.000 HD
ENDBRANCH  10  13
ENDBRANCH   1   4
BRANCH   1  22
ATOM     18  C   UNL     1      48.822   7.289  16.466  0.00  0.00    +0.000 A 
ATOM     19  C   UNL     1      48.606   8.596  16.934  0.00  0.00    +0.000 A 
ATOM     20  C   UNL     1      48.590   9.683  16.055  0.00  0.00    +0.000 A 
ATOM     21  C   UNL     1      48.770   9.478  14.688  0.00  0.00    +0.000 A 
ATOM     22  C   UNL     1      48.973   8.190  14.166  0.00  0.00    +0.000 A 
ATOM     23  C   UNL     1      49.013   7.126  15.080  0.00  0.00    +0.000 A 
BRANCH  18  29
ATOM     24  C   UNL     1      50.022   2.494  17.381  0.00  0.00    +0.000 C 
ATOM     25  C   UNL     1      49.427   3.791  17.828  0.00  0.00    +0.000 A 
ATOM     26  C   UNL     1      48.926   3.971  19.108  0.00  0.00    +0.000 A 
ATOM     27  N   UNL     1      48.401   5.130  19.555  0.00  0.00    +0.000 NA
ATOM     28  C   UNL     1      48.383   6.168  18.680  0.00  0.00    +0.000 A 
ATOM     29  C   UNL     1      48.851   6.120  17.367  0.00  0.00    +0.000 A 
ATOM     30  C   UNL     1      49.377   4.883  16.958  0.00  0.00    +0.000 A 
ENDBRANCH  18  29
ENDBRANCH   1  22
TORSDOF 4
ENDMDL
MODEL 8
REMARK VINA RESULT:    -5.936      2.132      2.730
REMARK INTER + INTRA:          -7.886
REMARK INTER:                  -6.953
REMARK INTRA:                  -0.932
REMARK UNBOUND:                -0.562
REMARK  Name = 
REMARK  6 active torsions:
REMARK  status: ('A' for Active; 'I' for Inactive)
REMARK    1  A    between atoms: C_1  and  C_2
REMARK    2  A    between atoms: C_6  and  C_7
REMARK    3  A    between atoms: C_11  and  C_12
REMARK    4  A    between atoms: C_12  and  N_13
REMARK    5  A    between atoms: C_16  and  C_17
REMARK    6  A    between atoms: C_19  and  C_20
REMARK                            x       y       z     vdW  Elec       q    Type
REMARK                         _______ _______ _______ _____ _____    ______ ____
ROOT
ATOM      1  C   UNL     1      50.120   8.485  15.046  0.00  0.00    +0.000 C 
ATOM      2  C   UNL     1      51.434   8.805  14.350  0.00  0.00    +0.000 C 
ATOM      3  C   UNL     1      51.182   7.419  14.846  0.00  0.00    +0.000 C 
ENDROOT
BRANCH   1   4
ATOM      4  N   UNL     1      49.888   9.042  16.388  0.00  0.00    +0.000 N 
ATOM      5  C   UNL     1      49.016   8.416  17.288  0.00  0.00    +0.000 A 
ATOM      6  N   UNL     1      48.306   9.262  18.052  0.00  0.00    +0.000 NA
ATOM      7  C   UNL     1      47.491   8.754  18.996  0.00  0.00    +0.000 A 
ATOM      8  C   UNL     1      46.702   9.732  19.815  0.00  0.00    +0.000 C 
ATOM      9  C   UNL     1      47.380   7.405  19.214  0.00  0.00    +0.000 A 
ATOM     10  C   UNL     1      48.142   6.615  18.385  0.00  0.00    +0.000 A 
ATOM     11  N   UNL     1      48.956   7.084  17.406  0.00  0.00    +0.000 NA
ATOM     12  H   UNL     1      49.612  10.020  16.417  0.00  0.00    +0.000 HD
BRANCH  10  13
ATOM     13  C   UNL     1      48.110   5.130  18.579  0.00  0.00    +0.000 C 
ATOM     14  N   UNL     1      49.004   4.625  19.485  0.00  0.00    +0.000 N 
ATOM     15  O   UNL     1      47.328   4.403  17.977  0.00  0.00    +0.000 OA
ATOM     16  H   UNL     1      49.590   5.260  20.016  0.00  0.00    +0.000 HD
ATOM     17  H   UNL     1      48.984   3.640  19.704  0.00  0.00    +0.000 HD
ENDBRANCH  10  13
ENDBRANCH   1   4
BRANCH   1  22
ATOM     18  C   UNL     1      47.066   7.193  13.074  0.00  0.00    +0.000 A 
ATOM     19  C   UNL     1      46.557   8.398  12.563  0.00  0.00    +0.000 A 
ATOM     20  C   UNL     1      47.168   9.621  12.854  0.00  0.00    +0.000 A 
ATOM     21  C   UNL     1      48.313   9.657  13.648  0.00  0.00    +0.000 A 
ATOM     22  C   UNL     1      48.872   8.480  14.171  0.00  0.00    +0.000 A 
ATOM     23  C   UNL     1      48.216   7.273  13.883  0.00  0.00    +0.000 A 
BRANCH  18  29
ATOM     24  C   UNL     1      44.110   4.276  10.243  0.00  0.00    +0.000 C 
ATOM     25  C   UNL     1      45.007   4.454  11.425  0.00  0.00    +0.000 A 
ATOM     26  C   UNL     1      45.331   3.406  12.272  0.00  0.00    +0.000 A 
ATOM     27  N   UNL     1      46.152   3.522  13.335  0.00  0.00    +0.000 NA
ATOM     28  C   UNL     1      46.686   4.749  13.561  0.00  0.00    +0.000 A 
ATOM     29  C   UNL     1      46.441   5.886  12.791  0.00  0.00    +0.000 A 
ATOM     30  C   UNL     1      45.570   5.703  11.703  0.00  0.00    +0.000 A 
ENDBRANCH  18  29
ENDBRANCH   1  22
TORSDOF 4
ENDMDL
MODEL 9
REMARK VINA RESULT:    -5.925      4.254      8.325
REMARK INTER + INTRA:          -7.873
REMARK INTER:                  -8.329
REMARK INTRA:                   0.456
REMARK UNBOUND:                -0.562
REMARK  Name = 
REMARK  6 active torsions:
REMARK  status: ('A' for Active; 'I' for Inactive)
REMARK    1  A    between atoms: C_1  and  C_2
REMARK    2  A    between atoms: C_6  and  C_7
REMARK    3  A    between atoms: C_11  and  C_12
REMARK    4  A    between atoms: C_12  and  N_13
REMARK    5  A    between atoms: C_16  and  C_17
REMARK    6  A    between atoms: C_19  and  C_20
REMARK                            x       y       z     vdW  Elec       q    Type
REMARK                         _______ _______ _______ _____ _____    ______ ____
ROOT
ATOM      1  C   UNL     1      48.294   4.238  16.860  0.00  0.00    +0.000 C 
ATOM      2  C   UNL     1      47.135   3.391  17.361  0.00  0.00    +0.000 C 
ATOM      3  C   UNL     1      47.981   2.890  16.237  0.00  0.00    +0.000 C 
ENDROOT
BRANCH   1   4
ATOM      4  N   UNL     1      47.988   5.473  16.120  0.00  0.00    +0.000 N 
ATOM      5  C   UNL     1      47.465   5.425  14.822  0.00  0.00    +0.000 A 
ATOM      6  N   UNL     1      47.914   6.394  14.007  0.00  0.00    +0.000 NA
ATOM      7  C   UNL     1      47.416   6.472  12.758  0.00  0.00    +0.000 A 
ATOM      8  C   UNL     1      47.957   7.556  11.875  0.00  0.00    +0.000 C 
ATOM      9  C   UNL     1      46.453   5.609  12.302  0.00  0.00    +0.000 A 
ATOM     10  C   UNL     1      46.055   4.650  13.202  0.00  0.00    +0.000 A 
ATOM     11  N   UNL     1      46.548   4.519  14.460  0.00  0.00    +0.000 NA
ATOM     12  H   UNL     1      48.747   6.146  16.055  0.00  0.00    +0.000 HD
BRANCH  10  13
ATOM     13  C   UNL     1      44.979   3.688  12.800  0.00  0.00    +0.000 C 
ATOM     14  N   UNL     1      45.278   2.859  11.752  0.00  0.00    +0.000 N 
ATOM     15  O   UNL     1      43.898   3.630  13.375  0.00  0.00    +0.000 OA
ATOM     16  H   UNL     1      46.205   2.886  11.342  0.00  0.00    +0.000 HD
ATOM     17  H   UNL     1      44.616   2.148  11.479  0.00  0.00    +0.000 HD
ENDBRANCH  10  13
ENDBRANCH   1   4
BRANCH   1  22
ATOM     18  C   UNL     1      51.849   3.838  18.307  0.00  0.00    +0.000 A 
ATOM     19  C   UNL     1      51.738   4.596  19.484  0.00  0.00    +0.000 A 
ATOM     20  C   UNL     1      50.546   5.247  19.813  0.00  0.00    +0.000 A 
ATOM     21  C   UNL     1      49.436   5.136  18.978  0.00  0.00    +0.000 A 
ATOM     22  C   UNL     1      49.488   4.377  17.797  0.00  0.00    +0.000 A 
ATOM     23  C   UNL     1      50.710   3.761  17.483  0.00  0.00    +0.000 A 
BRANCH  18  29
ATOM     24  C   UNL     1      54.349  -0.385  17.221  0.00  0.00    +0.000 C 
ATOM     25  C   UNL     1      54.325   1.099  17.398  0.00  0.00    +0.000 A 
ATOM     26  C   UNL     1      55.441   1.888  17.170  0.00  0.00    +0.000 A 
ATOM     27  N   UNL     1      55.453   3.230  17.298  0.00  0.00    +0.000 NA
ATOM     28  C   UNL     1      54.286   3.818  17.666  0.00  0.00    +0.000 A 
ATOM     29  C   UNL     1      53.094   3.142  17.928  0.00  0.00    +0.000 A 
ATOM     30  C   UNL     1      53.148   1.746  17.786  0.00  0.00    +0.000 A 
ENDBRANCH  18  29
ENDBRANCH   1  22
TORSDOF 4
ENDMDL
