MODEL 1
REMARK VINA RESULT:    -8.245      0.000      0.000
REMARK INTER + INTRA:          -9.562
REMARK INTER:                  -9.691
REMARK INTRA:                   0.129
REMARK UNBOUND:                 0.129
REMARK  Name = 
REMARK  3 active torsions:
REMARK  status: ('A' for Active; 'I' for Inactive)
REMARK    1  A    between atoms: C_2  and  C_4
REMARK    2  A    between atoms: N_8  and  C_9
REMARK    3  A    between atoms: C_9  and  C_10
REMARK                            x       y       z     vdW  Elec       q    Type
REMARK                         _______ _______ _______ _____ _____    ______ ____
ROOT
ATOM      1  C   UNL     1      46.402   2.738   7.569  0.00  0.00    +0.000 A 
ATOM      2  C   UNL     1      46.173   4.068   7.898  0.00  0.00    +0.000 A 
ATOM      3  C   UNL     1      45.336   4.364   8.974  0.00  0.00    +0.000 A 
ATOM      4  C   UNL     1      44.749   3.341   9.712  0.00  0.00    +0.000 A 
ATOM      5  N   UNL     1      43.907   3.575  10.804  0.00  0.00    +0.000 N 
ATOM      6  N   UNL     1      44.950   2.046   9.386  0.00  0.00    +0.000 NA
ATOM      7  C   UNL     1      45.753   1.771   8.321  0.00  0.00    +0.000 A 
ATOM      8  H   UNL     1      43.694   2.683  11.240  0.00  0.00    +0.000 HD
ENDROOT
BRANCH   1  10
ATOM      9  N   UNL     1      47.308   3.164   5.359  0.00  0.00    +0.000 N 
ATOM     10  C   UNL     1      47.276   2.335   6.452  0.00  0.00    +0.000 C 
ATOM     11  O   UNL     1      47.959   1.325   6.503  0.00  0.00    +0.000 OA
ATOM     12  H   UNL     1      47.973   2.927   4.634  0.00  0.00    +0.000 HD
ATOM     13  H   UNL     1      46.953   4.109   5.378  0.00  0.00    +0.000 HD
ENDBRANCH   1  10
BRANCH   5  14
ATOM     14  C   UNL     1      43.908   4.808  11.606  0.00  0.00    +0.000 C 
ATOM     15  C   UNL     1      42.610   5.258  12.254  0.00  0.00    +0.000 C 
ATOM     16  C   UNL     1      43.140   6.020  11.088  0.00  0.00    +0.000 C 
BRANCH  14  17
ATOM     17  C   UNL     1      45.232   5.134  12.292  0.00  0.00    +0.000 A 
ATOM     18  C   UNL     1      45.705   4.385  13.378  0.00  0.00    +0.000 A 
ATOM     19  C   UNL     1      46.957   4.665  13.907  0.00  0.00    +0.000 A 
ATOM     20  N   UNL     1      47.762   5.649  13.455  0.00  0.00    +0.000 NA
ATOM     21  C   UNL     1      47.289   6.382  12.430  0.00  0.00    +0.000 A 
ATOM     22  C   UNL     1      46.065   6.161  11.828  0.00  0.00    +0.000 A 
ENDBRANCH  14  17
ENDBRANCH   5  14
TORSDOF 3
ENDMDL
MODEL 2
REMARK VINA RESULT:    -7.002      2.947      6.359
REMARK INTER + INTRA:          -8.102
REMARK INTER:                  -7.798
REMARK INTRA:                  -0.303
REMARK UNBOUND:                 0.129
REMARK  Name = 
REMARK  3 active torsions:
REMARK  status: ('A' for Active; 'I' for Inactive)
REMARK    1  A    between atoms: C_2  and  C_4
REMARK    2  A    between atoms: N_8  and  C_9
REMARK    3  A    between atoms: C_9  and  C_10
REMARK                            x       y       z     vdW  Elec       q    Type
REMARK                         _______ _______ _______ _____ _____    ______ ____
ROOT
ATOM      1  C   UNL     1      47.929   5.896  14.783  0.00  0.00    +0.000 A 
ATOM      2  C   UNL     1      47.642   6.286  13.481  0.00  0.00    +0.000 A 
ATOM      3  C   UNL     1      46.743   5.528  12.731  0.00  0.00    +0.000 A 
ATOM      4  C   UNL     1      46.135   4.406  13.284  0.00  0.00    +0.000 A 
ATOM      5  N   UNL     1      45.221   3.612  12.583  0.00  0.00    +0.000 N 
ATOM      6  N   UNL     1      46.424   4.008  14.541  0.00  0.00    +0.000 NA
ATOM      7  C   UNL     1      47.319   4.744  15.256  0.00  0.00    +0.000 A 
ATOM      8  H   UNL     1      44.838   2.924  13.225  0.00  0.00    +0.000 HD
ENDROOT
BRANCH   1  10
ATOM      9  N   UNL     1      48.313   7.365  16.675  0.00  0.00    +0.000 N 
ATOM     10  C   UNL     1      48.863   6.640  15.648  0.00  0.00    +0.000 C 
ATOM     11  O   UNL     1      50.070   6.595  15.478  0.00  0.00    +0.000 OA
ATOM     12  H   UNL     1      48.964   7.803  17.316  0.00  0.00    +0.000 HD
ATOM     13  H   UNL     1      47.363   7.236  16.989  0.00  0.00    +0.000 HD
ENDBRANCH   1  10
BRANCH   5  14
ATOM     14  C   UNL     1      44.427   4.073  11.434  0.00  0.00    +0.000 C 
ATOM     15  C   UNL     1      43.637   5.364  11.564  0.00  0.00    +0.000 C 
ATOM     16  C   UNL     1      42.905   4.065  11.544  0.00  0.00    +0.000 C 
BRANCH  14  17
ATOM     17  C   UNL     1      44.973   3.671  10.067  0.00  0.00    +0.000 A 
ATOM     18  C   UNL     1      45.453   4.620   9.155  0.00  0.00    +0.000 A 
ATOM     19  C   UNL     1      46.024   4.196   7.964  0.00  0.00    +0.000 A 
ATOM     20  N   UNL     1      46.128   2.900   7.599  0.00  0.00    +0.000 NA
ATOM     21  C   UNL     1      45.639   1.995   8.467  0.00  0.00    +0.000 A 
ATOM     22  C   UNL     1      45.074   2.326   9.684  0.00  0.00    +0.000 A 
ENDBRANCH  14  17
ENDBRANCH   5  14
TORSDOF 3
ENDMDL
MODEL 3
REMARK VINA RESULT:    -6.263      2.834      4.522
REMARK INTER + INTRA:          -7.233
REMARK INTER:                  -6.987
REMARK INTRA:                  -0.246
REMARK UNBOUND:                 0.129
REMARK  Name = 
REMARK  3 active torsions:
REMARK  status: ('A' for Active; 'I' for Inactive)
REMARK    1  A    between atoms: C_2  and  C_4
REMARK    2  A    between atoms: N_8  and  C_9
REMARK    3  A    between atoms: C_9  and  C_10
REMARK                            x       y       z     vdW  Elec       q    Type
REMARK                         _______ _______ _______ _____ _____    ______ ____
ROOT
ATOM      1  C   UNL     1      45.016   3.896  10.076  0.00  0.00    +0.000 A 
ATOM      2  C   UNL     1      45.598   5.122   9.783  0.00  0.00    +0.000 A 
ATOM      3  C   UNL     1      45.983   5.956  10.833  0.00  0.00    +0.000 A 
ATOM      4  C   UNL     1      45.795   5.559  12.153  0.00  0.00    +0.000 A 
ATOM      5  N   UNL     1      46.166   6.348  13.246  0.00  0.00    +0.000 N 
ATOM      6  N   UNL     1      45.211   4.377  12.447  0.00  0.00    +0.000 NA
ATOM      7  C   UNL     1      44.822   3.581  11.412  0.00  0.00    +0.000 A 
ATOM      8  H   UNL     1      46.030   5.804  14.094  0.00  0.00    +0.000 HD
ENDROOT
BRANCH   1  10
ATOM      9  N   UNL     1      44.266   3.483   7.806  0.00  0.00    +0.000 N 
ATOM     10  C   UNL     1      44.584   2.950   9.029  0.00  0.00    +0.000 C 
ATOM     11  O   UNL     1      44.537   1.748   9.231  0.00  0.00    +0.000 OA
ATOM     12  H   UNL     1      44.054   2.822   7.069  0.00  0.00    +0.000 HD
ATOM     13  H   UNL     1      44.519   4.421   7.534  0.00  0.00    +0.000 HD
ENDBRANCH   1  10
BRANCH   5  14
ATOM     14  C   UNL     1      47.189   7.403  13.202  0.00  0.00    +0.000 C 
ATOM     15  C   UNL     1      48.643   7.004  13.015  0.00  0.00    +0.000 C 
ATOM     16  C   UNL     1      48.193   7.501  14.347  0.00  0.00    +0.000 C 
BRANCH  14  17
ATOM     17  C   UNL     1      46.712   8.745  12.652  0.00  0.00    +0.000 A 
ATOM     18  C   UNL     1      47.602   9.675  12.100  0.00  0.00    +0.000 A 
ATOM     19  C   UNL     1      47.107  10.840  11.531  0.00  0.00    +0.000 A 
ATOM     20  N   UNL     1      45.796  11.162  11.494  0.00  0.00    +0.000 NA
ATOM     21  C   UNL     1      44.950  10.276  12.052  0.00  0.00    +0.000 A 
ATOM     22  C   UNL     1      45.352   9.083  12.621  0.00  0.00    +0.000 A 
ENDBRANCH  14  17
ENDBRANCH   5  14
TORSDOF 3
ENDMDL
MODEL 4
REMARK VINA RESULT:    -6.166      2.097      2.750
REMARK INTER + INTRA:          -7.118
REMARK INTER:                  -6.726
REMARK INTRA:                  -0.392
REMARK UNBOUND:                 0.129
REMARK  Name = 
REMARK  3 active torsions:
REMARK  status: ('A' for Active; 'I' for Inactive)
REMARK    1  A    between atoms: C_2  and  C_4
REMARK    2  A    between atoms: N_8  and  C_9
REMARK    3  A    between atoms: C_9  and  C_10
REMARK                            x       y       z     vdW  Elec       q    Type
REMARK                         _______ _______ _______ _____ _____    ______ ____
ROOT
ATOM      1  C   UNL     1      46.310   3.643   7.321  0.00  0.00    +0.000 A 
ATOM      2  C   UNL     1      46.805   4.602   8.196  0.00  0.00    +0.000 A 
ATOM      3  C   UNL     1      45.976   5.086   9.208  0.00  0.00    +0.000 A 
ATOM      4  C   UNL     1      44.676   4.607   9.343  0.00  0.00    +0.000 A 
ATOM      5  N   UNL     1      43.802   5.049  10.342  0.00  0.00    +0.000 N 
ATOM      6  N   UNL     1      44.181   3.691   8.485  0.00  0.00    +0.000 NA
ATOM      7  C   UNL     1      44.994   3.241   7.489  0.00  0.00    +0.000 A 
ATOM      8  H   UNL     1      42.960   4.482  10.303  0.00  0.00    +0.000 HD
ENDROOT
BRANCH   1  10
ATOM      9  N   UNL     1      48.412   2.730   6.526  0.00  0.00    +0.000 N 
ATOM     10  C   UNL     1      47.118   3.073   6.227  0.00  0.00    +0.000 C 
ATOM     11  O   UNL     1      46.652   2.889   5.115  0.00  0.00    +0.000 OA
ATOM     12  H   UNL     1      48.933   2.261   5.795  0.00  0.00    +0.000 HD
ATOM     13  H   UNL     1      48.751   2.643   7.472  0.00  0.00    +0.000 HD
ENDBRANCH   1  10
BRANCH   5  14
ATOM     14  C   UNL     1      44.227   5.656  11.612  0.00  0.00    +0.000 C 
ATOM     15  C   UNL     1      44.949   4.788  12.630  0.00  0.00    +0.000 C 
ATOM     16  C   UNL     1      43.545   5.210  12.902  0.00  0.00    +0.000 C 
BRANCH  14  17
ATOM     17  C   UNL     1      44.553   7.145  11.542  0.00  0.00    +0.000 A 
ATOM     18  C   UNL     1      43.689   8.062  10.929  0.00  0.00    +0.000 A 
ATOM     19  C   UNL     1      43.989   9.417  10.972  0.00  0.00    +0.000 A 
ATOM     20  N   UNL     1      45.095   9.925  11.555  0.00  0.00    +0.000 NA
ATOM     21  C   UNL     1      45.935   9.035  12.116  0.00  0.00    +0.000 A 
ATOM     22  C   UNL     1      45.707   7.672  12.139  0.00  0.00    +0.000 A 
ENDBRANCH  14  17
ENDBRANCH   5  14
TORSDOF 3
ENDMDL
MODEL 5
REMARK VINA RESULT:    -6.080      2.994      6.261
REMARK INTER + INTRA:          -7.017
REMARK INTER:                  -7.654
REMARK INTRA:                   0.637
REMARK UNBOUND:                 0.129
REMARK  Name = 
REMARK  3 active torsions:
REMARK  status: ('A' for Active; 'I' for Inactive)
REMARK    1  A    between atoms: C_2  and  C_4
REMARK    2  A    between atoms: N_8  and  C_9
REMARK    3  A    between atoms: C_9  and  C_10
REMARK                            x       y       z     vdW  Elec       q    Type
REMARK                         _______ _______ _______ _____ _____    ______ ____
ROOT
ATOM      1  C   UNL     1      46.857   7.765  13.054  0.00  0.00    +0.000 A 
ATOM      2  C   UNL     1      46.898   6.406  13.337  0.00  0.00    +0.000 A 
ATOM      3  C   UNL     1      45.993   5.555  12.702  0.00  0.00    +0.000 A 
ATOM      4  C   UNL     1      45.071   6.062  11.792  0.00  0.00    +0.000 A 
ATOM      5  N   UNL     1      44.144   5.258  11.120  0.00  0.00    +0.000 N 
ATOM      6  N   UNL     1      45.010   7.384  11.527  0.00  0.00    +0.000 NA
ATOM      7  C   UNL     1      45.886   8.206  12.169  0.00  0.00    +0.000 A 
ATOM      8  H   UNL     1      43.659   5.832  10.437  0.00  0.00    +0.000 HD
ENDROOT
BRANCH   1  10
ATOM      9  N   UNL     1      47.520   9.092  14.975  0.00  0.00    +0.000 N 
ATOM     10  C   UNL     1      47.779   8.735  13.675  0.00  0.00    +0.000 C 
ATOM     11  O   UNL     1      48.742   9.180  13.074  0.00  0.00    +0.000 OA
ATOM     12  H   UNL     1      48.204   9.690  15.421  0.00  0.00    +0.000 HD
ATOM     13  H   UNL     1      46.891   8.574  15.570  0.00  0.00    +0.000 HD
ENDBRANCH   1  10
BRANCH   5  14
ATOM     14  C   UNL     1      44.307   3.814  10.889  0.00  0.00    +0.000 C 
ATOM     15  C   UNL     1      43.269   2.862  11.457  0.00  0.00    +0.000 C 
ATOM     16  C   UNL     1      44.624   2.912  12.077  0.00  0.00    +0.000 C 
BRANCH  14  17
ATOM     17  C   UNL     1      45.024   3.443   9.594  0.00  0.00    +0.000 A 
ATOM     18  C   UNL     1      45.534   4.418   8.726  0.00  0.00    +0.000 A 
ATOM     19  C   UNL     1      46.257   4.027   7.608  0.00  0.00    +0.000 A 
ATOM     20  N   UNL     1      46.489   2.740   7.274  0.00  0.00    +0.000 NA
ATOM     21  C   UNL     1      45.972   1.809   8.097  0.00  0.00    +0.000 A 
ATOM     22  C   UNL     1      45.258   2.107   9.242  0.00  0.00    +0.000 A 
ENDBRANCH  14  17
ENDBRANCH   5  14
TORSDOF 3
ENDMDL
MODEL 6
REMARK VINA RESULT:    -6.020      3.439      5.546
REMARK INTER + INTRA:          -6.947
REMARK INTER:                  -6.607
REMARK INTRA:                  -0.340
REMARK UNBOUND:                 0.129
REMARK  Name = 
REMARK  3 active torsions:
REMARK  status: ('A' for Active; 'I' for Inactive)
REMARK    1  A    between atoms: C_2  and  C_4
REMARK    2  A    between atoms: N_8  and  C_9
REMARK    3  A    between atoms: C_9  and  C_10
REMARK                            x       y       z     vdW  Elec       q    Type
REMARK                         _______ _______ _______ _____ _____    ______ ____
ROOT
ATOM      1  C   UNL     1      44.668   5.124  10.938  0.00  0.00    +0.000 A 
ATOM      2  C   UNL     1      45.856   5.739  10.565  0.00  0.00    +0.000 A 
ATOM      3  C   UNL     1      46.418   6.695  11.411  0.00  0.00    +0.000 A 
ATOM      4  C   UNL     1      45.800   7.019  12.615  0.00  0.00    +0.000 A 
ATOM      5  N   UNL     1      46.318   7.963  13.507  0.00  0.00    +0.000 N 
ATOM      6  N   UNL     1      44.634   6.441  12.975  0.00  0.00    +0.000 NA
ATOM      7  C   UNL     1      44.086   5.524  12.130  0.00  0.00    +0.000 A 
ATOM      8  H   UNL     1      45.756   7.946  14.353  0.00  0.00    +0.000 HD
ENDROOT
BRANCH   1  10
ATOM      9  N   UNL     1      44.047   4.284   8.748  0.00  0.00    +0.000 N 
ATOM     10  C   UNL     1      44.008   4.100  10.107  0.00  0.00    +0.000 C 
ATOM     11  O   UNL     1      43.473   3.120  10.600  0.00  0.00    +0.000 OA
ATOM     12  H   UNL     1      43.668   3.535   8.181  0.00  0.00    +0.000 HD
ATOM     13  H   UNL     1      44.673   4.938   8.301  0.00  0.00    +0.000 HD
ENDBRANCH   1  10
BRANCH   5  14
ATOM     14  C   UNL     1      47.733   8.362  13.568  0.00  0.00    +0.000 C 
ATOM     15  C   UNL     1      48.747   7.372  14.114  0.00  0.00    +0.000 C 
ATOM     16  C   UNL     1      48.380   8.561  14.935  0.00  0.00    +0.000 C 
BRANCH  14  17
ATOM     17  C   UNL     1      48.170   9.361  12.501  0.00  0.00    +0.000 A 
ATOM     18  C   UNL     1      47.332  10.399  12.073  0.00  0.00    +0.000 A 
ATOM     19  C   UNL     1      47.811  11.335  11.167  0.00  0.00    +0.000 A 
ATOM     20  N   UNL     1      49.051  11.300  10.634  0.00  0.00    +0.000 NA
ATOM     21  C   UNL     1      49.840  10.283  11.028  0.00  0.00    +0.000 A 
ATOM     22  C   UNL     1      49.454   9.320  11.940  0.00  0.00    +0.000 A 
ENDBRANCH  14  17
ENDBRANCH   5  14
TORSDOF 3
ENDMDL
MODEL 7
REMARK VINA RESULT:    -5.967      4.685      7.276
REMARK INTER + INTRA:          -6.884
REMARK INTER:                  -6.613
REMARK INTRA:                  -0.271
REMARK UNBOUND:                 0.129
REMARK  Name = 
REMARK  3 active torsions:
REMARK  status: ('A' for Active; 'I' for Inactive)
REMARK    1  A    between atoms: C_2  and  C_4
REMARK    2  A    between atoms: N_8  and  C_9
REMARK    3  A    between atoms: C_9  and  C_10
REMARK                            x       y       z     vdW  Elec       q    Type
REMARK                         _______ _______ _______ _____ _____    ______ ____
ROOT
ATOM      1  C   UNL     1      48.237   3.918  17.467  0.00  0.00    +0.000 A 
ATOM      2  C   UNL     1      47.635   5.036  16.905  0.00  0.00    +0.000 A 
ATOM      3  C   UNL     1      47.169   4.965  15.592  0.00  0.00    +0.000 A 
ATOM      4  C   UNL     1      47.297   3.788  14.862  0.00  0.00    +0.000 A 
ATOM      5  N   UNL     1      46.844   3.654  13.546  0.00  0.00    +0.000 N 
ATOM      6  N   UNL     1      47.899   2.703  15.394  0.00  0.00    +0.000 NA
ATOM      7  C   UNL     1      48.368   2.792  16.670  0.00  0.00    +0.000 A 
ATOM      8  H   UNL     1      46.950   2.683  13.268  0.00  0.00    +0.000 HD
ENDROOT
BRANCH   1  10
ATOM      9  N   UNL     1      48.284   2.912  19.675  0.00  0.00    +0.000 N 
ATOM     10  C   UNL     1      48.752   3.903  18.849  0.00  0.00    +0.000 C 
ATOM     11  O   UNL     1      49.576   4.715  19.235  0.00  0.00    +0.000 OA
ATOM     12  H   UNL     1      48.706   2.856  20.594  0.00  0.00    +0.000 HD
ATOM     13  H   UNL     1      47.800   2.096  19.332  0.00  0.00    +0.000 HD
ENDBRANCH   1  10
BRANCH   5  14
ATOM     14  C   UNL     1      45.793   4.486  12.939  0.00  0.00    +0.000 C 
ATOM     15  C   UNL     1      44.340   4.166  13.246  0.00  0.00    +0.000 C 
ATOM     16  C   UNL     1      44.879   3.862  11.889  0.00  0.00    +0.000 C 
BRANCH  14  17
ATOM     17  C   UNL     1      46.192   5.933  12.663  0.00  0.00    +0.000 A 
ATOM     18  C   UNL     1      45.308   6.998  12.885  0.00  0.00    +0.000 A 
ATOM     19  C   UNL     1      45.750   8.301  12.706  0.00  0.00    +0.000 A 
ATOM     20  N   UNL     1      46.996   8.624  12.297  0.00  0.00    +0.000 NA
ATOM     21  C   UNL     1      47.830   7.595  12.058  0.00  0.00    +0.000 A 
ATOM     22  C   UNL     1      47.482   6.269  12.230  0.00  0.00    +0.000 A 
ENDBRANCH  14  17
ENDBRANCH   5  14
TORSDOF 3
ENDMDL
MODEL 8
REMARK VINA RESULT:    -5.481      4.608      7.585
REMARK INTER + INTRA:          -6.313
REMARK INTER:                  -6.128
REMARK INTRA:                  -0.185
REMARK UNBOUND:                 0.129
REMARK  Name = 
REMARK  3 active torsions:
REMARK  status: ('A' for Active; 'I' for Inactive)
REMARK    1  A    between atoms: C_2  and  C_4
REMARK    2  A    between atoms: N_8  and  C_9
REMARK    3  A    between atoms: C_9  and  C_10
REMARK                            x       y       z     vdW  Elec       q    Type
REMARK                         _______ _______ _______ _____ _____    ______ ____
ROOT
ATOM      1  C   UNL     1      47.909   4.412  16.661  0.00  0.00    +0.000 A 
ATOM      2  C   UNL     1      47.298   4.453  15.414  0.00  0.00    +0.000 A 
ATOM      3  C   UNL     1      47.536   5.546  14.581  0.00  0.00    +0.000 A 
ATOM      4  C   UNL     1      48.380   6.574  14.991  0.00  0.00    +0.000 A 
ATOM      5  N   UNL     1      48.662   7.690  14.197  0.00  0.00    +0.000 N 
ATOM      6  N   UNL     1      48.961   6.551  16.209  0.00  0.00    +0.000 NA
ATOM      7  C   UNL     1      48.705   5.488  17.021  0.00  0.00    +0.000 A 
ATOM      8  H   UNL     1      49.379   8.240  14.661  0.00  0.00    +0.000 HD
ENDROOT
BRANCH   1  10
ATOM      9  N   UNL     1      48.749   3.027  18.467  0.00  0.00    +0.000 N 
ATOM     10  C   UNL     1      47.717   3.293  17.603  0.00  0.00    +0.000 C 
ATOM     11  O   UNL     1      46.682   2.649  17.633  0.00  0.00    +0.000 OA
ATOM     12  H   UNL     1      48.578   2.315  19.167  0.00  0.00    +0.000 HD
ATOM     13  H   UNL     1      49.505   3.674  18.634  0.00  0.00    +0.000 HD
ENDBRANCH   1  10
BRANCH   5  14
ATOM     14  C   UNL     1      48.539   7.723  12.732  0.00  0.00    +0.000 C 
ATOM     15  C   UNL     1      49.697   7.211  11.891  0.00  0.00    +0.000 C 
ATOM     16  C   UNL     1      49.430   8.677  11.942  0.00  0.00    +0.000 C 
BRANCH  14  17
ATOM     17  C   UNL     1      47.116   7.584  12.198  0.00  0.00    +0.000 A 
ATOM     18  C   UNL     1      46.731   6.505  11.392  0.00  0.00    +0.000 A 
ATOM     19  C   UNL     1      45.404   6.378  11.008  0.00  0.00    +0.000 A 
ATOM     20  N   UNL     1      44.436   7.257  11.344  0.00  0.00    +0.000 NA
ATOM     21  C   UNL     1      44.819   8.307  12.095  0.00  0.00    +0.000 A 
ATOM     22  C   UNL     1      46.113   8.502  12.539  0.00  0.00    +0.000 A 
ENDBRANCH  14  17
ENDBRANCH   5  14
TORSDOF 3
ENDMDL
MODEL 9
REMARK VINA RESULT:    -5.380      2.302      3.561
REMARK INTER + INTRA:          -6.194
REMARK INTER:                  -6.399
REMARK INTRA:                   0.205
REMARK UNBOUND:                 0.129
REMARK  Name = 
REMARK  3 active torsions:
REMARK  status: ('A' for Active; 'I' for Inactive)
REMARK    1  A    between atoms: C_2  and  C_4
REMARK    2  A    between atoms: N_8  and  C_9
REMARK    3  A    between atoms: C_9  and  C_10
REMARK                            x       y       z     vdW  Elec       q    Type
REMARK                         _______ _______ _______ _____ _____    ______ ____
ROOT
ATOM      1  C   UNL     1      45.015   3.342  10.015  0.00  0.00    +0.000 A 
ATOM      2  C   UNL     1      45.300   4.617   9.545  0.00  0.00    +0.000 A 
ATOM      3  C   UNL     1      45.352   5.676  10.452  0.00  0.00    +0.000 A 
ATOM      4  C   UNL     1      45.131   5.453  11.808  0.00  0.00    +0.000 A 
ATOM      5  N   UNL     1      45.177   6.472  12.764  0.00  0.00    +0.000 N 
ATOM      6  N   UNL     1      44.833   4.220  12.270  0.00  0.00    +0.000 NA
ATOM      7  C   UNL     1      44.766   3.199  11.371  0.00  0.00    +0.000 A 
ATOM      8  H   UNL     1      45.093   6.051  13.685  0.00  0.00    +0.000 HD
ENDROOT
BRANCH   1  10
ATOM      9  N   UNL     1      46.036   1.923   8.332  0.00  0.00    +0.000 N 
ATOM     10  C   UNL     1      44.945   2.166   9.128  0.00  0.00    +0.000 C 
ATOM     11  O   UNL     1      43.975   1.426   9.118  0.00  0.00    +0.000 OA
ATOM     12  H   UNL     1      46.017   1.068   7.791  0.00  0.00    +0.000 HD
ATOM     13  H   UNL     1      46.933   2.360   8.484  0.00  0.00    +0.000 HD
ENDBRANCH   1  10
BRANCH   5  14
ATOM     14  C   UNL     1      45.904   7.740  12.596  0.00  0.00    +0.000 C 
ATOM     15  C   UNL     1      45.206   9.036  12.971  0.00  0.00    +0.000 C 
ATOM     16  C   UNL     1      45.428   8.723  11.531  0.00  0.00    +0.000 C 
BRANCH  14  17
ATOM     17  C   UNL     1      47.419   7.642  12.747  0.00  0.00    +0.000 A 
ATOM     18  C   UNL     1      48.274   7.646  11.636  0.00  0.00    +0.000 A 
ATOM     19  C   UNL     1      49.648   7.647  11.831  0.00  0.00    +0.000 A 
ATOM     20  N   UNL     1      50.236   7.619  13.046  0.00  0.00    +0.000 NA
ATOM     21  C   UNL     1      49.408   7.587  14.108  0.00  0.00    +0.000 A 
ATOM     22  C   UNL     1      48.030   7.604  14.008  0.00  0.00    +0.000 A 
ENDBRANCH  14  17
ENDBRANCH   5  14
TORSDOF 3
ENDMDL
