MODEL 1
REMARK VINA RESULT:    -7.158      0.000      0.000
REMARK INTER + INTRA:         -11.300
REMARK INTER:                 -10.087
REMARK INTRA:                  -1.214
REMARK UNBOUND:                -1.214
REMARK  Name = 
REMARK  8 active torsions:
REMARK  status: ('A' for Active; 'I' for Inactive)
REMARK    1  A    between atoms: C_1  and  O_2
REMARK    2  A    between atoms: O_2  and  C_3
REMARK    3  A    between atoms: C_8  and  C_9
REMARK    4  A    between atoms: N_11  and  C_12
REMARK    5  A    between atoms: C_12  and  C_13
REMARK    6  A    between atoms: C_16  and  C_17
REMARK    7  A    between atoms: C_17  and  N_18
REMARK    8  A    between atoms: C_19  and  C_21
REMARK                            x       y       z     vdW  Elec       q    Type
REMARK                         _______ _______ _______ _____ _____    ______ ____
ROOT
ATOM      1  C   UNL     1      50.229   7.452  15.164  0.00  0.00    +0.000 A 
ATOM      2  C   UNL     1      50.631   8.085  13.980  0.00  0.00    +0.000 A 
ATOM      3  C   UNL     1      49.749   8.210  12.898  0.00  0.00    +0.000 A 
ATOM      4  C   UNL     1      48.438   7.724  12.985  0.00  0.00    +0.000 A 
ATOM      5  C   UNL     1      48.036   7.090  14.168  0.00  0.00    +0.000 A 
ATOM      6  C   UNL     1      48.917   6.966  15.249  0.00  0.00    +0.000 A 
ENDROOT
BRANCH   1   7
ATOM      7  C   UNL     1      51.193   7.265  16.308  0.00  0.00    +0.000 C 
BRANCH   7  10
ATOM      8  C   UNL     1      51.087   5.206  17.651  0.00  0.00    +0.000 C 
ATOM      9  O   UNL     1      50.368   5.748  18.484  0.00  0.00    +0.000 OA
ATOM     10  N   UNL     1      51.554   5.889  16.537  0.00  0.00    +0.000 N 
ATOM     11  H   UNL     1      52.153   5.382  15.893  0.00  0.00    +0.000 HD
BRANCH   8  17
ATOM     12  C   UNL     1      50.759   2.692  17.285  0.00  0.00    +0.000 A 
ATOM     13  C   UNL     1      51.298   1.409  17.417  0.00  0.00    +0.000 A 
ATOM     14  C   UNL     1      52.544   1.226  18.010  0.00  0.00    +0.000 A 
ATOM     15  C   UNL     1      53.233   2.342  18.451  0.00  0.00    +0.000 A 
ATOM     16  N   UNL     1      52.771   3.604  18.336  0.00  0.00    +0.000 NA
ATOM     17  C   UNL     1      51.540   3.766  17.748  0.00  0.00    +0.000 A 
BRANCH  12  19
ATOM     18  C   UNL     1      48.399   2.833  17.524  0.00  0.00    +0.000 C 
ATOM     19  O   UNL     1      49.552   2.934  16.694  0.00  0.00    +0.000 OA
ENDBRANCH  12  19
ENDBRANCH   8  17
ENDBRANCH   7  10
ENDBRANCH   1   7
BRANCH   4  20
ATOM     20  C   UNL     1      47.485   7.840  11.821  0.00  0.00    +0.000 C 
BRANCH  20  21
ATOM     21  N   UNL     1      46.807   6.592  11.565  0.00  0.00    +0.000 N 
ATOM     22  C   UNL     1      45.447   6.477  11.703  0.00  0.00    +0.000 C 
ATOM     23  O   UNL     1      44.738   7.438  11.993  0.00  0.00    +0.000 OA
ATOM     24  H   UNL     1      47.380   5.754  11.555  0.00  0.00    +0.000 HD
BRANCH  22  25
ATOM     25  C   UNL     1      44.866   5.154  11.433  0.00  0.00    +0.000 A 
ATOM     26  C   UNL     1      44.141   4.504  12.424  0.00  0.00    +0.000 A 
ATOM     27  S   UNL     1      43.504   3.001  11.932  0.00  0.00    +0.000 S 
ATOM     28  C   UNL     1      44.218   3.140  10.392  0.00  0.00    +0.000 A 
ATOM     29  N   UNL     1      44.082   2.153   9.467  0.00  0.00    +0.000 NA
ATOM     30  C   UNL     1      44.697   2.378   8.354  0.00  0.00    +0.000 A 
ATOM     31  N   UNL     1      45.430   3.503   8.081  0.00  0.00    +0.000 N 
ATOM     32  C   UNL     1      45.575   4.536   8.976  0.00  0.00    +0.000 A 
ATOM     33  O   UNL     1      46.211   5.544   8.686  0.00  0.00    +0.000 OA
ATOM     34  C   UNL     1      44.912   4.328  10.249  0.00  0.00    +0.000 A 
ATOM     35  H   UNL     1      45.882   3.623   7.187  0.00  0.00    +0.000 HD
ENDBRANCH  22  25
ENDBRANCH  20  21
ENDBRANCH   4  20
TORSDOF 7
ENDMDL
MODEL 2
REMARK VINA RESULT:    -7.054      2.878      9.583
REMARK INTER + INTRA:         -11.154
REMARK INTER:                 -10.019
REMARK INTRA:                  -1.135
REMARK UNBOUND:                -1.214
REMARK  Name = 
REMARK  8 active torsions:
REMARK  status: ('A' for Active; 'I' for Inactive)
REMARK    1  A    between atoms: C_1  and  O_2
REMARK    2  A    between atoms: O_2  and  C_3
REMARK    3  A    between atoms: C_8  and  C_9
REMARK    4  A    between atoms: N_11  and  C_12
REMARK    5  A    between atoms: C_12  and  C_13
REMARK    6  A    between atoms: C_16  and  C_17
REMARK    7  A    between atoms: C_17  and  N_18
REMARK    8  A    between atoms: C_19  and  C_21
REMARK                            x       y       z     vdW  Elec       q    Type
REMARK                         _______ _______ _______ _____ _____    ______ ____
ROOT
ATOM      1  C   UNL     1      47.489   5.702  14.510  0.00  0.00    +0.000 A 
ATOM      2  C   UNL     1      46.847   4.494  14.813  0.00  0.00    +0.000 A 
ATOM      3  C   UNL     1      47.145   3.800  15.994  0.00  0.00    +0.000 A 
ATOM      4  C   UNL     1      48.076   4.311  16.908  0.00  0.00    +0.000 A 
ATOM      5  C   UNL     1      48.719   5.518  16.604  0.00  0.00    +0.000 A 
ATOM      6  C   UNL     1      48.421   6.211  15.425  0.00  0.00    +0.000 A 
ENDROOT
BRANCH   1   7
ATOM      7  C   UNL     1      47.213   6.421  13.214  0.00  0.00    +0.000 C 
BRANCH   7  10
ATOM      8  C   UNL     1      45.813   5.907  11.256  0.00  0.00    +0.000 C 
ATOM      9  O   UNL     1      45.219   6.975  11.359  0.00  0.00    +0.000 OA
ATOM     10  N   UNL     1      46.817   5.542  12.142  0.00  0.00    +0.000 N 
ATOM     11  H   UNL     1      47.261   4.639  12.003  0.00  0.00    +0.000 HD
BRANCH   8  17
ATOM     12  C   UNL     1      44.907   3.651  10.450  0.00  0.00    +0.000 A 
ATOM     13  C   UNL     1      44.675   2.802   9.363  0.00  0.00    +0.000 A 
ATOM     14  C   UNL     1      45.066   3.176   8.082  0.00  0.00    +0.000 A 
ATOM     15  C   UNL     1      45.677   4.406   7.912  0.00  0.00    +0.000 A 
ATOM     16  N   UNL     1      45.913   5.272   8.920  0.00  0.00    +0.000 NA
ATOM     17  C   UNL     1      45.519   4.887  10.178  0.00  0.00    +0.000 A 
BRANCH  12  19
ATOM     18  C   UNL     1      43.281   2.672  11.881  0.00  0.00    +0.000 C 
ATOM     19  O   UNL     1      44.527   3.346  11.726  0.00  0.00    +0.000 OA
ENDBRANCH  12  19
ENDBRANCH   8  17
ENDBRANCH   7  10
ENDBRANCH   1   7
BRANCH   4  20
ATOM     20  C   UNL     1      48.415   3.564  18.174  0.00  0.00    +0.000 C 
BRANCH  20  21
ATOM     21  N   UNL     1      49.827   3.279  18.260  0.00  0.00    +0.000 N 
ATOM     22  C   UNL     1      50.420   2.353  17.440  0.00  0.00    +0.000 C 
ATOM     23  O   UNL     1      49.795   1.768  16.560  0.00  0.00    +0.000 OA
ATOM     24  H   UNL     1      50.301   3.569  19.110  0.00  0.00    +0.000 HD
BRANCH  22  25
ATOM     25  C   UNL     1      51.861   2.133  17.628  0.00  0.00    +0.000 A 
ATOM     26  C   UNL     1      52.352   0.838  17.733  0.00  0.00    +0.000 A 
ATOM     27  S   UNL     1      54.047   0.759  17.906  0.00  0.00    +0.000 S 
ATOM     28  C   UNL     1      54.181   2.457  17.899  0.00  0.00    +0.000 A 
ATOM     29  N   UNL     1      55.390   3.063  18.042  0.00  0.00    +0.000 NA
ATOM     30  C   UNL     1      55.341   4.353  18.046  0.00  0.00    +0.000 A 
ATOM     31  N   UNL     1      54.195   5.091  17.913  0.00  0.00    +0.000 N 
ATOM     32  C   UNL     1      52.955   4.523  17.742  0.00  0.00    +0.000 A 
ATOM     33  O   UNL     1      51.952   5.214  17.593  0.00  0.00    +0.000 OA
ATOM     34  C   UNL     1      52.952   3.072  17.742  0.00  0.00    +0.000 A 
ATOM     35  H   UNL     1      54.224   6.100  17.916  0.00  0.00    +0.000 HD
ENDBRANCH  22  25
ENDBRANCH  20  21
ENDBRANCH   4  20
TORSDOF 7
ENDMDL
MODEL 3
REMARK VINA RESULT:    -7.042      3.413      5.517
REMARK INTER + INTRA:         -11.138
REMARK INTER:                 -10.322
REMARK INTRA:                  -0.816
REMARK UNBOUND:                -1.214
REMARK  Name = 
REMARK  8 active torsions:
REMARK  status: ('A' for Active; 'I' for Inactive)
REMARK    1  A    between atoms: C_1  and  O_2
REMARK    2  A    between atoms: O_2  and  C_3
REMARK    3  A    between atoms: C_8  and  C_9
REMARK    4  A    between atoms: N_11  and  C_12
REMARK    5  A    between atoms: C_12  and  C_13
REMARK    6  A    between atoms: C_16  and  C_17
REMARK    7  A    between atoms: C_17  and  N_18
REMARK    8  A    between atoms: C_19  and  C_21
REMARK                            x       y       z     vdW  Elec       q    Type
REMARK                         _______ _______ _______ _____ _____    ______ ____
ROOT
ATOM      1  C   UNL     1      51.553   2.942  17.708  0.00  0.00    +0.000 A 
ATOM      2  C   UNL     1      50.962   4.171  18.028  0.00  0.00    +0.000 A 
ATOM      3  C   UNL     1      49.589   4.379  17.835  0.00  0.00    +0.000 A 
ATOM      4  C   UNL     1      48.774   3.353  17.338  0.00  0.00    +0.000 A 
ATOM      5  C   UNL     1      49.366   2.124  17.017  0.00  0.00    +0.000 A 
ATOM      6  C   UNL     1      50.737   1.918  17.211  0.00  0.00    +0.000 A 
ENDROOT
BRANCH   1   7
ATOM      7  C   UNL     1      53.039   2.736  17.860  0.00  0.00    +0.000 C 
BRANCH   7  10
ATOM      8  C   UNL     1      54.177   0.624  18.413  0.00  0.00    +0.000 C 
ATOM      9  O   UNL     1      54.464   1.035  19.532  0.00  0.00    +0.000 OA
ATOM     10  N   UNL     1      53.475   1.407  17.508  0.00  0.00    +0.000 N 
ATOM     11  H   UNL     1      53.278   1.008  16.595  0.00  0.00    +0.000 HD
BRANCH   8  17
ATOM     12  C   UNL     1      54.292  -1.925  18.629  0.00  0.00    +0.000 A 
ATOM     13  C   UNL     1      54.675  -3.135  18.041  0.00  0.00    +0.000 A 
ATOM     14  C   UNL     1      55.311  -3.146  16.804  0.00  0.00    +0.000 A 
ATOM     15  C   UNL     1      55.542  -1.936  16.171  0.00  0.00    +0.000 A 
ATOM     16  N   UNL     1      55.181  -0.741  16.682  0.00  0.00    +0.000 NA
ATOM     17  C   UNL     1      54.553  -0.749  17.904  0.00  0.00    +0.000 A 
BRANCH  12  19
ATOM     18  C   UNL     1      54.040  -2.794  20.827  0.00  0.00    +0.000 C 
ATOM     19  O   UNL     1      53.646  -1.855  19.831  0.00  0.00    +0.000 OA
ENDBRANCH  12  19
ENDBRANCH   8  17
ENDBRANCH   7  10
ENDBRANCH   1   7
BRANCH   4  20
ATOM     20  C   UNL     1      47.298   3.570  17.113  0.00  0.00    +0.000 C 
BRANCH  20  21
ATOM     21  N   UNL     1      47.058   4.563  16.093  0.00  0.00    +0.000 N 
ATOM     22  C   UNL     1      47.125   4.248  14.760  0.00  0.00    +0.000 C 
ATOM     23  O   UNL     1      47.334   3.101  14.372  0.00  0.00    +0.000 OA
ATOM     24  H   UNL     1      47.116   5.535  16.379  0.00  0.00    +0.000 HD
BRANCH  22  25
ATOM     25  C   UNL     1      46.880   5.343  13.810  0.00  0.00    +0.000 A 
ATOM     26  C   UNL     1      47.857   6.309  13.606  0.00  0.00    +0.000 A 
ATOM     27  S   UNL     1      47.428   7.481  12.444  0.00  0.00    +0.000 S 
ATOM     28  C   UNL     1      45.899   6.769  12.210  0.00  0.00    +0.000 A 
ATOM     29  N   UNL     1      45.001   7.311  11.344  0.00  0.00    +0.000 NA
ATOM     30  C   UNL     1      43.873   6.684  11.286  0.00  0.00    +0.000 A 
ATOM     31  N   UNL     1      43.565   5.563  12.010  0.00  0.00    +0.000 N 
ATOM     32  C   UNL     1      44.449   4.967  12.878  0.00  0.00    +0.000 A 
ATOM     33  O   UNL     1      44.152   3.944  13.486  0.00  0.00    +0.000 OA
ATOM     34  C   UNL     1      45.729   5.639  12.990  0.00  0.00    +0.000 A 
ATOM     35  H   UNL     1      42.666   5.114  11.914  0.00  0.00    +0.000 HD
ENDBRANCH  22  25
ENDBRANCH  20  21
ENDBRANCH   4  20
TORSDOF 7
ENDMDL
MODEL 4
REMARK VINA RESULT:    -7.007      3.192      8.990
REMARK INTER + INTRA:         -11.089
REMARK INTER:                 -10.251
REMARK INTRA:                  -0.837
REMARK UNBOUND:                -1.214
REMARK  Name = 
REMARK  8 active torsions:
REMARK  status: ('A' for Active; 'I' for Inactive)
REMARK    1  A    between atoms: C_1  and  O_2
REMARK    2  A    between atoms: O_2  and  C_3
REMARK    3  A    between atoms: C_8  and  C_9
REMARK    4  A    between atoms: N_11  and  C_12
REMARK    5  A    between atoms: C_12  and  C_13
REMARK    6  A    between atoms: C_16  and  C_17
REMARK    7  A    between atoms: C_17  and  N_18
REMARK    8  A    between atoms: C_19  and  C_21
REMARK                            x       y       z     vdW  Elec       q    Type
REMARK                         _______ _______ _______ _____ _____    ______ ____
ROOT
ATOM      1  C   UNL     1      45.127   5.985  11.092  0.00  0.00    +0.000 A 
ATOM      2  C   UNL     1      44.495   6.745  12.085  0.00  0.00    +0.000 A 
ATOM      3  C   UNL     1      45.239   7.567  12.943  0.00  0.00    +0.000 A 
ATOM      4  C   UNL     1      46.631   7.662  12.812  0.00  0.00    +0.000 A 
ATOM      5  C   UNL     1      47.264   6.900  11.820  0.00  0.00    +0.000 A 
ATOM      6  C   UNL     1      46.519   6.080  10.963  0.00  0.00    +0.000 A 
ENDROOT
BRANCH   1   7
ATOM      7  C   UNL     1      44.335   5.057  10.206  0.00  0.00    +0.000 C 
BRANCH   7  10
ATOM      8  C   UNL     1      45.371   3.278   8.858  0.00  0.00    +0.000 C 
ATOM      9  O   UNL     1      45.059   2.426   9.683  0.00  0.00    +0.000 OA
ATOM     10  N   UNL     1      45.059   4.618   9.040  0.00  0.00    +0.000 N 
ATOM     11  H   UNL     1      45.356   5.271   8.321  0.00  0.00    +0.000 HD
BRANCH   8  17
ATOM     12  C   UNL     1      46.638   1.694   7.294  0.00  0.00    +0.000 A 
ATOM     13  C   UNL     1      47.299   1.535   6.072  0.00  0.00    +0.000 A 
ATOM     14  C   UNL     1      47.449   2.614   5.207  0.00  0.00    +0.000 A 
ATOM     15  C   UNL     1      46.921   3.837   5.582  0.00  0.00    +0.000 A 
ATOM     16  N   UNL     1      46.261   4.047   6.740  0.00  0.00    +0.000 NA
ATOM     17  C   UNL     1      46.122   2.970   7.581  0.00  0.00    +0.000 A 
BRANCH  12  19
ATOM     18  C   UNL     1      46.581  -0.654   7.658  0.00  0.00    +0.000 C 
ATOM     19  O   UNL     1      46.443   0.667   8.173  0.00  0.00    +0.000 OA
ENDBRANCH  12  19
ENDBRANCH   8  17
ENDBRANCH   7  10
ENDBRANCH   1   7
BRANCH   4  20
ATOM     20  C   UNL     1      47.444   8.531  13.739  0.00  0.00    +0.000 C 
BRANCH  20  21
ATOM     21  N   UNL     1      47.886   7.798  14.901  0.00  0.00    +0.000 N 
ATOM     22  C   UNL     1      49.136   7.237  14.960  0.00  0.00    +0.000 C 
ATOM     23  O   UNL     1      49.956   7.380  14.056  0.00  0.00    +0.000 OA
ATOM     24  H   UNL     1      47.165   7.477  15.540  0.00  0.00    +0.000 HD
BRANCH  22  25
ATOM     25  C   UNL     1      49.471   6.499  16.186  0.00  0.00    +0.000 A 
ATOM     26  C   UNL     1      50.512   6.940  16.993  0.00  0.00    +0.000 A 
ATOM     27  S   UNL     1      50.739   5.995  18.395  0.00  0.00    +0.000 S 
ATOM     28  C   UNL     1      49.487   4.931  17.946  0.00  0.00    +0.000 A 
ATOM     29  N   UNL     1      49.175   3.854  18.717  0.00  0.00    +0.000 NA
ATOM     30  C   UNL     1      48.225   3.119  18.244  0.00  0.00    +0.000 A 
ATOM     31  N   UNL     1      47.556   3.365  17.074  0.00  0.00    +0.000 N 
ATOM     32  C   UNL     1      47.821   4.452  16.275  0.00  0.00    +0.000 A 
ATOM     33  O   UNL     1      47.180   4.660  15.251  0.00  0.00    +0.000 OA
ATOM     34  C   UNL     1      48.890   5.307  16.756  0.00  0.00    +0.000 A 
ATOM     35  H   UNL     1      46.816   2.754  16.762  0.00  0.00    +0.000 HD
ENDBRANCH  22  25
ENDBRANCH  20  21
ENDBRANCH   4  20
TORSDOF 7
ENDMDL
MODEL 5
REMARK VINA RESULT:    -6.956      0.964      1.686
REMARK INTER + INTRA:         -11.017
REMARK INTER:                  -9.744
REMARK INTRA:                  -1.272
REMARK UNBOUND:                -1.214
REMARK  Name = 
REMARK  8 active torsions:
REMARK  status: ('A' for Active; 'I' for Inactive)
REMARK    1  A    between atoms: C_1  and  O_2
REMARK    2  A    between atoms: O_2  and  C_3
REMARK    3  A    between atoms: C_8  and  C_9
REMARK    4  A    between atoms: N_11  and  C_12
REMARK    5  A    between atoms: C_12  and  C_13
REMARK    6  A    between atoms: C_16  and  C_17
REMARK    7  A    between atoms: C_17  and  N_18
REMARK    8  A    between atoms: C_19  and  C_21
REMARK                            x       y       z     vdW  Elec       q    Type
REMARK                         _______ _______ _______ _____ _____    ______ ____
ROOT
ATOM      1  C   UNL     1      50.045   7.438  15.351  0.00  0.00    +0.000 A 
ATOM      2  C   UNL     1      50.334   8.345  14.322  0.00  0.00    +0.000 A 
ATOM      3  C   UNL     1      49.485   8.466  13.213  0.00  0.00    +0.000 A 
ATOM      4  C   UNL     1      48.317   7.698  13.120  0.00  0.00    +0.000 A 
ATOM      5  C   UNL     1      48.029   6.790  14.149  0.00  0.00    +0.000 A 
ATOM      6  C   UNL     1      48.877   6.670  15.256  0.00  0.00    +0.000 A 
ENDROOT
BRANCH   1   7
ATOM      7  C   UNL     1      50.986   7.266  16.517  0.00  0.00    +0.000 C 
BRANCH   7  10
ATOM      8  C   UNL     1      50.887   5.073  17.630  0.00  0.00    +0.000 C 
ATOM      9  O   UNL     1      49.983   5.452  18.367  0.00  0.00    +0.000 OA
ATOM     10  N   UNL     1      51.455   5.912  16.682  0.00  0.00    +0.000 N 
ATOM     11  H   UNL     1      52.205   5.536  16.111  0.00  0.00    +0.000 HD
BRANCH   8  17
ATOM     12  C   UNL     1      52.762   3.416  18.176  0.00  0.00    +0.000 A 
ATOM     13  C   UNL     1      53.184   2.083  18.179  0.00  0.00    +0.000 A 
ATOM     14  C   UNL     1      52.358   1.082  17.677  0.00  0.00    +0.000 A 
ATOM     15  C   UNL     1      51.113   1.439  17.189  0.00  0.00    +0.000 A 
ATOM     16  N   UNL     1      50.647   2.705  17.175  0.00  0.00    +0.000 NA
ATOM     17  C   UNL     1      51.475   3.680  17.676  0.00  0.00    +0.000 A 
BRANCH  12  19
ATOM     18  C   UNL     1      54.734   4.729  17.987  0.00  0.00    +0.000 C 
ATOM     19  O   UNL     1      53.521   4.437  18.674  0.00  0.00    +0.000 OA
ENDBRANCH  12  19
ENDBRANCH   8  17
ENDBRANCH   7  10
ENDBRANCH   1   7
BRANCH   4  20
ATOM     20  C   UNL     1      47.404   7.809  11.924  0.00  0.00    +0.000 C 
BRANCH  20  21
ATOM     21  N   UNL     1      46.740   6.558  11.646  0.00  0.00    +0.000 N 
ATOM     22  C   UNL     1      45.372   6.460  11.648  0.00  0.00    +0.000 C 
ATOM     23  O   UNL     1      44.649   7.438  11.827  0.00  0.00    +0.000 OA
ATOM     24  H   UNL     1      47.301   5.716  11.726  0.00  0.00    +0.000 HD
BRANCH  22  25
ATOM     25  C   UNL     1      44.805   5.133  11.369  0.00  0.00    +0.000 A 
ATOM     26  C   UNL     1      44.051   4.487  12.340  0.00  0.00    +0.000 A 
ATOM     27  S   UNL     1      43.436   2.978  11.839  0.00  0.00    +0.000 S 
ATOM     28  C   UNL     1      44.199   3.109  10.322  0.00  0.00    +0.000 A 
ATOM     29  N   UNL     1      44.097   2.114   9.400  0.00  0.00    +0.000 NA
ATOM     30  C   UNL     1      44.747   2.334   8.306  0.00  0.00    +0.000 A 
ATOM     31  N   UNL     1      45.484   3.460   8.049  0.00  0.00    +0.000 N 
ATOM     32  C   UNL     1      45.596   4.501   8.941  0.00  0.00    +0.000 A 
ATOM     33  O   UNL     1      46.237   5.509   8.664  0.00  0.00    +0.000 OA
ATOM     34  C   UNL     1      44.893   4.299  10.193  0.00  0.00    +0.000 A 
ATOM     35  H   UNL     1      45.964   3.575   7.169  0.00  0.00    +0.000 HD
ENDBRANCH  22  25
ENDBRANCH  20  21
ENDBRANCH   4  20
TORSDOF 7
ENDMDL
MODEL 6
REMARK VINA RESULT:    -6.741      1.312      2.111
REMARK INTER + INTRA:         -10.713
REMARK INTER:                  -9.595
REMARK INTRA:                  -1.118
REMARK UNBOUND:                -1.214
REMARK  Name = 
REMARK  8 active torsions:
REMARK  status: ('A' for Active; 'I' for Inactive)
REMARK    1  A    between atoms: C_1  and  O_2
REMARK    2  A    between atoms: O_2  and  C_3
REMARK    3  A    between atoms: C_8  and  C_9
REMARK    4  A    between atoms: N_11  and  C_12
REMARK    5  A    between atoms: C_12  and  C_13
REMARK    6  A    between atoms: C_16  and  C_17
REMARK    7  A    between atoms: C_17  and  N_18
REMARK    8  A    between atoms: C_19  and  C_21
REMARK                            x       y       z     vdW  Elec       q    Type
REMARK                         _______ _______ _______ _____ _____    ______ ____
ROOT
ATOM      1  C   UNL     1      50.570   7.424  15.293  0.00  0.00    +0.000 A 
ATOM      2  C   UNL     1      49.233   7.005  15.269  0.00  0.00    +0.000 A 
ATOM      3  C   UNL     1      48.402   7.316  14.184  0.00  0.00    +0.000 A 
ATOM      4  C   UNL     1      48.898   8.035  13.088  0.00  0.00    +0.000 A 
ATOM      5  C   UNL     1      50.234   8.456  13.112  0.00  0.00    +0.000 A 
ATOM      6  C   UNL     1      51.063   8.144  14.197  0.00  0.00    +0.000 A 
ENDROOT
BRANCH   1   7
ATOM      7  C   UNL     1      51.448   7.140  16.485  0.00  0.00    +0.000 C 
BRANCH   7  10
ATOM      8  C   UNL     1      51.421   5.075  17.824  0.00  0.00    +0.000 C 
ATOM      9  O   UNL     1      50.871   5.650  18.757  0.00  0.00    +0.000 OA
ATOM     10  N   UNL     1      51.755   5.742  16.653  0.00  0.00    +0.000 N 
ATOM     11  H   UNL     1      52.217   5.207  15.924  0.00  0.00    +0.000 HD
BRANCH   8  17
ATOM     12  C   UNL     1      50.972   2.609  17.299  0.00  0.00    +0.000 A 
ATOM     13  C   UNL     1      51.439   1.292  17.370  0.00  0.00    +0.000 A 
ATOM     14  C   UNL     1      52.654   1.008  17.984  0.00  0.00    +0.000 A 
ATOM     15  C   UNL     1      53.388   2.057  18.510  0.00  0.00    +0.000 A 
ATOM     16  N   UNL     1      52.996   3.348  18.458  0.00  0.00    +0.000 NA
ATOM     17  C   UNL     1      51.794   3.610  17.847  0.00  0.00    +0.000 A 
BRANCH  12  19
ATOM     18  C   UNL     1      48.616   2.861  17.481  0.00  0.00    +0.000 C 
ATOM     19  O   UNL     1      49.798   2.950  16.691  0.00  0.00    +0.000 OA
ENDBRANCH  12  19
ENDBRANCH   8  17
ENDBRANCH   7  10
ENDBRANCH   1   7
BRANCH   4  20
ATOM     20  C   UNL     1      48.009   8.388  11.921  0.00  0.00    +0.000 C 
BRANCH  20  21
ATOM     21  N   UNL     1      47.400   7.214  11.344  0.00  0.00    +0.000 N 
ATOM     22  C   UNL     1      46.043   7.015  11.393  0.00  0.00    +0.000 C 
ATOM     23  O   UNL     1      45.280   7.849  11.875  0.00  0.00    +0.000 OA
ATOM     24  H   UNL     1      48.013   6.426  11.158  0.00  0.00    +0.000 HD
BRANCH  22  25
ATOM     25  C   UNL     1      45.536   5.775  10.789  0.00  0.00    +0.000 A 
ATOM     26  C   UNL     1      45.770   5.518   9.444  0.00  0.00    +0.000 A 
ATOM     27  S   UNL     1      45.152   4.019   8.915  0.00  0.00    +0.000 S 
ATOM     28  C   UNL     1      44.504   3.682  10.453  0.00  0.00    +0.000 A 
ATOM     29  N   UNL     1      43.805   2.538  10.681  0.00  0.00    +0.000 NA
ATOM     30  C   UNL     1      43.348   2.424  11.884  0.00  0.00    +0.000 A 
ATOM     31  N   UNL     1      43.532   3.347  12.879  0.00  0.00    +0.000 N 
ATOM     32  C   UNL     1      44.251   4.506  12.701  0.00  0.00    +0.000 A 
ATOM     33  O   UNL     1      44.424   5.296  13.624  0.00  0.00    +0.000 OA
ATOM     34  C   UNL     1      44.777   4.689  11.362  0.00  0.00    +0.000 A 
ATOM     35  H   UNL     1      43.155   3.196  13.803  0.00  0.00    +0.000 HD
ENDBRANCH  22  25
ENDBRANCH  20  21
ENDBRANCH   4  20
TORSDOF 7
ENDMDL
MODEL 7
REMARK VINA RESULT:    -6.715      2.678      8.920
REMARK INTER + INTRA:         -10.677
REMARK INTER:                  -9.818
REMARK INTRA:                  -0.859
REMARK UNBOUND:                -1.214
REMARK  Name = 
REMARK  8 active torsions:
REMARK  status: ('A' for Active; 'I' for Inactive)
REMARK    1  A    between atoms: C_1  and  O_2
REMARK    2  A    between atoms: O_2  and  C_3
REMARK    3  A    between atoms: C_8  and  C_9
REMARK    4  A    between atoms: N_11  and  C_12
REMARK    5  A    between atoms: C_12  and  C_13
REMARK    6  A    between atoms: C_16  and  C_17
REMARK    7  A    between atoms: C_17  and  N_18
REMARK    8  A    between atoms: C_19  and  C_21
REMARK                            x       y       z     vdW  Elec       q    Type
REMARK                         _______ _______ _______ _____ _____    ______ ____
ROOT
ATOM      1  C   UNL     1      46.460   7.493  13.153  0.00  0.00    +0.000 A 
ATOM      2  C   UNL     1      47.238   6.421  13.613  0.00  0.00    +0.000 A 
ATOM      3  C   UNL     1      48.358   6.644  14.425  0.00  0.00    +0.000 A 
ATOM      4  C   UNL     1      48.711   7.943  14.813  0.00  0.00    +0.000 A 
ATOM      5  C   UNL     1      47.934   9.015  14.353  0.00  0.00    +0.000 A 
ATOM      6  C   UNL     1      46.815   8.791  13.542  0.00  0.00    +0.000 A 
ENDROOT
BRANCH   1   7
ATOM      7  C   UNL     1      45.289   7.259  12.232  0.00  0.00    +0.000 C 
BRANCH   7  10
ATOM      8  C   UNL     1      44.389   5.552  10.705  0.00  0.00    +0.000 C 
ATOM      9  O   UNL     1      43.242   5.943  10.892  0.00  0.00    +0.000 OA
ATOM     10  N   UNL     1      45.473   6.143  11.339  0.00  0.00    +0.000 N 
ATOM     11  H   UNL     1      46.395   5.763  11.146  0.00  0.00    +0.000 HD
BRANCH   8  17
ATOM     12  C   UNL     1      44.225   3.105   9.966  0.00  0.00    +0.000 A 
ATOM     13  C   UNL     1      44.616   2.132   9.041  0.00  0.00    +0.000 A 
ATOM     14  C   UNL     1      45.501   2.450   8.015  0.00  0.00    +0.000 A 
ATOM     15  C   UNL     1      45.971   3.749   7.931  0.00  0.00    +0.000 A 
ATOM     16  N   UNL     1      45.617   4.733   8.784  0.00  0.00    +0.000 NA
ATOM     17  C   UNL     1      44.742   4.401   9.789  0.00  0.00    +0.000 A 
BRANCH  12  19
ATOM     18  C   UNL     1      43.891   2.733  12.289  0.00  0.00    +0.000 C 
ATOM     19  O   UNL     1      43.344   2.856  10.979  0.00  0.00    +0.000 OA
ENDBRANCH  12  19
ENDBRANCH   8  17
ENDBRANCH   7  10
ENDBRANCH   1   7
BRANCH   4  20
ATOM     20  C   UNL     1      49.924   8.196  15.675  0.00  0.00    +0.000 C 
BRANCH  20  21
ATOM     21  N   UNL     1      50.615   6.969  15.991  0.00  0.00    +0.000 N 
ATOM     22  C   UNL     1      51.100   6.726  17.251  0.00  0.00    +0.000 C 
ATOM     23  O   UNL     1      50.921   7.510  18.179  0.00  0.00    +0.000 OA
ATOM     24  H   UNL     1      50.969   6.430  15.207  0.00  0.00    +0.000 HD
BRANCH  22  25
ATOM     25  C   UNL     1      51.802   5.451  17.452  0.00  0.00    +0.000 A 
ATOM     26  C   UNL     1      53.168   5.449  17.704  0.00  0.00    +0.000 A 
ATOM     27  S   UNL     1      53.816   3.891  17.955  0.00  0.00    +0.000 S 
ATOM     28  C   UNL     1      52.303   3.159  17.685  0.00  0.00    +0.000 A 
ATOM     29  N   UNL     1      52.164   1.806  17.723  0.00  0.00    +0.000 NA
ATOM     30  C   UNL     1      50.969   1.386  17.474  0.00  0.00    +0.000 A 
ATOM     31  N   UNL     1      49.900   2.196  17.194  0.00  0.00    +0.000 N 
ATOM     32  C   UNL     1      49.987   3.568  17.168  0.00  0.00    +0.000 A 
ATOM     33  O   UNL     1      49.002   4.265  16.947  0.00  0.00    +0.000 OA
ATOM     34  C   UNL     1      51.314   4.092  17.431  0.00  0.00    +0.000 A 
ATOM     35  H   UNL     1      48.987   1.806  17.015  0.00  0.00    +0.000 HD
ENDBRANCH  22  25
ENDBRANCH  20  21
ENDBRANCH   4  20
TORSDOF 7
ENDMDL
MODEL 8
REMARK VINA RESULT:    -6.485      5.259      8.165
REMARK INTER + INTRA:         -10.353
REMARK INTER:                  -9.124
REMARK INTRA:                  -1.228
REMARK UNBOUND:                -1.214
REMARK  Name = 
REMARK  8 active torsions:
REMARK  status: ('A' for Active; 'I' for Inactive)
REMARK    1  A    between atoms: C_1  and  O_2
REMARK    2  A    between atoms: O_2  and  C_3
REMARK    3  A    between atoms: C_8  and  C_9
REMARK    4  A    between atoms: N_11  and  C_12
REMARK    5  A    between atoms: C_12  and  C_13
REMARK    6  A    between atoms: C_16  and  C_17
REMARK    7  A    between atoms: C_17  and  N_18
REMARK    8  A    between atoms: C_19  and  C_21
REMARK                            x       y       z     vdW  Elec       q    Type
REMARK                         _______ _______ _______ _____ _____    ______ ____
ROOT
ATOM      1  C   UNL     1      49.284   7.395  13.846  0.00  0.00    +0.000 A 
ATOM      2  C   UNL     1      50.233   8.210  14.479  0.00  0.00    +0.000 A 
ATOM      3  C   UNL     1      51.161   8.946  13.729  0.00  0.00    +0.000 A 
ATOM      4  C   UNL     1      51.146   8.899  12.328  0.00  0.00    +0.000 A 
ATOM      5  C   UNL     1      50.198   8.082  11.696  0.00  0.00    +0.000 A 
ATOM      6  C   UNL     1      49.271   7.349  12.446  0.00  0.00    +0.000 A 
ENDROOT
BRANCH   1   7
ATOM      7  C   UNL     1      48.323   6.559  14.653  0.00  0.00    +0.000 C 
BRANCH   7  10
ATOM      8  C   UNL     1      46.728   5.058  13.530  0.00  0.00    +0.000 C 
ATOM      9  O   UNL     1      47.485   4.102  13.662  0.00  0.00    +0.000 OA
ATOM     10  N   UNL     1      47.066   6.324  13.986  0.00  0.00    +0.000 N 
ATOM     11  H   UNL     1      46.396   7.072  13.835  0.00  0.00    +0.000 HD
BRANCH   8  17
ATOM     12  C   UNL     1      44.900   5.943  11.970  0.00  0.00    +0.000 A 
ATOM     13  C   UNL     1      43.637   5.734  11.407  0.00  0.00    +0.000 A 
ATOM     14  C   UNL     1      42.889   4.613  11.754  0.00  0.00    +0.000 A 
ATOM     15  C   UNL     1      43.430   3.713  12.656  0.00  0.00    +0.000 A 
ATOM     16  N   UNL     1      44.648   3.855  13.218  0.00  0.00    +0.000 NA
ATOM     17  C   UNL     1      45.373   4.966  12.863  0.00  0.00    +0.000 A 
BRANCH  12  19
ATOM     18  C   UNL     1      45.084   8.301  11.734  0.00  0.00    +0.000 C 
ATOM     19  O   UNL     1      45.687   7.013  11.652  0.00  0.00    +0.000 OA
ENDBRANCH  12  19
ENDBRANCH   8  17
ENDBRANCH   7  10
ENDBRANCH   1   7
BRANCH   4  20
ATOM     20  C   UNL     1      52.150   9.674  11.512  0.00  0.00    +0.000 C 
BRANCH  20  21
ATOM     21  N   UNL     1      52.301   9.117  10.189  0.00  0.00    +0.000 N 
ATOM     22  C   UNL     1      53.496   8.588   9.770  0.00  0.00    +0.000 C 
ATOM     23  O   UNL     1      54.470   8.511  10.514  0.00  0.00    +0.000 OA
ATOM     24  H   UNL     1      51.601   9.376   9.501  0.00  0.00    +0.000 HD
BRANCH  22  25
ATOM     25  C   UNL     1      53.539   8.064   8.397  0.00  0.00    +0.000 A 
ATOM     26  C   UNL     1      53.424   8.937   7.323  0.00  0.00    +0.000 A 
ATOM     27  S   UNL     1      53.536   8.172   5.803  0.00  0.00    +0.000 S 
ATOM     28  C   UNL     1      53.691   6.638   6.526  0.00  0.00    +0.000 A 
ATOM     29  N   UNL     1      53.799   5.515   5.766  0.00  0.00    +0.000 NA
ATOM     30  C   UNL     1      53.882   4.419   6.445  0.00  0.00    +0.000 A 
ATOM     31  N   UNL     1      53.872   4.346   7.813  0.00  0.00    +0.000 N 
ATOM     32  C   UNL     1      53.788   5.455   8.621  0.00  0.00    +0.000 A 
ATOM     33  O   UNL     1      53.815   5.355   9.843  0.00  0.00    +0.000 OA
ATOM     34  C   UNL     1      53.681   6.713   7.907  0.00  0.00    +0.000 A 
ATOM     35  H   UNL     1      53.948   3.457   8.285  0.00  0.00    +0.000 HD
ENDBRANCH  22  25
ENDBRANCH  20  21
ENDBRANCH   4  20
TORSDOF 7
ENDMDL
MODEL 9
REMARK VINA RESULT:    -6.413      5.798      8.672
REMARK INTER + INTRA:         -10.252
REMARK INTER:                  -9.187
REMARK INTRA:                  -1.065
REMARK UNBOUND:                -1.214
REMARK  Name = 
REMARK  8 active torsions:
REMARK  status: ('A' for Active; 'I' for Inactive)
REMARK    1  A    between atoms: C_1  and  O_2
REMARK    2  A    between atoms: O_2  and  C_3
REMARK    3  A    between atoms: C_8  and  C_9
REMARK    4  A    between atoms: N_11  and  C_12
REMARK    5  A    between atoms: C_12  and  C_13
REMARK    6  A    between atoms: C_16  and  C_17
REMARK    7  A    between atoms: C_17  and  N_18
REMARK    8  A    between atoms: C_19  and  C_21
REMARK                            x       y       z     vdW  Elec       q    Type
REMARK                         _______ _______ _______ _____ _____    ______ ____
ROOT
ATOM      1  C   UNL     1      47.927   8.783  12.146  0.00  0.00    +0.000 A 
ATOM      2  C   UNL     1      48.565  10.029  12.075  0.00  0.00    +0.000 A 
ATOM      3  C   UNL     1      49.920  10.123  11.729  0.00  0.00    +0.000 A 
ATOM      4  C   UNL     1      50.661   8.973  11.425  0.00  0.00    +0.000 A 
ATOM      5  C   UNL     1      50.024   7.727  11.497  0.00  0.00    +0.000 A 
ATOM      6  C   UNL     1      48.670   7.634  11.842  0.00  0.00    +0.000 A 
ENDROOT
BRANCH   1   7
ATOM      7  C   UNL     1      46.485   8.675  12.574  0.00  0.00    +0.000 C 
BRANCH   7  10
ATOM      8  C   UNL     1      44.855   7.035  11.731  0.00  0.00    +0.000 C 
ATOM      9  O   UNL     1      44.270   7.900  11.087  0.00  0.00    +0.000 OA
ATOM     10  N   UNL     1      45.965   7.332  12.509  0.00  0.00    +0.000 N 
ATOM     11  H   UNL     1      46.395   6.570  13.024  0.00  0.00    +0.000 HD
BRANCH   8  17
ATOM     12  C   UNL     1      44.711   4.697  10.697  0.00  0.00    +0.000 A 
ATOM     13  C   UNL     1      44.284   3.373  10.846  0.00  0.00    +0.000 A 
ATOM     14  C   UNL     1      43.595   2.981  11.990  0.00  0.00    +0.000 A 
ATOM     15  C   UNL     1      43.355   3.927  12.971  0.00  0.00    +0.000 A 
ATOM     16  N   UNL     1      43.756   5.213  12.888  0.00  0.00    +0.000 NA
ATOM     17  C   UNL     1      44.436   5.582  11.754  0.00  0.00    +0.000 A 
BRANCH  12  19
ATOM     18  C   UNL     1      45.514   4.233   8.509  0.00  0.00    +0.000 C 
ATOM     19  O   UNL     1      45.409   5.134   9.607  0.00  0.00    +0.000 OA
ENDBRANCH  12  19
ENDBRANCH   8  17
ENDBRANCH   7  10
ENDBRANCH   1   7
BRANCH   4  20
ATOM     20  C   UNL     1      52.124   9.062  11.066  0.00  0.00    +0.000 C 
BRANCH  20  21
ATOM     21  N   UNL     1      52.403   8.398   9.815  0.00  0.00    +0.000 N 
ATOM     22  C   UNL     1      53.488   8.745   9.049  0.00  0.00    +0.000 C 
ATOM     23  O   UNL     1      54.300   9.590   9.416  0.00  0.00    +0.000 OA
ATOM     24  H   UNL     1      51.640   7.879   9.393  0.00  0.00    +0.000 HD
BRANCH  22  25
ATOM     25  C   UNL     1      53.663   8.014   7.786  0.00  0.00    +0.000 A 
ATOM     26  C   UNL     1      53.745   8.715   6.590  0.00  0.00    +0.000 A 
ATOM     27  S   UNL     1      53.990   7.720   5.227  0.00  0.00    +0.000 S 
ATOM     28  C   UNL     1      53.943   6.310   6.181  0.00  0.00    +0.000 A 
ATOM     29  N   UNL     1      54.064   5.079   5.615  0.00  0.00    +0.000 NA
ATOM     30  C   UNL     1      53.983   4.098   6.452  0.00  0.00    +0.000 A 
ATOM     31  N   UNL     1      53.798   4.238   7.802  0.00  0.00    +0.000 N 
ATOM     32  C   UNL     1      53.694   5.462   8.421  0.00  0.00    +0.000 A 
ATOM     33  O   UNL     1      53.562   5.550   9.637  0.00  0.00    +0.000 OA
ATOM     34  C   UNL     1      53.767   6.598   7.522  0.00  0.00    +0.000 A 
ATOM     35  H   UNL     1      53.751   3.430   8.405  0.00  0.00    +0.000 HD
ENDBRANCH  22  25
ENDBRANCH  20  21
ENDBRANCH   4  20
TORSDOF 7
ENDMDL
