MODEL 1
REMARK VINA RESULT:    -7.926      0.000      0.000
REMARK INTER + INTRA:         -10.756
REMARK INTER:                 -10.475
REMARK INTRA:                  -0.282
REMARK UNBOUND:                -0.282
REMARK  Name = 
REMARK  6 active torsions:
REMARK  status: ('A' for Active; 'I' for Inactive)
REMARK    1  A    between atoms: N_1  and  C_2
REMARK    2  A    between atoms: C_2  and  C_3
REMARK    3  A    between atoms: C_6  and  O_7
REMARK    4  A    between atoms: O_7  and  C_8
REMARK    5  A    between atoms: C_8  and  C_9
REMARK    6  A    between atoms: C_12  and  C_13
REMARK                            x       y       z     vdW  Elec       q    Type
REMARK                         _______ _______ _______ _____ _____    ______ ____
ROOT
ATOM      1  C   UNL     1      43.770   4.611  10.306  0.00  0.00    +0.000 C 
ENDROOT
BRANCH   1   2
ATOM      2  C   UNL     1      44.702   4.557  11.494  0.00  0.00    +0.000 A 
ATOM      3  C   UNL     1      44.987   3.355  12.144  0.00  0.00    +0.000 A 
ATOM      4  N   UNL     1      45.783   3.266  13.242  0.00  0.00    +0.000 NA
ATOM      5  C   UNL     1      46.289   4.456  13.674  0.00  0.00    +0.000 A 
ATOM      6  C   UNL     1      46.008   5.658  13.045  0.00  0.00    +0.000 A 
ATOM      7  N   UNL     1      45.206   5.736  11.952  0.00  0.00    +0.000 NA
BRANCH   5   8
ATOM      8  C   UNL     1      47.167   4.442  14.875  0.00  0.00    +0.000 C 
ATOM      9  N   UNL     1      47.556   5.665  15.352  0.00  0.00    +0.000 N 
ATOM     10  O   UNL     1      47.527   3.401  15.410  0.00  0.00    +0.000 OA
ATOM     11  H   UNL     1      47.244   6.514  14.892  0.00  0.00    +0.000 HD
ATOM     12  H   UNL     1      48.155   5.713  16.163  0.00  0.00    +0.000 HD
ENDBRANCH   5   8
ENDBRANCH   1   2
BRANCH   1  13
ATOM     13  O   UNL     1      43.801   3.372   9.596  0.00  0.00    +0.000 OA
BRANCH  13  17
ATOM     14  C   UNL     1      47.090   2.355   7.222  0.00  0.00    +0.000 A 
ATOM     15  C   UNL     1      46.645   3.686   7.229  0.00  0.00    +0.000 A 
ATOM     16  C   UNL     1      45.551   4.076   8.012  0.00  0.00    +0.000 A 
ATOM     17  C   UNL     1      44.884   3.136   8.797  0.00  0.00    +0.000 A 
ATOM     18  C   UNL     1      45.330   1.812   8.802  0.00  0.00    +0.000 A 
ATOM     19  C   UNL     1      46.421   1.422   8.022  0.00  0.00    +0.000 A 
BRANCH  14  20
ATOM     20  C   UNL     1      48.241   1.932   6.344  0.00  0.00    +0.000 C 
BRANCH  20  21
ATOM     21  N   UNL     1      48.209   2.597   5.048  0.00  0.00    +0.000 NA
ATOM     22  H   UNL     1      48.318   1.900   4.315  0.00  0.00    +0.000 HD
ATOM     23  H   UNL     1      49.015   3.216   4.977  0.00  0.00    +0.000 HD
ENDBRANCH  20  21
ENDBRANCH  14  20
ENDBRANCH  13  17
ENDBRANCH   1  13
TORSDOF 6
ENDMDL
MODEL 2
REMARK VINA RESULT:    -7.899      1.232      1.611
REMARK INTER + INTRA:         -10.721
REMARK INTER:                 -10.259
REMARK INTRA:                  -0.462
REMARK UNBOUND:                -0.282
REMARK  Name = 
REMARK  6 active torsions:
REMARK  status: ('A' for Active; 'I' for Inactive)
REMARK    1  A    between atoms: N_1  and  C_2
REMARK    2  A    between atoms: C_2  and  C_3
REMARK    3  A    between atoms: C_6  and  O_7
REMARK    4  A    between atoms: O_7  and  C_8
REMARK    5  A    between atoms: C_8  and  C_9
REMARK    6  A    between atoms: C_12  and  C_13
REMARK                            x       y       z     vdW  Elec       q    Type
REMARK                         _______ _______ _______ _____ _____    ______ ____
ROOT
ATOM      1  C   UNL     1      43.648   3.249  11.475  0.00  0.00    +0.000 C 
ENDROOT
BRANCH   1   2
ATOM      2  C   UNL     1      44.727   3.928  12.286  0.00  0.00    +0.000 A 
ATOM      3  C   UNL     1      44.795   5.318  12.392  0.00  0.00    +0.000 A 
ATOM      4  N   UNL     1      45.773   5.971  13.073  0.00  0.00    +0.000 NA
ATOM      5  C   UNL     1      46.703   5.159  13.650  0.00  0.00    +0.000 A 
ATOM      6  C   UNL     1      46.654   3.779  13.544  0.00  0.00    +0.000 A 
ATOM      7  N   UNL     1      45.676   3.136  12.857  0.00  0.00    +0.000 NA
BRANCH   5   8
ATOM      8  C   UNL     1      47.810   5.800  14.409  0.00  0.00    +0.000 C 
ATOM      9  N   UNL     1      47.744   5.697  15.773  0.00  0.00    +0.000 N 
ATOM     10  O   UNL     1      48.728   6.390  13.855  0.00  0.00    +0.000 OA
ATOM     11  H   UNL     1      46.973   5.203  16.210  0.00  0.00    +0.000 HD
ATOM     12  H   UNL     1      48.468   6.117  16.337  0.00  0.00    +0.000 HD
ENDBRANCH   5   8
ENDBRANCH   1   2
BRANCH   1  13
ATOM     13  O   UNL     1      43.592   3.806  10.160  0.00  0.00    +0.000 OA
BRANCH  13  17
ATOM     14  C   UNL     1      46.502   2.347   7.535  0.00  0.00    +0.000 A 
ATOM     15  C   UNL     1      46.254   3.727   7.574  0.00  0.00    +0.000 A 
ATOM     16  C   UNL     1      45.294   4.264   8.439  0.00  0.00    +0.000 A 
ATOM     17  C   UNL     1      44.563   3.424   9.279  0.00  0.00    +0.000 A 
ATOM     18  C   UNL     1      44.813   2.050   9.253  0.00  0.00    +0.000 A 
ATOM     19  C   UNL     1      45.772   1.513   8.390  0.00  0.00    +0.000 A 
BRANCH  14  20
ATOM     20  C   UNL     1      47.507   1.770   6.570  0.00  0.00    +0.000 C 
BRANCH  20  21
ATOM     21  N   UNL     1      48.641   2.662   6.368  0.00  0.00    +0.000 NA
ATOM     22  H   UNL     1      49.322   2.201   5.769  0.00  0.00    +0.000 HD
ATOM     23  H   UNL     1      49.103   2.812   7.264  0.00  0.00    +0.000 HD
ENDBRANCH  20  21
ENDBRANCH  14  20
ENDBRANCH  13  17
ENDBRANCH   1  13
TORSDOF 6
ENDMDL
MODEL 3
REMARK VINA RESULT:    -7.535      2.364      6.206
REMARK INTER + INTRA:         -10.239
REMARK INTER:                  -9.772
REMARK INTRA:                  -0.467
REMARK UNBOUND:                -0.282
REMARK  Name = 
REMARK  6 active torsions:
REMARK  status: ('A' for Active; 'I' for Inactive)
REMARK    1  A    between atoms: N_1  and  C_2
REMARK    2  A    between atoms: C_2  and  C_3
REMARK    3  A    between atoms: C_6  and  O_7
REMARK    4  A    between atoms: O_7  and  C_8
REMARK    5  A    between atoms: C_8  and  C_9
REMARK    6  A    between atoms: C_12  and  C_13
REMARK                            x       y       z     vdW  Elec       q    Type
REMARK                         _______ _______ _______ _____ _____    ______ ____
ROOT
ATOM      1  C   UNL     1      43.772   4.659  10.149  0.00  0.00    +0.000 C 
ENDROOT
BRANCH   1   2
ATOM      2  C   UNL     1      44.695   3.861   9.258  0.00  0.00    +0.000 A 
ATOM      3  C   UNL     1      44.833   2.480   9.400  0.00  0.00    +0.000 A 
ATOM      4  N   UNL     1      45.684   1.730   8.652  0.00  0.00    +0.000 NA
ATOM      5  C   UNL     1      46.409   2.436   7.739  0.00  0.00    +0.000 A 
ATOM      6  C   UNL     1      46.290   3.808   7.593  0.00  0.00    +0.000 A 
ATOM      7  N   UNL     1      45.441   4.549   8.350  0.00  0.00    +0.000 NA
BRANCH   5   8
ATOM      8  C   UNL     1      47.368   1.685   6.884  0.00  0.00    +0.000 C 
ATOM      9  N   UNL     1      48.467   2.380   6.457  0.00  0.00    +0.000 N 
ATOM     10  O   UNL     1      47.189   0.514   6.573  0.00  0.00    +0.000 OA
ATOM     11  H   UNL     1      48.593   3.350   6.727  0.00  0.00    +0.000 HD
ATOM     12  H   UNL     1      49.148   1.920   5.871  0.00  0.00    +0.000 HD
ENDBRANCH   5   8
ENDBRANCH   1   2
BRANCH   1  13
ATOM     13  O   UNL     1      44.104   4.448  11.522  0.00  0.00    +0.000 OA
BRANCH  13  17
ATOM     14  C   UNL     1      47.447   6.299  13.220  0.00  0.00    +0.000 A 
ATOM     15  C   UNL     1      46.776   6.943  12.169  0.00  0.00    +0.000 A 
ATOM     16  C   UNL     1      45.650   6.365  11.572  0.00  0.00    +0.000 A 
ATOM     17  C   UNL     1      45.179   5.130  12.017  0.00  0.00    +0.000 A 
ATOM     18  C   UNL     1      45.837   4.490  13.070  0.00  0.00    +0.000 A 
ATOM     19  C   UNL     1      46.961   5.066  13.667  0.00  0.00    +0.000 A 
BRANCH  14  20
ATOM     20  C   UNL     1      48.686   6.904  13.830  0.00  0.00    +0.000 C 
BRANCH  20  21
ATOM     21  N   UNL     1      49.803   6.917  12.894  0.00  0.00    +0.000 NA
ATOM     22  H   UNL     1      50.316   7.789  13.002  0.00  0.00    +0.000 HD
ATOM     23  H   UNL     1      49.434   6.917  11.944  0.00  0.00    +0.000 HD
ENDBRANCH  20  21
ENDBRANCH  14  20
ENDBRANCH  13  17
ENDBRANCH   1  13
TORSDOF 6
ENDMDL
MODEL 4
REMARK VINA RESULT:    -7.022      2.204      6.715
REMARK INTER + INTRA:          -9.562
REMARK INTER:                  -9.221
REMARK INTRA:                  -0.341
REMARK UNBOUND:                -0.282
REMARK  Name = 
REMARK  6 active torsions:
REMARK  status: ('A' for Active; 'I' for Inactive)
REMARK    1  A    between atoms: N_1  and  C_2
REMARK    2  A    between atoms: C_2  and  C_3
REMARK    3  A    between atoms: C_6  and  O_7
REMARK    4  A    between atoms: O_7  and  C_8
REMARK    5  A    between atoms: C_8  and  C_9
REMARK    6  A    between atoms: C_12  and  C_13
REMARK                            x       y       z     vdW  Elec       q    Type
REMARK                         _______ _______ _______ _____ _____    ______ ____
ROOT
ATOM      1  C   UNL     1      43.868   3.545  10.544  0.00  0.00    +0.000 C 
ENDROOT
BRANCH   1   2
ATOM      2  C   UNL     1      44.837   3.304   9.410  0.00  0.00    +0.000 A 
ATOM      3  C   UNL     1      45.188   4.320   8.521  0.00  0.00    +0.000 A 
ATOM      4  N   UNL     1      46.019   4.137   7.462  0.00  0.00    +0.000 NA
ATOM      5  C   UNL     1      46.491   2.866   7.325  0.00  0.00    +0.000 A 
ATOM      6  C   UNL     1      46.145   1.844   8.193  0.00  0.00    +0.000 A 
ATOM      7  N   UNL     1      45.308   2.037   9.245  0.00  0.00    +0.000 NA
BRANCH   5   8
ATOM      8  C   UNL     1      47.405   2.583   6.185  0.00  0.00    +0.000 C 
ATOM      9  N   UNL     1      48.624   2.050   6.507  0.00  0.00    +0.000 N 
ATOM     10  O   UNL     1      47.093   2.815   5.023  0.00  0.00    +0.000 OA
ATOM     11  H   UNL     1      48.860   1.868   7.477  0.00  0.00    +0.000 HD
ATOM     12  H   UNL     1      49.284   1.843   5.772  0.00  0.00    +0.000 HD
ENDBRANCH   5   8
ENDBRANCH   1   2
BRANCH   1  13
ATOM     13  O   UNL     1      43.990   4.887  11.021  0.00  0.00    +0.000 OA
BRANCH  13  17
ATOM     14  C   UNL     1      47.225   5.984  13.433  0.00  0.00    +0.000 A 
ATOM     15  C   UNL     1      46.522   4.808  13.735  0.00  0.00    +0.000 A 
ATOM     16  C   UNL     1      45.435   4.396  12.955  0.00  0.00    +0.000 A 
ATOM     17  C   UNL     1      45.034   5.160  11.859  0.00  0.00    +0.000 A 
ATOM     18  C   UNL     1      45.737   6.326  11.547  0.00  0.00    +0.000 A 
ATOM     19  C   UNL     1      46.823   6.737  12.325  0.00  0.00    +0.000 A 
BRANCH  14  20
ATOM     20  C   UNL     1      48.368   6.445  14.303  0.00  0.00    +0.000 C 
BRANCH  20  21
ATOM     21  N   UNL     1      48.306   5.860  15.636  0.00  0.00    +0.000 NA
ATOM     22  H   UNL     1      48.751   4.946  15.618  0.00  0.00    +0.000 HD
ATOM     23  H   UNL     1      47.329   5.699  15.878  0.00  0.00    +0.000 HD
ENDBRANCH  20  21
ENDBRANCH  14  20
ENDBRANCH  13  17
ENDBRANCH   1  13
TORSDOF 6
ENDMDL
MODEL 5
REMARK VINA RESULT:    -6.845      2.593      6.771
REMARK INTER + INTRA:          -9.327
REMARK INTER:                  -9.008
REMARK INTRA:                  -0.319
REMARK UNBOUND:                -0.282
REMARK  Name = 
REMARK  6 active torsions:
REMARK  status: ('A' for Active; 'I' for Inactive)
REMARK    1  A    between atoms: N_1  and  C_2
REMARK    2  A    between atoms: C_2  and  C_3
REMARK    3  A    between atoms: C_6  and  O_7
REMARK    4  A    between atoms: O_7  and  C_8
REMARK    5  A    between atoms: C_8  and  C_9
REMARK    6  A    between atoms: C_12  and  C_13
REMARK                            x       y       z     vdW  Elec       q    Type
REMARK                         _______ _______ _______ _____ _____    ______ ____
ROOT
ATOM      1  C   UNL     1      43.913   3.544  10.537  0.00  0.00    +0.000 C 
ENDROOT
BRANCH   1   2
ATOM      2  C   UNL     1      44.897   3.248   9.430  0.00  0.00    +0.000 A 
ATOM      3  C   UNL     1      45.369   4.252   8.584  0.00  0.00    +0.000 A 
ATOM      4  N   UNL     1      46.219   4.023   7.549  0.00  0.00    +0.000 NA
ATOM      5  C   UNL     1      46.581   2.719   7.390  0.00  0.00    +0.000 A 
ATOM      6  C   UNL     1      46.114   1.710   8.215  0.00  0.00    +0.000 A 
ATOM      7  N   UNL     1      45.260   1.949   9.243  0.00  0.00    +0.000 NA
BRANCH   5   8
ATOM      8  C   UNL     1      47.508   2.387   6.274  0.00  0.00    +0.000 C 
ATOM      9  N   UNL     1      47.337   3.098   5.116  0.00  0.00    +0.000 N 
ATOM     10  O   UNL     1      48.373   1.527   6.376  0.00  0.00    +0.000 OA
ATOM     11  H   UNL     1      46.612   3.806   5.056  0.00  0.00    +0.000 HD
ATOM     12  H   UNL     1      47.936   2.910   4.326  0.00  0.00    +0.000 HD
ENDBRANCH   5   8
ENDBRANCH   1   2
BRANCH   1  13
ATOM     13  O   UNL     1      44.607   3.833  11.752  0.00  0.00    +0.000 OA
BRANCH  13  17
ATOM     14  C   UNL     1      45.506   7.884  12.271  0.00  0.00    +0.000 A 
ATOM     15  C   UNL     1      46.401   6.922  12.765  0.00  0.00    +0.000 A 
ATOM     16  C   UNL     1      46.146   5.554  12.611  0.00  0.00    +0.000 A 
ATOM     17  C   UNL     1      44.987   5.128  11.962  0.00  0.00    +0.000 A 
ATOM     18  C   UNL     1      44.099   6.082  11.459  0.00  0.00    +0.000 A 
ATOM     19  C   UNL     1      44.353   7.447  11.611  0.00  0.00    +0.000 A 
BRANCH  14  20
ATOM     20  C   UNL     1      45.764   9.355  12.478  0.00  0.00    +0.000 C 
BRANCH  20  21
ATOM     21  N   UNL     1      47.031   9.594  13.158  0.00  0.00    +0.000 NA
ATOM     22  H   UNL     1      47.257   8.785  13.732  0.00  0.00    +0.000 HD
ATOM     23  H   UNL     1      46.916  10.378  13.799  0.00  0.00    +0.000 HD
ENDBRANCH  20  21
ENDBRANCH  14  20
ENDBRANCH  13  17
ENDBRANCH   1  13
TORSDOF 6
ENDMDL
MODEL 6
REMARK VINA RESULT:    -6.084      3.948      6.331
REMARK INTER + INTRA:          -8.322
REMARK INTER:                  -7.971
REMARK INTRA:                  -0.351
REMARK UNBOUND:                -0.282
REMARK  Name = 
REMARK  6 active torsions:
REMARK  status: ('A' for Active; 'I' for Inactive)
REMARK    1  A    between atoms: N_1  and  C_2
REMARK    2  A    between atoms: C_2  and  C_3
REMARK    3  A    between atoms: C_6  and  O_7
REMARK    4  A    between atoms: O_7  and  C_8
REMARK    5  A    between atoms: C_8  and  C_9
REMARK    6  A    between atoms: C_12  and  C_13
REMARK                            x       y       z     vdW  Elec       q    Type
REMARK                         _______ _______ _______ _____ _____    ______ ____
ROOT
ATOM      1  C   UNL     1      47.486   4.545  16.129  0.00  0.00    +0.000 C 
ENDROOT
BRANCH   1   2
ATOM      2  C   UNL     1      48.707   3.744  16.520  0.00  0.00    +0.000 A 
ATOM      3  C   UNL     1      48.771   2.365  16.315  0.00  0.00    +0.000 A 
ATOM      4  N   UNL     1      49.829   1.600  16.691  0.00  0.00    +0.000 NA
ATOM      5  C   UNL     1      50.838   2.285  17.298  0.00  0.00    +0.000 A 
ATOM      6  C   UNL     1      50.785   3.652  17.518  0.00  0.00    +0.000 A 
ATOM      7  N   UNL     1      49.720   4.407  17.143  0.00  0.00    +0.000 NA
BRANCH   5   8
ATOM      8  C   UNL     1      52.031   1.515  17.744  0.00  0.00    +0.000 C 
ATOM      9  N   UNL     1      51.811   0.209  18.090  0.00  0.00    +0.000 N 
ATOM     10  O   UNL     1      53.148   2.014  17.803  0.00  0.00    +0.000 OA
ATOM     11  H   UNL     1      50.876  -0.182  18.034  0.00  0.00    +0.000 HD
ATOM     12  H   UNL     1      52.585  -0.358  18.404  0.00  0.00    +0.000 HD
ENDBRANCH   5   8
ENDBRANCH   1   2
BRANCH   1  13
ATOM     13  O   UNL     1      47.721   5.237  14.902  0.00  0.00    +0.000 OA
BRANCH  13  17
ATOM     14  C   UNL     1      44.935   4.411  11.895  0.00  0.00    +0.000 A 
ATOM     15  C   UNL     1      45.228   5.749  12.198  0.00  0.00    +0.000 A 
ATOM     16  C   UNL     1      46.157   6.076  13.193  0.00  0.00    +0.000 A 
ATOM     17  C   UNL     1      46.805   5.065  13.902  0.00  0.00    +0.000 A 
ATOM     18  C   UNL     1      46.525   3.731  13.597  0.00  0.00    +0.000 A 
ATOM     19  C   UNL     1      45.598   3.404  12.604  0.00  0.00    +0.000 A 
BRANCH  14  20
ATOM     20  C   UNL     1      43.901   4.065  10.853  0.00  0.00    +0.000 C 
BRANCH  20  21
ATOM     21  N   UNL     1      42.936   3.090  11.347  0.00  0.00    +0.000 NA
ATOM     22  H   UNL     1      42.250   3.568  11.926  0.00  0.00    +0.000 HD
ATOM     23  H   UNL     1      43.418   2.433  11.958  0.00  0.00    +0.000 HD
ENDBRANCH  20  21
ENDBRANCH  14  20
ENDBRANCH  13  17
ENDBRANCH   1  13
TORSDOF 6
ENDMDL
MODEL 7
REMARK VINA RESULT:    -6.009      3.378      7.746
REMARK INTER + INTRA:          -8.222
REMARK INTER:                  -7.877
REMARK INTRA:                  -0.345
REMARK UNBOUND:                -0.282
REMARK  Name = 
REMARK  6 active torsions:
REMARK  status: ('A' for Active; 'I' for Inactive)
REMARK    1  A    between atoms: N_1  and  C_2
REMARK    2  A    between atoms: C_2  and  C_3
REMARK    3  A    between atoms: C_6  and  O_7
REMARK    4  A    between atoms: O_7  and  C_8
REMARK    5  A    between atoms: C_8  and  C_9
REMARK    6  A    between atoms: C_12  and  C_13
REMARK                            x       y       z     vdW  Elec       q    Type
REMARK                         _______ _______ _______ _____ _____    ______ ____
ROOT
ATOM      1  C   UNL     1      47.578   5.439  15.026  0.00  0.00    +0.000 C 
ENDROOT
BRANCH   1   2
ATOM      2  C   UNL     1      46.555   5.005  14.002  0.00  0.00    +0.000 A 
ATOM      3  C   UNL     1      46.450   3.675  13.594  0.00  0.00    +0.000 A 
ATOM      4  N   UNL     1      45.576   3.248  12.645  0.00  0.00    +0.000 NA
ATOM      5  C   UNL     1      44.799   4.230  12.107  0.00  0.00    +0.000 A 
ATOM      6  C   UNL     1      44.898   5.556  12.494  0.00  0.00    +0.000 A 
ATOM      7  N   UNL     1      45.780   5.973  13.440  0.00  0.00    +0.000 NA
BRANCH   5   8
ATOM      8  C   UNL     1      43.819   3.842  11.056  0.00  0.00    +0.000 C 
ATOM      9  N   UNL     1      43.783   4.637   9.943  0.00  0.00    +0.000 N 
ATOM     10  O   UNL     1      43.082   2.872  11.175  0.00  0.00    +0.000 OA
ATOM     11  H   UNL     1      44.403   5.437   9.867  0.00  0.00    +0.000 HD
ATOM     12  H   UNL     1      43.134   4.422   9.200  0.00  0.00    +0.000 HD
ENDBRANCH   5   8
ENDBRANCH   1   2
BRANCH   1  13
ATOM     13  O   UNL     1      47.471   4.638  16.204  0.00  0.00    +0.000 OA
BRANCH  13  17
ATOM     14  C   UNL     1      50.823   2.436  17.388  0.00  0.00    +0.000 A 
ATOM     15  C   UNL     1      50.790   3.815  17.649  0.00  0.00    +0.000 A 
ATOM     16  C   UNL     1      49.688   4.593  17.276  0.00  0.00    +0.000 A 
ATOM     17  C   UNL     1      48.602   4.002  16.632  0.00  0.00    +0.000 A 
ATOM     18  C   UNL     1      48.625   2.628  16.379  0.00  0.00    +0.000 A 
ATOM     19  C   UNL     1      49.724   1.850  16.751  0.00  0.00    +0.000 A 
BRANCH  14  20
ATOM     20  C   UNL     1      52.032   1.611  17.752  0.00  0.00    +0.000 C 
BRANCH  20  21
ATOM     21  N   UNL     1      51.668   0.250  18.126  0.00  0.00    +0.000 NA
ATOM     22  H   UNL     1      52.249  -0.403  17.604  0.00  0.00    +0.000 HD
ATOM     23  H   UNL     1      50.708   0.076  17.833  0.00  0.00    +0.000 HD
ENDBRANCH  20  21
ENDBRANCH  14  20
ENDBRANCH  13  17
ENDBRANCH   1  13
TORSDOF 6
ENDMDL
MODEL 8
REMARK VINA RESULT:    -5.874      2.916      8.503
REMARK INTER + INTRA:          -8.044
REMARK INTER:                  -7.731
REMARK INTRA:                  -0.313
REMARK UNBOUND:                -0.282
REMARK  Name = 
REMARK  6 active torsions:
REMARK  status: ('A' for Active; 'I' for Inactive)
REMARK    1  A    between atoms: N_1  and  C_2
REMARK    2  A    between atoms: C_2  and  C_3
REMARK    3  A    between atoms: C_6  and  O_7
REMARK    4  A    between atoms: O_7  and  C_8
REMARK    5  A    between atoms: C_8  and  C_9
REMARK    6  A    between atoms: C_12  and  C_13
REMARK                            x       y       z     vdW  Elec       q    Type
REMARK                         _______ _______ _______ _____ _____    ______ ____
ROOT
ATOM      1  C   UNL     1      46.806   4.935  14.485  0.00  0.00    +0.000 C 
ENDROOT
BRANCH   1   2
ATOM      2  C   UNL     1      46.188   4.542  13.164  0.00  0.00    +0.000 A 
ATOM      3  C   UNL     1      46.033   5.463  12.127  0.00  0.00    +0.000 A 
ATOM      4  N   UNL     1      45.442   5.165  10.940  0.00  0.00    +0.000 NA
ATOM      5  C   UNL     1      45.001   3.880  10.833  0.00  0.00    +0.000 A 
ATOM      6  C   UNL     1      45.139   2.957  11.856  0.00  0.00    +0.000 A 
ATOM      7  N   UNL     1      45.725   3.267  13.041  0.00  0.00    +0.000 NA
BRANCH   5   8
ATOM      8  C   UNL     1      44.338   3.477   9.563  0.00  0.00    +0.000 C 
ATOM      9  N   UNL     1      44.026   4.491   8.698  0.00  0.00    +0.000 N 
ATOM     10  O   UNL     1      44.080   2.309   9.302  0.00  0.00    +0.000 OA
ATOM     11  H   UNL     1      44.249   5.452   8.937  0.00  0.00    +0.000 HD
ATOM     12  H   UNL     1      43.572   4.274   7.823  0.00  0.00    +0.000 HD
ENDBRANCH   5   8
ENDBRANCH   1   2
BRANCH   1  13
ATOM     13  O   UNL     1      47.359   3.788  15.133  0.00  0.00    +0.000 OA
BRANCH  13  17
ATOM     14  C   UNL     1      48.647   4.556  19.037  0.00  0.00    +0.000 A 
ATOM     15  C   UNL     1      48.319   3.240  18.678  0.00  0.00    +0.000 A 
ATOM     16  C   UNL     1      47.887   2.932  17.382  0.00  0.00    +0.000 A 
ATOM     17  C   UNL     1      47.776   3.941  16.426  0.00  0.00    +0.000 A 
ATOM     18  C   UNL     1      48.112   5.251  16.774  0.00  0.00    +0.000 A 
ATOM     19  C   UNL     1      48.543   5.559  18.067  0.00  0.00    +0.000 A 
BRANCH  14  20
ATOM     20  C   UNL     1      49.069   4.889  20.446  0.00  0.00    +0.000 C 
BRANCH  20  21
ATOM     21  N   UNL     1      50.396   4.370  20.753  0.00  0.00    +0.000 NA
ATOM     22  H   UNL     1      50.735   4.812  21.604  0.00  0.00    +0.000 HD
ATOM     23  H   UNL     1      51.036   4.648  20.011  0.00  0.00    +0.000 HD
ENDBRANCH  20  21
ENDBRANCH  14  20
ENDBRANCH  13  17
ENDBRANCH   1  13
TORSDOF 6
ENDMDL
MODEL 9
REMARK VINA RESULT:    -5.784      3.007      8.268
REMARK INTER + INTRA:          -7.925
REMARK INTER:                  -7.574
REMARK INTRA:                  -0.350
REMARK UNBOUND:                -0.282
REMARK  Name = 
REMARK  6 active torsions:
REMARK  status: ('A' for Active; 'I' for Inactive)
REMARK    1  A    between atoms: N_1  and  C_2
REMARK    2  A    between atoms: C_2  and  C_3
REMARK    3  A    between atoms: C_6  and  O_7
REMARK    4  A    between atoms: O_7  and  C_8
REMARK    5  A    between atoms: C_8  and  C_9
REMARK    6  A    between atoms: C_12  and  C_13
REMARK                            x       y       z     vdW  Elec       q    Type
REMARK                         _______ _______ _______ _____ _____    ______ ____
ROOT
ATOM      1  C   UNL     1      47.462   6.588  13.914  0.00  0.00    +0.000 C 
ENDROOT
BRANCH   1   2
ATOM      2  C   UNL     1      46.553   5.867  12.947  0.00  0.00    +0.000 A 
ATOM      3  C   UNL     1      45.935   4.662  13.287  0.00  0.00    +0.000 A 
ATOM      4  N   UNL     1      45.146   3.957  12.434  0.00  0.00    +0.000 NA
ATOM      5  C   UNL     1      45.003   4.517  11.199  0.00  0.00    +0.000 A 
ATOM      6  C   UNL     1      45.618   5.707  10.845  0.00  0.00    +0.000 A 
ATOM      7  N   UNL     1      46.409   6.400  11.703  0.00  0.00    +0.000 NA
BRANCH   5   8
ATOM      8  C   UNL     1      44.157   3.802  10.206  0.00  0.00    +0.000 C 
ATOM      9  N   UNL     1      44.032   4.398   8.980  0.00  0.00    +0.000 N 
ATOM     10  O   UNL     1      43.599   2.743  10.464  0.00  0.00    +0.000 OA
ATOM     11  H   UNL     1      44.504   5.276   8.790  0.00  0.00    +0.000 HD
ATOM     12  H   UNL     1      43.467   3.957   8.269  0.00  0.00    +0.000 HD
ENDBRANCH   5   8
ENDBRANCH   1   2
BRANCH   1  13
ATOM     13  O   UNL     1      48.354   5.663  14.539  0.00  0.00    +0.000 OA
BRANCH  13  17
ATOM     14  C   UNL     1      48.324   5.374  18.711  0.00  0.00    +0.000 A 
ATOM     15  C   UNL     1      48.983   6.458  18.111  0.00  0.00    +0.000 A 
ATOM     16  C   UNL     1      49.016   6.600  16.719  0.00  0.00    +0.000 A 
ATOM     17  C   UNL     1      48.391   5.656  15.905  0.00  0.00    +0.000 A 
ATOM     18  C   UNL     1      47.725   4.581  16.497  0.00  0.00    +0.000 A 
ATOM     19  C   UNL     1      47.690   4.438  17.887  0.00  0.00    +0.000 A 
BRANCH  14  20
ATOM     20  C   UNL     1      48.329   5.202  20.209  0.00  0.00    +0.000 C 
BRANCH  20  21
ATOM     21  N   UNL     1      48.391   3.797  20.595  0.00  0.00    +0.000 NA
ATOM     22  H   UNL     1      47.554   3.561  21.122  0.00  0.00    +0.000 HD
ATOM     23  H   UNL     1      49.177   3.667  21.230  0.00  0.00    +0.000 HD
ENDBRANCH  20  21
ENDBRANCH  14  20
ENDBRANCH  13  17
ENDBRANCH   1  13
TORSDOF 6
ENDMDL
