MODEL 1
REMARK VINA RESULT:    -7.448      0.000      0.000
REMARK INTER + INTRA:          -9.891
REMARK INTER:                  -9.189
REMARK INTRA:                  -0.702
REMARK UNBOUND:                -0.702
REMARK  Name = 
REMARK  6 active torsions:
REMARK  status: ('A' for Active; 'I' for Inactive)
REMARK    1  A    between atoms: C_1  and  C_2
REMARK    2  A    between atoms: C_4  and  C_5
REMARK    3  A    between atoms: C_10  and  N_11
REMARK    4  A    between atoms: N_11  and  C_12
REMARK    5  A    between atoms: C_12  and  C_13
REMARK    6  A    between atoms: C_12  and  C_14
REMARK                            x       y       z     vdW  Elec       q    Type
REMARK                         _______ _______ _______ _____ _____    ______ ____
ROOT
ATOM      1  C   UNL     1      44.146   2.316  10.324  0.00  0.00    +0.000 C 
ATOM      2  C   UNL     1      45.036   2.950   9.295  0.00  0.00    +0.000 A 
ATOM      3  N   UNL     1      45.744   2.083   8.516  0.00  0.00    +0.000 NA
ATOM      4  C   UNL     1      46.580   2.662   7.615  0.00  0.00    +0.000 A 
ATOM      5  C   UNL     1      46.701   4.031   7.493  0.00  0.00    +0.000 A 
ATOM      6  N   UNL     1      46.008   4.892   8.282  0.00  0.00    +0.000 NA
ATOM      7  C   UNL     1      45.167   4.354   9.195  0.00  0.00    +0.000 A 
ENDROOT
BRANCH   4   8
ATOM      8  C   UNL     1      47.400   1.756   6.766  0.00  0.00    +0.000 C 
ATOM      9  N   UNL     1      48.480   2.341   6.160  0.00  0.00    +0.000 N 
ATOM     10  O   UNL     1      47.126   0.574   6.608  0.00  0.00    +0.000 OA
ATOM     11  H   UNL     1      48.658   3.330   6.298  0.00  0.00    +0.000 HD
ATOM     12  H   UNL     1      49.067   1.797   5.545  0.00  0.00    +0.000 HD
ENDBRANCH   4   8
BRANCH   7  13
ATOM     13  N   UNL     1      44.417   5.206  10.025  0.00  0.00    +0.000 N 
ATOM     14  H   UNL     1      43.592   5.515   9.518  0.00  0.00    +0.000 HD
BRANCH  13  15
ATOM     15  C   UNL     1      45.154   6.321  10.634  0.00  0.00    +0.000 C 
ATOM     16  C   UNL     1      44.234   7.457  11.088  0.00  0.00    +0.000 C 
BRANCH  15  17
ATOM     17  C   UNL     1      45.956   5.842  11.846  0.00  0.00    +0.000 A 
ATOM     18  C   UNL     1      45.490   4.851  12.729  0.00  0.00    +0.000 A 
ATOM     19  C   UNL     1      46.218   4.505  13.875  0.00  0.00    +0.000 A 
ATOM     20  C   UNL     1      47.420   5.149  14.157  0.00  0.00    +0.000 A 
ATOM     21  C   UNL     1      47.888   6.124  13.287  0.00  0.00    +0.000 A 
ATOM     22  F   UNL     1      49.038   6.756  13.563  0.00  0.00    +0.000 F 
ATOM     23  C   UNL     1      47.176   6.472  12.145  0.00  0.00    +0.000 A 
ENDBRANCH  15  17
ENDBRANCH  13  15
ENDBRANCH   7  13
TORSDOF 4
ENDMDL
MODEL 2
REMARK VINA RESULT:    -6.723      4.052      6.780
REMARK INTER + INTRA:          -8.998
REMARK INTER:                  -8.476
REMARK INTRA:                  -0.522
REMARK UNBOUND:                -0.702
REMARK  Name = 
REMARK  6 active torsions:
REMARK  status: ('A' for Active; 'I' for Inactive)
REMARK    1  A    between atoms: C_1  and  C_2
REMARK    2  A    between atoms: C_4  and  C_5
REMARK    3  A    between atoms: C_10  and  N_11
REMARK    4  A    between atoms: N_11  and  C_12
REMARK    5  A    between atoms: C_12  and  C_13
REMARK    6  A    between atoms: C_12  and  C_14
REMARK                            x       y       z     vdW  Elec       q    Type
REMARK                         _______ _______ _______ _____ _____    ______ ____
ROOT
ATOM      1  C   UNL     1      48.038   7.167  12.111  0.00  0.00    +0.000 C 
ATOM      2  C   UNL     1      47.413   6.176  13.048  0.00  0.00    +0.000 A 
ATOM      3  N   UNL     1      48.056   6.007  14.239  0.00  0.00    +0.000 NA
ATOM      4  C   UNL     1      47.511   5.077  15.066  0.00  0.00    +0.000 A 
ATOM      5  C   UNL     1      46.383   4.357  14.728  0.00  0.00    +0.000 A 
ATOM      6  N   UNL     1      45.755   4.515  13.534  0.00  0.00    +0.000 NA
ATOM      7  C   UNL     1      46.271   5.430  12.680  0.00  0.00    +0.000 A 
ENDROOT
BRANCH   4   8
ATOM      8  C   UNL     1      48.198   4.832  16.363  0.00  0.00    +0.000 C 
ATOM      9  N   UNL     1      47.889   5.715  17.364  0.00  0.00    +0.000 N 
ATOM     10  O   UNL     1      48.991   3.915  16.525  0.00  0.00    +0.000 OA
ATOM     11  H   UNL     1      47.244   6.476  17.181  0.00  0.00    +0.000 HD
ATOM     12  H   UNL     1      48.337   5.631  18.264  0.00  0.00    +0.000 HD
ENDBRANCH   4   8
BRANCH   7  13
ATOM     13  N   UNL     1      45.646   5.638  11.438  0.00  0.00    +0.000 N 
ATOM     14  H   UNL     1      45.180   6.542  11.452  0.00  0.00    +0.000 HD
BRANCH  13  15
ATOM     15  C   UNL     1      44.767   4.558  10.971  0.00  0.00    +0.000 C 
ATOM     16  C   UNL     1      43.351   5.045  10.655  0.00  0.00    +0.000 C 
BRANCH  15  17
ATOM     17  C   UNL     1      45.339   3.900   9.714  0.00  0.00    +0.000 A 
ATOM     18  C   UNL     1      45.828   4.636   8.619  0.00  0.00    +0.000 A 
ATOM     19  C   UNL     1      46.261   3.992   7.452  0.00  0.00    +0.000 A 
ATOM     20  C   UNL     1      46.207   2.604   7.361  0.00  0.00    +0.000 A 
ATOM     21  C   UNL     1      45.731   1.871   8.440  0.00  0.00    +0.000 A 
ATOM     22  F   UNL     1      45.665   0.536   8.351  0.00  0.00    +0.000 F 
ATOM     23  C   UNL     1      45.303   2.499   9.604  0.00  0.00    +0.000 A 
ENDBRANCH  15  17
ENDBRANCH  13  15
ENDBRANCH   7  13
TORSDOF 4
ENDMDL
MODEL 3
REMARK VINA RESULT:    -6.677      1.615      2.565
REMARK INTER + INTRA:          -8.941
REMARK INTER:                  -8.863
REMARK INTRA:                  -0.078
REMARK UNBOUND:                -0.702
REMARK  Name = 
REMARK  6 active torsions:
REMARK  status: ('A' for Active; 'I' for Inactive)
REMARK    1  A    between atoms: C_1  and  C_2
REMARK    2  A    between atoms: C_4  and  C_5
REMARK    3  A    between atoms: C_10  and  N_11
REMARK    4  A    between atoms: N_11  and  C_12
REMARK    5  A    between atoms: C_12  and  C_13
REMARK    6  A    between atoms: C_12  and  C_14
REMARK                            x       y       z     vdW  Elec       q    Type
REMARK                         _______ _______ _______ _____ _____    ______ ____
ROOT
ATOM      1  C   UNL     1      46.055   5.473   8.779  0.00  0.00    +0.000 C 
ATOM      2  C   UNL     1      45.670   4.022   8.796  0.00  0.00    +0.000 A 
ATOM      3  N   UNL     1      46.523   3.180   8.146  0.00  0.00    +0.000 NA
ATOM      4  C   UNL     1      46.148   1.874   8.126  0.00  0.00    +0.000 A 
ATOM      5  C   UNL     1      44.987   1.430   8.726  0.00  0.00    +0.000 A 
ATOM      6  N   UNL     1      44.129   2.274   9.357  0.00  0.00    +0.000 NA
ATOM      7  C   UNL     1      44.467   3.584   9.393  0.00  0.00    +0.000 A 
ENDROOT
BRANCH   4   8
ATOM      8  C   UNL     1      47.030   0.922   7.400  0.00  0.00    +0.000 C 
ATOM      9  N   UNL     1      46.769  -0.404   7.623  0.00  0.00    +0.000 N 
ATOM     10  O   UNL     1      47.934   1.293   6.663  0.00  0.00    +0.000 OA
ATOM     11  H   UNL     1      46.026  -0.668   8.261  0.00  0.00    +0.000 HD
ATOM     12  H   UNL     1      47.344  -1.109   7.188  0.00  0.00    +0.000 HD
ENDBRANCH   4   8
BRANCH   7  13
ATOM     13  N   UNL     1      43.617   4.493  10.049  0.00  0.00    +0.000 N 
ATOM     14  H   UNL     1      43.900   5.440   9.808  0.00  0.00    +0.000 HD
BRANCH  13  15
ATOM     15  C   UNL     1      43.464   4.301  11.496  0.00  0.00    +0.000 C 
ATOM     16  C   UNL     1      43.278   2.831  11.879  0.00  0.00    +0.000 C 
BRANCH  15  17
ATOM     17  C   UNL     1      44.685   4.839  12.246  0.00  0.00    +0.000 A 
ATOM     18  C   UNL     1      45.113   6.177  12.152  0.00  0.00    +0.000 A 
ATOM     19  C   UNL     1      46.287   6.604  12.786  0.00  0.00    +0.000 A 
ATOM     20  C   UNL     1      47.052   5.701  13.518  0.00  0.00    +0.000 A 
ATOM     21  C   UNL     1      46.633   4.382  13.620  0.00  0.00    +0.000 A 
ATOM     22  F   UNL     1      47.374   3.506  14.313  0.00  0.00    +0.000 F 
ATOM     23  C   UNL     1      45.468   3.947  12.999  0.00  0.00    +0.000 A 
ENDBRANCH  15  17
ENDBRANCH  13  15
ENDBRANCH   7  13
TORSDOF 4
ENDMDL
MODEL 4
REMARK VINA RESULT:    -6.673      3.661      6.305
REMARK INTER + INTRA:          -8.935
REMARK INTER:                  -9.185
REMARK INTRA:                   0.250
REMARK UNBOUND:                -0.702
REMARK  Name = 
REMARK  6 active torsions:
REMARK  status: ('A' for Active; 'I' for Inactive)
REMARK    1  A    between atoms: C_1  and  C_2
REMARK    2  A    between atoms: C_4  and  C_5
REMARK    3  A    between atoms: C_10  and  N_11
REMARK    4  A    between atoms: N_11  and  C_12
REMARK    5  A    between atoms: C_12  and  C_13
REMARK    6  A    between atoms: C_12  and  C_14
REMARK                            x       y       z     vdW  Elec       q    Type
REMARK                         _______ _______ _______ _____ _____    ______ ____
ROOT
ATOM      1  C   UNL     1      43.830   6.295  11.708  0.00  0.00    +0.000 C 
ATOM      2  C   UNL     1      44.735   5.188  12.165  0.00  0.00    +0.000 A 
ATOM      3  N   UNL     1      45.417   5.426  13.321  0.00  0.00    +0.000 NA
ATOM      4  C   UNL     1      46.268   4.440  13.708  0.00  0.00    +0.000 A 
ATOM      5  C   UNL     1      46.427   3.276  12.984  0.00  0.00    +0.000 A 
ATOM      6  N   UNL     1      45.759   3.048  11.823  0.00  0.00    +0.000 NA
ATOM      7  C   UNL     1      44.906   4.011  11.402  0.00  0.00    +0.000 A 
ENDROOT
BRANCH   4   8
ATOM      8  C   UNL     1      47.061   4.669  14.945  0.00  0.00    +0.000 C 
ATOM      9  N   UNL     1      46.758   3.844  15.996  0.00  0.00    +0.000 N 
ATOM     10  O   UNL     1      47.916   5.541  15.028  0.00  0.00    +0.000 OA
ATOM     11  H   UNL     1      46.025   3.150  15.893  0.00  0.00    +0.000 HD
ATOM     12  H   UNL     1      47.233   3.958  16.878  0.00  0.00    +0.000 HD
ENDBRANCH   4   8
BRANCH   7  13
ATOM     13  N   UNL     1      44.181   3.813  10.213  0.00  0.00    +0.000 N 
ATOM     14  H   UNL     1      43.906   2.836  10.155  0.00  0.00    +0.000 HD
BRANCH  13  15
ATOM     15  C   UNL     1      44.823   4.293   8.983  0.00  0.00    +0.000 C 
ATOM     16  C   UNL     1      45.860   5.387   9.248  0.00  0.00    +0.000 C 
BRANCH  15  17
ATOM     17  C   UNL     1      45.516   3.143   8.249  0.00  0.00    +0.000 A 
ATOM     18  C   UNL     1      45.519   1.820   8.729  0.00  0.00    +0.000 A 
ATOM     19  C   UNL     1      46.240   0.816   8.070  0.00  0.00    +0.000 A 
ATOM     20  C   UNL     1      46.973   1.121   6.926  0.00  0.00    +0.000 A 
ATOM     21  C   UNL     1      46.970   2.423   6.445  0.00  0.00    +0.000 A 
ATOM     22  F   UNL     1      47.686   2.723   5.352  0.00  0.00    +0.000 F 
ATOM     23  C   UNL     1      46.254   3.426   7.088  0.00  0.00    +0.000 A 
ENDBRANCH  15  17
ENDBRANCH  13  15
ENDBRANCH   7  13
TORSDOF 4
ENDMDL
MODEL 5
REMARK VINA RESULT:    -6.589      4.009      6.713
REMARK INTER + INTRA:          -8.832
REMARK INTER:                  -8.289
REMARK INTRA:                  -0.543
REMARK UNBOUND:                -0.702
REMARK  Name = 
REMARK  6 active torsions:
REMARK  status: ('A' for Active; 'I' for Inactive)
REMARK    1  A    between atoms: C_1  and  C_2
REMARK    2  A    between atoms: C_4  and  C_5
REMARK    3  A    between atoms: C_10  and  N_11
REMARK    4  A    between atoms: N_11  and  C_12
REMARK    5  A    between atoms: C_12  and  C_13
REMARK    6  A    between atoms: C_12  and  C_14
REMARK                            x       y       z     vdW  Elec       q    Type
REMARK                         _______ _______ _______ _____ _____    ______ ____
ROOT
ATOM      1  C   UNL     1      44.413   9.022  11.388  0.00  0.00    +0.000 C 
ATOM      2  C   UNL     1      45.492   8.189  12.016  0.00  0.00    +0.000 A 
ATOM      3  N   UNL     1      46.255   8.824  12.952  0.00  0.00    +0.000 NA
ATOM      4  C   UNL     1      47.258   8.080  13.486  0.00  0.00    +0.000 A 
ATOM      5  C   UNL     1      47.486   6.771  13.113  0.00  0.00    +0.000 A 
ATOM      6  N   UNL     1      46.736   6.146  12.168  0.00  0.00    +0.000 NA
ATOM      7  C   UNL     1      45.730   6.857  11.609  0.00  0.00    +0.000 A 
ENDROOT
BRANCH   4   8
ATOM      8  C   UNL     1      48.139   8.740  14.486  0.00  0.00    +0.000 C 
ATOM      9  N   UNL     1      47.501   9.237  15.591  0.00  0.00    +0.000 N 
ATOM     10  O   UNL     1      49.348   8.846  14.330  0.00  0.00    +0.000 OA
ATOM     11  H   UNL     1      46.493   9.150  15.670  0.00  0.00    +0.000 HD
ATOM     12  H   UNL     1      48.028   9.724  16.300  0.00  0.00    +0.000 HD
ENDBRANCH   4   8
BRANCH   7  13
ATOM     13  N   UNL     1      44.916   6.247  10.637  0.00  0.00    +0.000 N 
ATOM     14  H   UNL     1      44.116   6.846  10.455  0.00  0.00    +0.000 HD
BRANCH  13  15
ATOM     15  C   UNL     1      44.531   4.856  10.903  0.00  0.00    +0.000 C 
ATOM     16  C   UNL     1      43.020   4.686  11.078  0.00  0.00    +0.000 C 
BRANCH  15  17
ATOM     17  C   UNL     1      44.986   3.940   9.765  0.00  0.00    +0.000 A 
ATOM     18  C   UNL     1      44.870   2.538   9.817  0.00  0.00    +0.000 A 
ATOM     19  C   UNL     1      45.380   1.734   8.789  0.00  0.00    +0.000 A 
ATOM     20  C   UNL     1      46.019   2.318   7.699  0.00  0.00    +0.000 A 
ATOM     21  C   UNL     1      46.133   3.700   7.640  0.00  0.00    +0.000 A 
ATOM     22  F   UNL     1      46.760   4.266   6.598  0.00  0.00    +0.000 F 
ATOM     23  C   UNL     1      45.626   4.509   8.651  0.00  0.00    +0.000 A 
ENDBRANCH  15  17
ENDBRANCH  13  15
ENDBRANCH   7  13
TORSDOF 4
ENDMDL
MODEL 6
REMARK VINA RESULT:    -6.468      2.957      4.676
REMARK INTER + INTRA:          -8.683
REMARK INTER:                  -8.114
REMARK INTRA:                  -0.569
REMARK UNBOUND:                -0.702
REMARK  Name = 
REMARK  6 active torsions:
REMARK  status: ('A' for Active; 'I' for Inactive)
REMARK    1  A    between atoms: C_1  and  C_2
REMARK    2  A    between atoms: C_4  and  C_5
REMARK    3  A    between atoms: C_10  and  N_11
REMARK    4  A    between atoms: N_11  and  C_12
REMARK    5  A    between atoms: C_12  and  C_13
REMARK    6  A    between atoms: C_12  and  C_14
REMARK                            x       y       z     vdW  Elec       q    Type
REMARK                         _______ _______ _______ _____ _____    ______ ____
ROOT
ATOM      1  C   UNL     1      45.812   7.207  11.675  0.00  0.00    +0.000 C 
ATOM      2  C   UNL     1      45.621   5.718  11.699  0.00  0.00    +0.000 A 
ATOM      3  N   UNL     1      45.222   5.158  10.521  0.00  0.00    +0.000 NA
ATOM      4  C   UNL     1      45.008   3.817  10.559  0.00  0.00    +0.000 A 
ATOM      5  C   UNL     1      45.186   3.073  11.707  0.00  0.00    +0.000 A 
ATOM      6  N   UNL     1      45.565   3.636  12.884  0.00  0.00    +0.000 NA
ATOM      7  C   UNL     1      45.784   4.971  12.887  0.00  0.00    +0.000 A 
ENDROOT
BRANCH   4   8
ATOM      8  C   UNL     1      44.538   3.166   9.307  0.00  0.00    +0.000 C 
ATOM      9  N   UNL     1      44.134   4.023   8.317  0.00  0.00    +0.000 N 
ATOM     10  O   UNL     1      44.503   1.951   9.169  0.00  0.00    +0.000 OA
ATOM     11  H   UNL     1      44.157   5.024   8.481  0.00  0.00    +0.000 HD
ATOM     12  H   UNL     1      43.776   3.655   7.449  0.00  0.00    +0.000 HD
ENDBRANCH   4   8
BRANCH   7  13
ATOM     13  N   UNL     1      46.193   5.597  14.078  0.00  0.00    +0.000 N 
ATOM     14  H   UNL     1      45.830   6.546  14.093  0.00  0.00    +0.000 HD
BRANCH  13  15
ATOM     15  C   UNL     1      47.631   5.539  14.373  0.00  0.00    +0.000 C 
ATOM     16  C   UNL     1      48.312   6.905  14.254  0.00  0.00    +0.000 C 
BRANCH  15  17
ATOM     17  C   UNL     1      47.873   5.006  15.787  0.00  0.00    +0.000 A 
ATOM     18  C   UNL     1      48.848   5.539  16.650  0.00  0.00    +0.000 A 
ATOM     19  C   UNL     1      49.095   4.962  17.902  0.00  0.00    +0.000 A 
ATOM     20  C   UNL     1      48.376   3.842  18.308  0.00  0.00    +0.000 A 
ATOM     21  C   UNL     1      47.409   3.314  17.464  0.00  0.00    +0.000 A 
ATOM     22  F   UNL     1      46.723   2.227  17.845  0.00  0.00    +0.000 F 
ATOM     23  C   UNL     1      47.152   3.881  16.221  0.00  0.00    +0.000 A 
ENDBRANCH  15  17
ENDBRANCH  13  15
ENDBRANCH   7  13
TORSDOF 4
ENDMDL
MODEL 7
REMARK VINA RESULT:    -6.307      4.043      6.272
REMARK INTER + INTRA:          -8.484
REMARK INTER:                  -8.794
REMARK INTRA:                   0.310
REMARK UNBOUND:                -0.702
REMARK  Name = 
REMARK  6 active torsions:
REMARK  status: ('A' for Active; 'I' for Inactive)
REMARK    1  A    between atoms: C_1  and  C_2
REMARK    2  A    between atoms: C_4  and  C_5
REMARK    3  A    between atoms: C_10  and  N_11
REMARK    4  A    between atoms: N_11  and  C_12
REMARK    5  A    between atoms: C_12  and  C_13
REMARK    6  A    between atoms: C_12  and  C_14
REMARK                            x       y       z     vdW  Elec       q    Type
REMARK                         _______ _______ _______ _____ _____    ______ ____
ROOT
ATOM      1  C   UNL     1      46.923   3.330  13.652  0.00  0.00    +0.000 C 
ATOM      2  C   UNL     1      46.356   4.689  13.362  0.00  0.00    +0.000 A 
ATOM      3  N   UNL     1      47.220   5.732  13.523  0.00  0.00    +0.000 NA
ATOM      4  C   UNL     1      46.692   6.964  13.303  0.00  0.00    +0.000 A 
ATOM      5  C   UNL     1      45.374   7.148  12.935  0.00  0.00    +0.000 A 
ATOM      6  N   UNL     1      44.511   6.108  12.793  0.00  0.00    +0.000 NA
ATOM      7  C   UNL     1      45.000   4.865  13.009  0.00  0.00    +0.000 A 
ENDROOT
BRANCH   4   8
ATOM      8  C   UNL     1      47.587   8.136  13.500  0.00  0.00    +0.000 C 
ATOM      9  N   UNL     1      47.274   8.939  14.565  0.00  0.00    +0.000 N 
ATOM     10  O   UNL     1      48.530   8.376  12.759  0.00  0.00    +0.000 OA
ATOM     11  H   UNL     1      46.468   8.717  15.140  0.00  0.00    +0.000 HD
ATOM     12  H   UNL     1      47.818   9.769  14.745  0.00  0.00    +0.000 HD
ENDBRANCH   4   8
BRANCH   7  13
ATOM     13  N   UNL     1      44.147   3.757  12.858  0.00  0.00    +0.000 N 
ATOM     14  H   UNL     1      44.686   2.906  12.998  0.00  0.00    +0.000 HD
BRANCH  13  15
ATOM     15  C   UNL     1      43.350   3.723  11.625  0.00  0.00    +0.000 C 
ATOM     16  C   UNL     1      42.531   4.999  11.418  0.00  0.00    +0.000 C 
BRANCH  15  17
ATOM     17  C   UNL     1      44.250   3.528  10.403  0.00  0.00    +0.000 A 
ATOM     18  C   UNL     1      44.703   4.598   9.608  0.00  0.00    +0.000 A 
ATOM     19  C   UNL     1      45.453   4.366   8.448  0.00  0.00    +0.000 A 
ATOM     20  C   UNL     1      45.757   3.063   8.063  0.00  0.00    +0.000 A 
ATOM     21  C   UNL     1      45.318   2.004   8.845  0.00  0.00    +0.000 A 
ATOM     22  F   UNL     1      45.597   0.748   8.470  0.00  0.00    +0.000 F 
ATOM     23  C   UNL     1      44.577   2.222  10.001  0.00  0.00    +0.000 A 
ENDBRANCH  15  17
ENDBRANCH  13  15
ENDBRANCH   7  13
TORSDOF 4
ENDMDL
MODEL 8
REMARK VINA RESULT:    -6.027      4.586      7.163
REMARK INTER + INTRA:          -8.139
REMARK INTER:                  -7.615
REMARK INTRA:                  -0.523
REMARK UNBOUND:                -0.702
REMARK  Name = 
REMARK  6 active torsions:
REMARK  status: ('A' for Active; 'I' for Inactive)
REMARK    1  A    between atoms: C_1  and  C_2
REMARK    2  A    between atoms: C_4  and  C_5
REMARK    3  A    between atoms: C_10  and  N_11
REMARK    4  A    between atoms: N_11  and  C_12
REMARK    5  A    between atoms: C_12  and  C_13
REMARK    6  A    between atoms: C_12  and  C_14
REMARK                            x       y       z     vdW  Elec       q    Type
REMARK                         _______ _______ _______ _____ _____    ______ ____
ROOT
ATOM      1  C   UNL     1      48.916   7.402  14.056  0.00  0.00    +0.000 C 
ATOM      2  C   UNL     1      48.220   6.222  14.669  0.00  0.00    +0.000 A 
ATOM      3  N   UNL     1      48.614   5.901  15.935  0.00  0.00    +0.000 NA
ATOM      4  C   UNL     1      48.014   4.805  16.470  0.00  0.00    +0.000 A 
ATOM      5  C   UNL     1      47.067   4.072  15.782  0.00  0.00    +0.000 A 
ATOM      6  N   UNL     1      46.691   4.384  14.515  0.00  0.00    +0.000 NA
ATOM      7  C   UNL     1      47.270   5.466  13.946  0.00  0.00    +0.000 A 
ENDROOT
BRANCH   4   8
ATOM      8  C   UNL     1      48.435   4.395  17.836  0.00  0.00    +0.000 C 
ATOM      9  N   UNL     1      47.469   4.496  18.801  0.00  0.00    +0.000 N 
ATOM     10  O   UNL     1      49.568   4.005  18.086  0.00  0.00    +0.000 OA
ATOM     11  H   UNL     1      46.550   4.847  18.556  0.00  0.00    +0.000 HD
ATOM     12  H   UNL     1      47.688   4.263  19.758  0.00  0.00    +0.000 HD
ENDBRANCH   4   8
BRANCH   7  13
ATOM     13  N   UNL     1      46.901   5.837  12.641  0.00  0.00    +0.000 N 
ATOM     14  H   UNL     1      47.394   6.689  12.389  0.00  0.00    +0.000 HD
BRANCH  13  15
ATOM     15  C   UNL     1      45.458   5.923  12.383  0.00  0.00    +0.000 C 
ATOM     16  C   UNL     1      45.034   7.297  11.858  0.00  0.00    +0.000 C 
BRANCH  15  17
ATOM     17  C   UNL     1      45.026   4.867  11.362  0.00  0.00    +0.000 A 
ATOM     18  C   UNL     1      44.315   3.706  11.716  0.00  0.00    +0.000 A 
ATOM     19  C   UNL     1      44.017   2.724  10.762  0.00  0.00    +0.000 A 
ATOM     20  C   UNL     1      44.431   2.886   9.443  0.00  0.00    +0.000 A 
ATOM     21  C   UNL     1      45.129   4.031   9.086  0.00  0.00    +0.000 A 
ATOM     22  F   UNL     1      45.540   4.184   7.820  0.00  0.00    +0.000 F 
ATOM     23  C   UNL     1      45.425   5.015  10.023  0.00  0.00    +0.000 A 
ENDBRANCH  15  17
ENDBRANCH  13  15
ENDBRANCH   7  13
TORSDOF 4
ENDMDL
MODEL 9
REMARK VINA RESULT:    -5.931      5.048      7.514
REMARK INTER + INTRA:          -8.020
REMARK INTER:                  -7.464
REMARK INTRA:                  -0.556
REMARK UNBOUND:                -0.702
REMARK  Name = 
REMARK  6 active torsions:
REMARK  status: ('A' for Active; 'I' for Inactive)
REMARK    1  A    between atoms: C_1  and  C_2
REMARK    2  A    between atoms: C_4  and  C_5
REMARK    3  A    between atoms: C_10  and  N_11
REMARK    4  A    between atoms: N_11  and  C_12
REMARK    5  A    between atoms: C_12  and  C_13
REMARK    6  A    between atoms: C_12  and  C_14
REMARK                            x       y       z     vdW  Elec       q    Type
REMARK                         _______ _______ _______ _____ _____    ______ ____
ROOT
ATOM      1  C   UNL     1      48.865   7.434  14.692  0.00  0.00    +0.000 C 
ATOM      2  C   UNL     1      48.354   6.128  15.226  0.00  0.00    +0.000 A 
ATOM      3  N   UNL     1      48.769   5.804  16.484  0.00  0.00    +0.000 NA
ATOM      4  C   UNL     1      48.340   4.601  16.946  0.00  0.00    +0.000 A 
ATOM      5  C   UNL     1      47.534   3.767  16.197  0.00  0.00    +0.000 A 
ATOM      6  N   UNL     1      47.136   4.084  14.938  0.00  0.00    +0.000 NA
ATOM      7  C   UNL     1      47.548   5.274  14.440  0.00  0.00    +0.000 A 
ENDROOT
BRANCH   4   8
ATOM      8  C   UNL     1      48.796   4.188  18.300  0.00  0.00    +0.000 C 
ATOM      9  N   UNL     1      49.731   3.188  18.323  0.00  0.00    +0.000 N 
ATOM     10  O   UNL     1      48.361   4.696  19.325  0.00  0.00    +0.000 OA
ATOM     11  H   UNL     1      50.047   2.777  17.452  0.00  0.00    +0.000 HD
ATOM     12  H   UNL     1      50.067   2.834  19.206  0.00  0.00    +0.000 HD
ENDBRANCH   4   8
BRANCH   7  13
ATOM     13  N   UNL     1      47.149   5.652  13.146  0.00  0.00    +0.000 N 
ATOM     14  H   UNL     1      47.666   6.482  12.872  0.00  0.00    +0.000 HD
BRANCH  13  15
ATOM     15  C   UNL     1      45.702   5.794  12.937  0.00  0.00    +0.000 C 
ATOM     16  C   UNL     1      45.294   7.231  12.605  0.00  0.00    +0.000 C 
BRANCH  15  17
ATOM     17  C   UNL     1      45.228   4.887  11.799  0.00  0.00    +0.000 A 
ATOM     18  C   UNL     1      45.498   5.154  10.444  0.00  0.00    +0.000 A 
ATOM     19  C   UNL     1      44.969   4.343   9.431  0.00  0.00    +0.000 A 
ATOM     20  C   UNL     1      44.159   3.259   9.757  0.00  0.00    +0.000 A 
ATOM     21  C   UNL     1      43.893   2.987  11.092  0.00  0.00    +0.000 A 
ATOM     22  F   UNL     1      43.103   1.952  11.409  0.00  0.00    +0.000 F 
ATOM     23  C   UNL     1      44.416   3.782  12.106  0.00  0.00    +0.000 A 
ENDBRANCH  15  17
ENDBRANCH  13  15
ENDBRANCH   7  13
TORSDOF 4
ENDMDL
