MODEL 1
REMARK VINA RESULT:    -8.975      0.000      0.000
REMARK INTER + INTRA:         -12.591
REMARK INTER:                 -11.599
REMARK INTRA:                  -0.993
REMARK UNBOUND:                -0.993
REMARK  Name = 
REMARK  5 active torsions:
REMARK  status: ('A' for Active; 'I' for Inactive)
REMARK    1  A    between atoms: C_2  and  C_4
REMARK    2  A    between atoms: N_8  and  C_9
REMARK    3  A    between atoms: C_9  and  C_10
REMARK    4  A    between atoms: C_14  and  C_15
REMARK    5  A    between atoms: C_18  and  C_19
REMARK                            x       y       z     vdW  Elec       q    Type
REMARK                         _______ _______ _______ _____ _____    ______ ____
ROOT
ATOM      1  C   UNL     1      44.762   5.522  11.817  0.00  0.00    +0.000 A 
ATOM      2  C   UNL     1      45.142   6.813  11.457  0.00  0.00    +0.000 A 
ATOM      3  C   UNL     1      46.135   7.438  12.192  0.00  0.00    +0.000 A 
ATOM      4  N   UNL     1      46.777   6.862  13.234  0.00  0.00    +0.000 NA
ATOM      5  C   UNL     1      46.438   5.590  13.561  0.00  0.00    +0.000 A 
ATOM      6  C   UNL     1      45.434   4.904  12.877  0.00  0.00    +0.000 A 
ENDROOT
BRANCH   5   7
ATOM      7  C   UNL     1      47.190   4.983  14.681  0.00  0.00    +0.000 A 
ATOM      8  C   UNL     1      47.977   5.772  15.540  0.00  0.00    +0.000 A 
ATOM      9  C   UNL     1      48.692   5.205  16.604  0.00  0.00    +0.000 A 
ATOM     10  C   UNL     1      48.645   3.827  16.839  0.00  0.00    +0.000 A 
ATOM     11  C   UNL     1      47.868   3.028  15.989  0.00  0.00    +0.000 A 
ATOM     12  C   UNL     1      47.158   3.599  14.929  0.00  0.00    +0.000 A 
BRANCH  10  13
ATOM     13  C   UNL     1      49.413   3.189  17.968  0.00  0.00    +0.000 C 
ATOM     14  F   UNL     1      50.110   2.079  17.600  0.00  0.00    +0.000 F 
ATOM     15  F   UNL     1      50.326   4.037  18.518  0.00  0.00    +0.000 F 
ATOM     16  F   UNL     1      48.604   2.799  18.993  0.00  0.00    +0.000 F 
ENDBRANCH  10  13
ENDBRANCH   5   7
BRANCH   1  17
ATOM     17  C   UNL     1      43.653   4.801  11.097  0.00  0.00    +0.000 C 
BRANCH  17  22
ATOM     18  C   UNL     1      46.424   2.276   7.684  0.00  0.00    +0.000 A 
ATOM     19  C   UNL     1      45.758   1.805   8.808  0.00  0.00    +0.000 A 
ATOM     20  C   UNL     1      44.910   2.665   9.506  0.00  0.00    +0.000 A 
ATOM     21  C   UNL     1      44.758   3.984   9.083  0.00  0.00    +0.000 A 
ATOM     22  N   UNL     1      43.854   4.861   9.665  0.00  0.00    +0.000 N 
ATOM     23  N   UNL     1      45.438   4.464   8.024  0.00  0.00    +0.000 NA
ATOM     24  C   UNL     1      46.258   3.611   7.350  0.00  0.00    +0.000 A 
ATOM     25  H   UNL     1      44.031   5.786   9.280  0.00  0.00    +0.000 HD
BRANCH  18  27
ATOM     26  N   UNL     1      48.351   2.003   6.234  0.00  0.00    +0.000 N 
ATOM     27  C   UNL     1      47.278   1.413   6.845  0.00  0.00    +0.000 C 
ATOM     28  O   UNL     1      47.065   0.213   6.734  0.00  0.00    +0.000 OA
ATOM     29  H   UNL     1      48.997   1.385   5.761  0.00  0.00    +0.000 HD
ATOM     30  H   UNL     1      48.697   2.915   6.504  0.00  0.00    +0.000 HD
ENDBRANCH  18  27
ENDBRANCH  17  22
ENDBRANCH   1  17
TORSDOF 5
ENDMDL
MODEL 2
REMARK VINA RESULT:    -8.776      3.894      5.052
REMARK INTER + INTRA:         -12.334
REMARK INTER:                 -11.473
REMARK INTRA:                  -0.861
REMARK UNBOUND:                -0.993
REMARK  Name = 
REMARK  5 active torsions:
REMARK  status: ('A' for Active; 'I' for Inactive)
REMARK    1  A    between atoms: C_2  and  C_4
REMARK    2  A    between atoms: N_8  and  C_9
REMARK    3  A    between atoms: C_9  and  C_10
REMARK    4  A    between atoms: C_14  and  C_15
REMARK    5  A    between atoms: C_18  and  C_19
REMARK                            x       y       z     vdW  Elec       q    Type
REMARK                         _______ _______ _______ _____ _____    ______ ____
ROOT
ATOM      1  C   UNL     1      44.887   4.986  11.965  0.00  0.00    +0.000 A 
ATOM      2  C   UNL     1      45.229   4.105  12.990  0.00  0.00    +0.000 A 
ATOM      3  C   UNL     1      46.418   4.313  13.668  0.00  0.00    +0.000 A 
ATOM      4  N   UNL     1      47.265   5.335  13.410  0.00  0.00    +0.000 NA
ATOM      5  C   UNL     1      46.915   6.218  12.441  0.00  0.00    +0.000 A 
ATOM      6  C   UNL     1      45.742   6.062  11.703  0.00  0.00    +0.000 A 
ENDROOT
BRANCH   5   7
ATOM      7  C   UNL     1      47.849   7.343  12.216  0.00  0.00    +0.000 A 
ATOM      8  C   UNL     1      47.380   8.662  12.082  0.00  0.00    +0.000 A 
ATOM      9  C   UNL     1      48.258   9.733  11.870  0.00  0.00    +0.000 A 
ATOM     10  C   UNL     1      49.638   9.515  11.781  0.00  0.00    +0.000 A 
ATOM     11  C   UNL     1      50.119   8.206  11.909  0.00  0.00    +0.000 A 
ATOM     12  C   UNL     1      49.238   7.141  12.119  0.00  0.00    +0.000 A 
BRANCH  10  13
ATOM     13  C   UNL     1      50.604  10.647  11.541  0.00  0.00    +0.000 C 
ATOM     14  F   UNL     1      50.297  11.411  10.457  0.00  0.00    +0.000 F 
ATOM     15  F   UNL     1      50.669  11.506  12.596  0.00  0.00    +0.000 F 
ATOM     16  F   UNL     1      51.879  10.209  11.341  0.00  0.00    +0.000 F 
ENDBRANCH  10  13
ENDBRANCH   5   7
BRANCH   1  17
ATOM     17  C   UNL     1      43.636   4.792  11.148  0.00  0.00    +0.000 C 
BRANCH  17  22
ATOM     18  C   UNL     1      46.421   2.345   7.690  0.00  0.00    +0.000 A 
ATOM     19  C   UNL     1      45.663   1.837   8.737  0.00  0.00    +0.000 A 
ATOM     20  C   UNL     1      44.836   2.700   9.458  0.00  0.00    +0.000 A 
ATOM     21  C   UNL     1      44.796   4.055   9.135  0.00  0.00    +0.000 A 
ATOM     22  N   UNL     1      43.921   4.946   9.738  0.00  0.00    +0.000 N 
ATOM     23  N   UNL     1      45.564   4.564   8.153  0.00  0.00    +0.000 NA
ATOM     24  C   UNL     1      46.363   3.710   7.455  0.00  0.00    +0.000 A 
ATOM     25  H   UNL     1      44.180   5.884   9.437  0.00  0.00    +0.000 HD
BRANCH  18  27
ATOM     26  N   UNL     1      48.240   2.110   6.101  0.00  0.00    +0.000 N 
ATOM     27  C   UNL     1      47.261   1.490   6.829  0.00  0.00    +0.000 C 
ATOM     28  O   UNL     1      47.121   0.274   6.799  0.00  0.00    +0.000 OA
ATOM     29  H   UNL     1      48.887   1.508   5.608  0.00  0.00    +0.000 HD
ATOM     30  H   UNL     1      48.544   3.056   6.293  0.00  0.00    +0.000 HD
ENDBRANCH  18  27
ENDBRANCH  17  22
ENDBRANCH   1  17
TORSDOF 5
ENDMDL
MODEL 3
REMARK VINA RESULT:    -7.910      5.600      8.080
REMARK INTER + INTRA:         -11.214
REMARK INTER:                 -10.290
REMARK INTRA:                  -0.924
REMARK UNBOUND:                -0.993
REMARK  Name = 
REMARK  5 active torsions:
REMARK  status: ('A' for Active; 'I' for Inactive)
REMARK    1  A    between atoms: C_2  and  C_4
REMARK    2  A    between atoms: N_8  and  C_9
REMARK    3  A    between atoms: C_9  and  C_10
REMARK    4  A    between atoms: C_14  and  C_15
REMARK    5  A    between atoms: C_18  and  C_19
REMARK                            x       y       z     vdW  Elec       q    Type
REMARK                         _______ _______ _______ _____ _____    ______ ____
ROOT
ATOM      1  C   UNL     1      44.580   6.495  12.335  0.00  0.00    +0.000 A 
ATOM      2  C   UNL     1      43.432   5.917  12.873  0.00  0.00    +0.000 A 
ATOM      3  C   UNL     1      42.932   4.770  12.280  0.00  0.00    +0.000 A 
ATOM      4  N   UNL     1      43.501   4.161  11.215  0.00  0.00    +0.000 NA
ATOM      5  C   UNL     1      44.642   4.699  10.715  0.00  0.00    +0.000 A 
ATOM      6  C   UNL     1      45.195   5.863  11.249  0.00  0.00    +0.000 A 
ENDROOT
BRANCH   5   7
ATOM      7  C   UNL     1      45.255   3.981   9.576  0.00  0.00    +0.000 A 
ATOM      8  C   UNL     1      45.237   2.577   9.507  0.00  0.00    +0.000 A 
ATOM      9  C   UNL     1      45.813   1.889   8.431  0.00  0.00    +0.000 A 
ATOM     10  C   UNL     1      46.433   2.588   7.389  0.00  0.00    +0.000 A 
ATOM     11  C   UNL     1      46.462   3.988   7.446  0.00  0.00    +0.000 A 
ATOM     12  C   UNL     1      45.886   4.668   8.523  0.00  0.00    +0.000 A 
BRANCH  10  13
ATOM     13  C   UNL     1      47.072   1.874   6.226  0.00  0.00    +0.000 C 
ATOM     14  F   UNL     1      46.626   2.295   5.010  0.00  0.00    +0.000 F 
ATOM     15  F   UNL     1      48.425   2.031   6.201  0.00  0.00    +0.000 F 
ATOM     16  F   UNL     1      46.855   0.529   6.258  0.00  0.00    +0.000 F 
ENDBRANCH  10  13
ENDBRANCH   5   7
BRANCH   1  17
ATOM     17  C   UNL     1      45.151   7.772  12.895  0.00  0.00    +0.000 C 
BRANCH  17  22
ATOM     18  C   UNL     1      50.060   8.430  11.808  0.00  0.00    +0.000 A 
ATOM     19  C   UNL     1      48.971   9.244  11.519  0.00  0.00    +0.000 A 
ATOM     20  C   UNL     1      47.728   8.938  12.074  0.00  0.00    +0.000 A 
ATOM     21  C   UNL     1      47.589   7.818  12.891  0.00  0.00    +0.000 A 
ATOM     22  N   UNL     1      46.412   7.516  13.559  0.00  0.00    +0.000 N 
ATOM     23  N   UNL     1      48.627   6.996  13.137  0.00  0.00    +0.000 NA
ATOM     24  C   UNL     1      49.835   7.310  12.592  0.00  0.00    +0.000 A 
ATOM     25  H   UNL     1      46.518   6.590  13.968  0.00  0.00    +0.000 HD
BRANCH  18  27
ATOM     26  N   UNL     1      52.389   7.790  11.579  0.00  0.00    +0.000 N 
ATOM     27  C   UNL     1      51.423   8.725  11.325  0.00  0.00    +0.000 C 
ATOM     28  O   UNL     1      51.672   9.738  10.686  0.00  0.00    +0.000 OA
ATOM     29  H   UNL     1      53.289   7.941  11.144  0.00  0.00    +0.000 HD
ATOM     30  H   UNL     1      52.169   6.846  11.871  0.00  0.00    +0.000 HD
ENDBRANCH  18  27
ENDBRANCH  17  22
ENDBRANCH   1  17
TORSDOF 5
ENDMDL
MODEL 4
REMARK VINA RESULT:    -7.462      5.367      8.915
REMARK INTER + INTRA:         -10.636
REMARK INTER:                  -9.927
REMARK INTRA:                  -0.709
REMARK UNBOUND:                -0.993
REMARK  Name = 
REMARK  5 active torsions:
REMARK  status: ('A' for Active; 'I' for Inactive)
REMARK    1  A    between atoms: C_2  and  C_4
REMARK    2  A    between atoms: N_8  and  C_9
REMARK    3  A    between atoms: C_9  and  C_10
REMARK    4  A    between atoms: C_14  and  C_15
REMARK    5  A    between atoms: C_18  and  C_19
REMARK                            x       y       z     vdW  Elec       q    Type
REMARK                         _______ _______ _______ _____ _____    ______ ____
ROOT
ATOM      1  C   UNL     1      44.582   4.593  13.062  0.00  0.00    +0.000 A 
ATOM      2  C   UNL     1      43.312   5.145  12.902  0.00  0.00    +0.000 A 
ATOM      3  C   UNL     1      42.785   5.226  11.624  0.00  0.00    +0.000 A 
ATOM      4  N   UNL     1      43.421   4.783  10.516  0.00  0.00    +0.000 NA
ATOM      5  C   UNL     1      44.640   4.207  10.674  0.00  0.00    +0.000 A 
ATOM      6  C   UNL     1      45.242   4.107  11.928  0.00  0.00    +0.000 A 
ENDROOT
BRANCH   5   7
ATOM      7  C   UNL     1      45.284   3.700   9.443  0.00  0.00    +0.000 A 
ATOM      8  C   UNL     1      45.796   4.582   8.474  0.00  0.00    +0.000 A 
ATOM      9  C   UNL     1      46.409   4.110   7.306  0.00  0.00    +0.000 A 
ATOM     10  C   UNL     1      46.525   2.736   7.068  0.00  0.00    +0.000 A 
ATOM     11  C   UNL     1      46.016   1.846   8.022  0.00  0.00    +0.000 A 
ATOM     12  C   UNL     1      45.404   2.322   9.185  0.00  0.00    +0.000 A 
BRANCH  10  13
ATOM     13  C   UNL     1      47.169   2.201   5.814  0.00  0.00    +0.000 C 
ATOM     14  F   UNL     1      46.848   2.900   4.691  0.00  0.00    +0.000 F 
ATOM     15  F   UNL     1      48.529   2.211   5.884  0.00  0.00    +0.000 F 
ATOM     16  F   UNL     1      46.820   0.908   5.561  0.00  0.00    +0.000 F 
ENDBRANCH  10  13
ENDBRANCH   5   7
BRANCH   1  17
ATOM     17  C   UNL     1      45.241   4.520  14.415  0.00  0.00    +0.000 C 
BRANCH  17  22
ATOM     18  C   UNL     1      49.291   4.467  17.463  0.00  0.00    +0.000 A 
ATOM     19  C   UNL     1      48.307   3.503  17.280  0.00  0.00    +0.000 A 
ATOM     20  C   UNL     1      47.379   3.668  16.251  0.00  0.00    +0.000 A 
ATOM     21  C   UNL     1      47.435   4.798  15.439  0.00  0.00    +0.000 A 
ATOM     22  N   UNL     1      46.614   4.973  14.336  0.00  0.00    +0.000 N 
ATOM     23  N   UNL     1      48.355   5.760  15.641  0.00  0.00    +0.000 NA
ATOM     24  C   UNL     1      49.258   5.584  16.645  0.00  0.00    +0.000 A 
ATOM     25  H   UNL     1      46.749   5.924  13.998  0.00  0.00    +0.000 HD
BRANCH  18  27
ATOM     26  N   UNL     1      51.190   3.253  18.363  0.00  0.00    +0.000 N 
ATOM     27  C   UNL     1      50.356   4.332  18.476  0.00  0.00    +0.000 C 
ATOM     28  O   UNL     1      50.518   5.170  19.353  0.00  0.00    +0.000 OA
ATOM     29  H   UNL     1      51.987   3.231  18.985  0.00  0.00    +0.000 HD
ATOM     30  H   UNL     1      51.245   2.694  17.521  0.00  0.00    +0.000 HD
ENDBRANCH  18  27
ENDBRANCH  17  22
ENDBRANCH   1  17
TORSDOF 5
ENDMDL
MODEL 5
REMARK VINA RESULT:    -7.445      5.178      8.525
REMARK INTER + INTRA:         -10.613
REMARK INTER:                  -9.651
REMARK INTRA:                  -0.962
REMARK UNBOUND:                -0.993
REMARK  Name = 
REMARK  5 active torsions:
REMARK  status: ('A' for Active; 'I' for Inactive)
REMARK    1  A    between atoms: C_2  and  C_4
REMARK    2  A    between atoms: N_8  and  C_9
REMARK    3  A    between atoms: C_9  and  C_10
REMARK    4  A    between atoms: C_14  and  C_15
REMARK    5  A    between atoms: C_18  and  C_19
REMARK                            x       y       z     vdW  Elec       q    Type
REMARK                         _______ _______ _______ _____ _____    ______ ____
ROOT
ATOM      1  C   UNL     1      49.356   7.203  15.472  0.00  0.00    +0.000 A 
ATOM      2  C   UNL     1      50.294   7.883  14.696  0.00  0.00    +0.000 A 
ATOM      3  C   UNL     1      50.151   7.860  13.319  0.00  0.00    +0.000 A 
ATOM      4  N   UNL     1      49.142   7.231  12.675  0.00  0.00    +0.000 NA
ATOM      5  C   UNL     1      48.205   6.603  13.429  0.00  0.00    +0.000 A 
ATOM      6  C   UNL     1      48.292   6.568  14.821  0.00  0.00    +0.000 A 
ENDROOT
BRANCH   5   7
ATOM      7  C   UNL     1      47.097   5.962  12.689  0.00  0.00    +0.000 A 
ATOM      8  C   UNL     1      46.638   6.487  11.467  0.00  0.00    +0.000 A 
ATOM      9  C   UNL     1      45.591   5.884  10.758  0.00  0.00    +0.000 A 
ATOM     10  C   UNL     1      44.964   4.736  11.255  0.00  0.00    +0.000 A 
ATOM     11  C   UNL     1      45.407   4.204  12.472  0.00  0.00    +0.000 A 
ATOM     12  C   UNL     1      46.452   4.810  13.176  0.00  0.00    +0.000 A 
BRANCH  10  13
ATOM     13  C   UNL     1      43.826   4.074  10.520  0.00  0.00    +0.000 C 
ATOM     14  F   UNL     1      43.709   4.466   9.221  0.00  0.00    +0.000 F 
ATOM     15  F   UNL     1      43.946   2.718  10.491  0.00  0.00    +0.000 F 
ATOM     16  F   UNL     1      42.617   4.328  11.096  0.00  0.00    +0.000 F 
ENDBRANCH  10  13
ENDBRANCH   5   7
BRANCH   1  17
ATOM     17  C   UNL     1      49.476   7.139  16.972  0.00  0.00    +0.000 C 
BRANCH  17  22
ATOM     18  C   UNL     1      51.532   2.547  17.594  0.00  0.00    +0.000 A 
ATOM     19  C   UNL     1      52.094   3.803  17.786  0.00  0.00    +0.000 A 
ATOM     20  C   UNL     1      51.276   4.931  17.718  0.00  0.00    +0.000 A 
ATOM     21  C   UNL     1      49.918   4.788  17.441  0.00  0.00    +0.000 A 
ATOM     22  N   UNL     1      49.030   5.853  17.463  0.00  0.00    +0.000 N 
ATOM     23  N   UNL     1      49.374   3.579  17.205  0.00  0.00    +0.000 NA
ATOM     24  C   UNL     1      50.184   2.487  17.280  0.00  0.00    +0.000 A 
ATOM     25  H   UNL     1      48.141   5.521  17.095  0.00  0.00    +0.000 HD
BRANCH  18  27
ATOM     26  N   UNL     1      51.628   0.179  18.116  0.00  0.00    +0.000 N 
ATOM     27  C   UNL     1      52.310   1.300  17.725  0.00  0.00    +0.000 C 
ATOM     28  O   UNL     1      53.502   1.255  17.453  0.00  0.00    +0.000 OA
ATOM     29  H   UNL     1      52.139  -0.693  18.087  0.00  0.00    +0.000 HD
ATOM     30  H   UNL     1      50.618   0.124  18.099  0.00  0.00    +0.000 HD
ENDBRANCH  18  27
ENDBRANCH  17  22
ENDBRANCH   1  17
TORSDOF 5
ENDMDL
MODEL 6
REMARK VINA RESULT:    -7.409      2.287      2.887
REMARK INTER + INTRA:         -10.568
REMARK INTER:                  -9.733
REMARK INTRA:                  -0.835
REMARK UNBOUND:                -0.993
REMARK  Name = 
REMARK  5 active torsions:
REMARK  status: ('A' for Active; 'I' for Inactive)
REMARK    1  A    between atoms: C_2  and  C_4
REMARK    2  A    between atoms: N_8  and  C_9
REMARK    3  A    between atoms: C_9  and  C_10
REMARK    4  A    between atoms: C_14  and  C_15
REMARK    5  A    between atoms: C_18  and  C_19
REMARK                            x       y       z     vdW  Elec       q    Type
REMARK                         _______ _______ _______ _____ _____    ______ ____
ROOT
ATOM      1  C   UNL     1      44.703   6.551  11.505  0.00  0.00    +0.000 A 
ATOM      2  C   UNL     1      44.234   7.839  11.251  0.00  0.00    +0.000 A 
ATOM      3  C   UNL     1      44.930   8.911  11.782  0.00  0.00    +0.000 A 
ATOM      4  N   UNL     1      46.056   8.788  12.522  0.00  0.00    +0.000 NA
ATOM      5  C   UNL     1      46.538   7.538  12.736  0.00  0.00    +0.000 A 
ATOM      6  C   UNL     1      45.880   6.409  12.248  0.00  0.00    +0.000 A 
ENDROOT
BRANCH   5   7
ATOM      7  C   UNL     1      47.792   7.449  13.517  0.00  0.00    +0.000 A 
ATOM      8  C   UNL     1      48.938   8.168  13.135  0.00  0.00    +0.000 A 
ATOM      9  C   UNL     1      50.129   8.091  13.869  0.00  0.00    +0.000 A 
ATOM     10  C   UNL     1      50.211   7.284  15.010  0.00  0.00    +0.000 A 
ATOM     11  C   UNL     1      49.078   6.558  15.400  0.00  0.00    +0.000 A 
ATOM     12  C   UNL     1      47.893   6.639  14.662  0.00  0.00    +0.000 A 
BRANCH  10  13
ATOM     13  C   UNL     1      51.482   7.172  15.811  0.00  0.00    +0.000 C 
ATOM     14  F   UNL     1      51.693   5.934  16.338  0.00  0.00    +0.000 F 
ATOM     15  F   UNL     1      52.589   7.455  15.070  0.00  0.00    +0.000 F 
ATOM     16  F   UNL     1      51.511   8.035  16.865  0.00  0.00    +0.000 F 
ENDBRANCH  10  13
ENDBRANCH   5   7
BRANCH   1  17
ATOM     17  C   UNL     1      43.968   5.335  11.005  0.00  0.00    +0.000 C 
BRANCH  17  22
ATOM     18  C   UNL     1      46.325   2.024   7.974  0.00  0.00    +0.000 A 
ATOM     19  C   UNL     1      45.612   1.801   9.146  0.00  0.00    +0.000 A 
ATOM     20  C   UNL     1      44.900   2.856   9.718  0.00  0.00    +0.000 A 
ATOM     21  C   UNL     1      44.926   4.116   9.124  0.00  0.00    +0.000 A 
ATOM     22  N   UNL     1      44.160   5.177   9.578  0.00  0.00    +0.000 N 
ATOM     23  N   UNL     1      45.654   4.352   8.016  0.00  0.00    +0.000 NA
ATOM     24  C   UNL     1      46.340   3.313   7.466  0.00  0.00    +0.000 A 
ATOM     25  H   UNL     1      44.458   6.011   9.076  0.00  0.00    +0.000 HD
BRANCH  18  27
ATOM     26  N   UNL     1      46.723  -0.340   7.600  0.00  0.00    +0.000 N 
ATOM     27  C   UNL     1      47.041   0.947   7.262  0.00  0.00    +0.000 C 
ATOM     28  O   UNL     1      47.850   1.191   6.377  0.00  0.00    +0.000 OA
ATOM     29  H   UNL     1      47.128  -1.070   7.029  0.00  0.00    +0.000 HD
ATOM     30  H   UNL     1      45.894  -0.575   8.131  0.00  0.00    +0.000 HD
ENDBRANCH  18  27
ENDBRANCH  17  22
ENDBRANCH   1  17
TORSDOF 5
ENDMDL
MODEL 7
REMARK VINA RESULT:    -6.981      4.594      5.348
REMARK INTER + INTRA:         -10.014
REMARK INTER:                  -9.133
REMARK INTRA:                  -0.881
REMARK UNBOUND:                -0.993
REMARK  Name = 
REMARK  5 active torsions:
REMARK  status: ('A' for Active; 'I' for Inactive)
REMARK    1  A    between atoms: C_2  and  C_4
REMARK    2  A    between atoms: N_8  and  C_9
REMARK    3  A    between atoms: C_9  and  C_10
REMARK    4  A    between atoms: C_14  and  C_15
REMARK    5  A    between atoms: C_18  and  C_19
REMARK                            x       y       z     vdW  Elec       q    Type
REMARK                         _______ _______ _______ _____ _____    ______ ____
ROOT
ATOM      1  C   UNL     1      45.330   6.706  11.653  0.00  0.00    +0.000 A 
ATOM      2  C   UNL     1      44.631   7.606  12.455  0.00  0.00    +0.000 A 
ATOM      3  C   UNL     1      45.312   8.693  12.974  0.00  0.00    +0.000 A 
ATOM      4  N   UNL     1      46.619   8.949  12.736  0.00  0.00    +0.000 NA
ATOM      5  C   UNL     1      47.292   8.097  11.922  0.00  0.00    +0.000 A 
ATOM      6  C   UNL     1      46.676   6.970  11.377  0.00  0.00    +0.000 A 
ENDROOT
BRANCH   5   7
ATOM      7  C   UNL     1      48.707   8.434  11.655  0.00  0.00    +0.000 A 
ATOM      8  C   UNL     1      49.657   7.429  11.399  0.00  0.00    +0.000 A 
ATOM      9  C   UNL     1      51.000   7.739  11.143  0.00  0.00    +0.000 A 
ATOM     10  C   UNL     1      51.435   9.069  11.142  0.00  0.00    +0.000 A 
ATOM     11  C   UNL     1      50.501  10.080  11.400  0.00  0.00    +0.000 A 
ATOM     12  C   UNL     1      49.163   9.764  11.655  0.00  0.00    +0.000 A 
BRANCH  10  13
ATOM     13  C   UNL     1      52.875   9.431  10.883  0.00  0.00    +0.000 C 
ATOM     14  F   UNL     1      53.050  10.266   9.823  0.00  0.00    +0.000 F 
ATOM     15  F   UNL     1      53.453  10.054  11.948  0.00  0.00    +0.000 F 
ATOM     16  F   UNL     1      53.649   8.337  10.629  0.00  0.00    +0.000 F 
ENDBRANCH  10  13
ENDBRANCH   5   7
BRANCH   1  17
ATOM     17  C   UNL     1      44.668   5.473  11.096  0.00  0.00    +0.000 C 
BRANCH  17  22
ATOM     18  C   UNL     1      46.628   2.358   7.609  0.00  0.00    +0.000 A 
ATOM     19  C   UNL     1      45.972   2.058   8.796  0.00  0.00    +0.000 A 
ATOM     20  C   UNL     1      45.363   3.088   9.515  0.00  0.00    +0.000 A 
ATOM     21  C   UNL     1      45.436   4.399   9.047  0.00  0.00    +0.000 A 
ATOM     22  N   UNL     1      44.766   5.451   9.652  0.00  0.00    +0.000 N 
ATOM     23  N   UNL     1      46.112   4.705   7.923  0.00  0.00    +0.000 NA
ATOM     24  C   UNL     1      46.697   3.689   7.231  0.00  0.00    +0.000 A 
ATOM     25  H   UNL     1      45.088   6.313   9.216  0.00  0.00    +0.000 HD
BRANCH  18  27
ATOM     26  N   UNL     1      48.164   1.733   5.838  0.00  0.00    +0.000 N 
ATOM     27  C   UNL     1      47.231   1.320   6.750  0.00  0.00    +0.000 C 
ATOM     28  O   UNL     1      46.946   0.137   6.877  0.00  0.00    +0.000 OA
ATOM     29  H   UNL     1      48.659   1.006   5.338  0.00  0.00    +0.000 HD
ATOM     30  H   UNL     1      48.602   2.644   5.882  0.00  0.00    +0.000 HD
ENDBRANCH  18  27
ENDBRANCH  17  22
ENDBRANCH   1  17
TORSDOF 5
ENDMDL
MODEL 8
REMARK VINA RESULT:    -6.196      2.371      3.650
REMARK INTER + INTRA:          -9.000
REMARK INTER:                  -8.142
REMARK INTRA:                  -0.858
REMARK UNBOUND:                -0.993
REMARK  Name = 
REMARK  5 active torsions:
REMARK  status: ('A' for Active; 'I' for Inactive)
REMARK    1  A    between atoms: C_2  and  C_4
REMARK    2  A    between atoms: N_8  and  C_9
REMARK    3  A    between atoms: C_9  and  C_10
REMARK    4  A    between atoms: C_14  and  C_15
REMARK    5  A    between atoms: C_18  and  C_19
REMARK                            x       y       z     vdW  Elec       q    Type
REMARK                         _______ _______ _______ _____ _____    ______ ____
ROOT
ATOM      1  C   UNL     1      46.719   8.821  12.814  0.00  0.00    +0.000 A 
ATOM      2  C   UNL     1      47.493   9.830  12.243  0.00  0.00    +0.000 A 
ATOM      3  C   UNL     1      48.799   9.983  12.677  0.00  0.00    +0.000 A 
ATOM      4  N   UNL     1      49.380   9.198  13.612  0.00  0.00    +0.000 NA
ATOM      5  C   UNL     1      48.642   8.189  14.139  0.00  0.00    +0.000 A 
ATOM      6  C   UNL     1      47.314   7.985  13.765  0.00  0.00    +0.000 A 
ENDROOT
BRANCH   5   7
ATOM      7  C   UNL     1      49.327   7.330  15.130  0.00  0.00    +0.000 A 
ATOM      8  C   UNL     1      48.613   6.387  15.891  0.00  0.00    +0.000 A 
ATOM      9  C   UNL     1      49.254   5.569  16.831  0.00  0.00    +0.000 A 
ATOM     10  C   UNL     1      50.634   5.673  17.042  0.00  0.00    +0.000 A 
ATOM     11  C   UNL     1      51.357   6.611  16.294  0.00  0.00    +0.000 A 
ATOM     12  C   UNL     1      50.711   7.426  15.359  0.00  0.00    +0.000 A 
BRANCH  10  13
ATOM     13  C   UNL     1      51.347   4.815  18.054  0.00  0.00    +0.000 C 
ATOM     14  F   UNL     1      52.132   3.850  17.501  0.00  0.00    +0.000 F 
ATOM     15  F   UNL     1      52.165   5.541  18.866  0.00  0.00    +0.000 F 
ATOM     16  F   UNL     1      50.484   4.163  18.884  0.00  0.00    +0.000 F 
ENDBRANCH  10  13
ENDBRANCH   5   7
BRANCH   1  17
ATOM     17  C   UNL     1      45.275   8.629  12.430  0.00  0.00    +0.000 C 
BRANCH  17  22
ATOM     18  C   UNL     1      44.716   4.306   9.840  0.00  0.00    +0.000 A 
ATOM     19  C   UNL     1      45.698   5.283   9.732  0.00  0.00    +0.000 A 
ATOM     20  C   UNL     1      45.742   6.308  10.678  0.00  0.00    +0.000 A 
ATOM     21  C   UNL     1      44.796   6.353  11.700  0.00  0.00    +0.000 A 
ATOM     22  N   UNL     1      44.845   7.279  12.730  0.00  0.00    +0.000 N 
ATOM     23  N   UNL     1      43.812   5.438  11.783  0.00  0.00    +0.000 NA
ATOM     24  C   UNL     1      43.783   4.440  10.856  0.00  0.00    +0.000 A 
ATOM     25  H   UNL     1      43.980   7.197  13.260  0.00  0.00    +0.000 HD
BRANCH  18  27
ATOM     26  N   UNL     1      44.530   1.910   9.504  0.00  0.00    +0.000 N 
ATOM     27  C   UNL     1      44.645   3.147   8.929  0.00  0.00    +0.000 C 
ATOM     28  O   UNL     1      44.643   3.285   7.713  0.00  0.00    +0.000 OA
ATOM     29  H   UNL     1      44.362   1.135   8.877  0.00  0.00    +0.000 HD
ATOM     30  H   UNL     1      44.276   1.783  10.475  0.00  0.00    +0.000 HD
ENDBRANCH  18  27
ENDBRANCH  17  22
ENDBRANCH   1  17
TORSDOF 5
ENDMDL
MODEL 9
REMARK VINA RESULT:    -6.059      5.430      8.794
REMARK INTER + INTRA:          -8.823
REMARK INTER:                  -8.008
REMARK INTRA:                  -0.815
REMARK UNBOUND:                -0.993
REMARK  Name = 
REMARK  5 active torsions:
REMARK  status: ('A' for Active; 'I' for Inactive)
REMARK    1  A    between atoms: C_2  and  C_4
REMARK    2  A    between atoms: N_8  and  C_9
REMARK    3  A    between atoms: C_9  and  C_10
REMARK    4  A    between atoms: C_14  and  C_15
REMARK    5  A    between atoms: C_18  and  C_19
REMARK                            x       y       z     vdW  Elec       q    Type
REMARK                         _______ _______ _______ _____ _____    ______ ____
ROOT
ATOM      1  C   UNL     1      47.841   8.250  13.170  0.00  0.00    +0.000 A 
ATOM      2  C   UNL     1      46.830   9.186  13.386  0.00  0.00    +0.000 A 
ATOM      3  C   UNL     1      45.576   8.934  12.857  0.00  0.00    +0.000 A 
ATOM      4  N   UNL     1      45.262   7.822  12.154  0.00  0.00    +0.000 NA
ATOM      5  C   UNL     1      46.233   6.890  11.978  0.00  0.00    +0.000 A 
ATOM      6  C   UNL     1      47.525   7.083  12.467  0.00  0.00    +0.000 A 
ENDROOT
BRANCH   5   7
ATOM      7  C   UNL     1      45.839   5.671  11.239  0.00  0.00    +0.000 A 
ATOM      8  C   UNL     1      45.874   5.630   9.833  0.00  0.00    +0.000 A 
ATOM      9  C   UNL     1      45.504   4.479   9.125  0.00  0.00    +0.000 A 
ATOM     10  C   UNL     1      45.080   3.331   9.805  0.00  0.00    +0.000 A 
ATOM     11  C   UNL     1      45.036   3.359  11.204  0.00  0.00    +0.000 A 
ATOM     12  C   UNL     1      45.405   4.511  11.905  0.00  0.00    +0.000 A 
BRANCH  10  13
ATOM     13  C   UNL     1      44.664   2.084   9.068  0.00  0.00    +0.000 C 
ATOM     14  F   UNL     1      44.000   2.328   7.905  0.00  0.00    +0.000 F 
ATOM     15  F   UNL     1      45.726   1.299   8.734  0.00  0.00    +0.000 F 
ATOM     16  F   UNL     1      43.838   1.293   9.810  0.00  0.00    +0.000 F 
ENDBRANCH  10  13
ENDBRANCH   5   7
BRANCH   1  17
ATOM     17  C   UNL     1      49.243   8.481  13.670  0.00  0.00    +0.000 C 
BRANCH  17  22
ATOM     18  C   UNL     1      49.811   6.125  18.123  0.00  0.00    +0.000 A 
ATOM     19  C   UNL     1      48.740   6.871  17.645  0.00  0.00    +0.000 A 
ATOM     20  C   UNL     1      48.739   7.280  16.311  0.00  0.00    +0.000 A 
ATOM     21  C   UNL     1      49.814   6.957  15.485  0.00  0.00    +0.000 A 
ATOM     22  N   UNL     1      49.830   7.240  14.128  0.00  0.00    +0.000 N 
ATOM     23  N   UNL     1      50.878   6.278  15.953  0.00  0.00    +0.000 NA
ATOM     24  C   UNL     1      50.863   5.880  17.255  0.00  0.00    +0.000 A 
ATOM     25  H   UNL     1      50.765   7.037  13.781  0.00  0.00    +0.000 HD
BRANCH  18  27
ATOM     26  N   UNL     1      49.533   4.268  19.659  0.00  0.00    +0.000 N 
ATOM     27  C   UNL     1      49.854   5.588  19.497  0.00  0.00    +0.000 C 
ATOM     28  O   UNL     1      50.206   6.277  20.445  0.00  0.00    +0.000 OA
ATOM     29  H   UNL     1      49.680   3.877  20.581  0.00  0.00    +0.000 HD
ATOM     30  H   UNL     1      49.489   3.619  18.884  0.00  0.00    +0.000 HD
ENDBRANCH  18  27
ENDBRANCH  17  22
ENDBRANCH   1  17
TORSDOF 5
ENDMDL
