MODEL 1
REMARK VINA RESULT:    -7.612      0.000      0.000
REMARK INTER + INTRA:          -9.824
REMARK INTER:                  -9.392
REMARK INTRA:                  -0.433
REMARK UNBOUND:                -0.433
REMARK  Name = 
REMARK  6 active torsions:
REMARK  status: ('A' for Active; 'I' for Inactive)
REMARK    1  A    between atoms: C_1  and  C_2
REMARK    2  A    between atoms: C_2  and  C_3
REMARK    3  A    between atoms: C_2  and  N_4
REMARK    4  A    between atoms: C_2  and  C_14
REMARK    5  A    between atoms: N_4  and  C_5
REMARK    6  A    between atoms: C_9  and  C_10
REMARK                            x       y       z     vdW  Elec       q    Type
REMARK                         _______ _______ _______ _____ _____    ______ ____
ROOT
ATOM      1  N   UNL     1      44.226   4.805   9.485  0.00  0.00    +0.000 N 
ATOM      2  H   UNL     1      44.537   5.642   8.995  0.00  0.00    +0.000 HD
ENDROOT
BRANCH   1   3
ATOM      3  C   UNL     1      44.891   3.680   8.996  0.00  0.00    +0.000 A 
ATOM      4  C   UNL     1      44.638   2.370   9.412  0.00  0.00    +0.000 A 
ATOM      5  C   UNL     1      45.289   1.266   8.852  0.00  0.00    +0.000 A 
ATOM      6  C   UNL     1      46.194   1.446   7.821  0.00  0.00    +0.000 A 
ATOM      7  C   UNL     1      46.428   2.727   7.325  0.00  0.00    +0.000 A 
ATOM      8  C   UNL     1      45.784   3.833   7.913  0.00  0.00    +0.000 A 
BRANCH   7   9
ATOM      9  C   UNL     1      47.357   2.843   6.170  0.00  0.00    +0.000 C 
ATOM     10  N   UNL     1      48.683   2.602   6.395  0.00  0.00    +0.000 N 
ATOM     11  O   UNL     1      46.967   3.200   5.065  0.00  0.00    +0.000 OA
ATOM     12  H   UNL     1      49.075   2.548   7.323  0.00  0.00    +0.000 HD
ATOM     13  H   UNL     1      49.305   2.861   5.638  0.00  0.00    +0.000 HD
ENDBRANCH   7   9
ENDBRANCH   1   3
BRANCH   1  15
ATOM     14  C   UNL     1      43.242   6.496  11.111  0.00  0.00    +0.000 C 
ATOM     15  C   UNL     1      43.942   5.140  10.909  0.00  0.00    +0.000 C 
ATOM     16  C   UNL     1      43.084   4.006  11.506  0.00  0.00    +0.000 C 
BRANCH  15  17
ATOM     17  C   UNL     1      45.293   5.302  11.636  0.00  0.00    +0.000 A 
ATOM     18  C   UNL     1      45.653   4.543  12.761  0.00  0.00    +0.000 A 
ATOM     19  C   UNL     1      46.810   4.848  13.477  0.00  0.00    +0.000 A 
ATOM     20  C   UNL     1      47.593   5.903  13.045  0.00  0.00    +0.000 A 
ATOM     21  N   UNL     1      47.302   6.651  11.964  0.00  0.00    +0.000 NA
ATOM     22  C   UNL     1      46.161   6.344  11.299  0.00  0.00    +0.000 A 
ENDBRANCH  15  17
ENDBRANCH   1  15
TORSDOF 4
ENDMDL
MODEL 2
REMARK VINA RESULT:    -7.356      1.531      2.137
REMARK INTER + INTRA:          -9.509
REMARK INTER:                  -9.369
REMARK INTRA:                  -0.140
REMARK UNBOUND:                -0.433
REMARK  Name = 
REMARK  6 active torsions:
REMARK  status: ('A' for Active; 'I' for Inactive)
REMARK    1  A    between atoms: C_1  and  C_2
REMARK    2  A    between atoms: C_2  and  C_3
REMARK    3  A    between atoms: C_2  and  N_4
REMARK    4  A    between atoms: C_2  and  C_14
REMARK    5  A    between atoms: N_4  and  C_5
REMARK    6  A    between atoms: C_9  and  C_10
REMARK                            x       y       z     vdW  Elec       q    Type
REMARK                         _______ _______ _______ _____ _____    ______ ____
ROOT
ATOM      1  N   UNL     1      44.427   3.065  10.926  0.00  0.00    +0.000 N 
ATOM      2  H   UNL     1      43.689   2.365  10.870  0.00  0.00    +0.000 HD
ENDROOT
BRANCH   1   3
ATOM      3  C   UNL     1      45.066   3.196   9.693  0.00  0.00    +0.000 A 
ATOM      4  C   UNL     1      45.288   4.415   9.045  0.00  0.00    +0.000 A 
ATOM      5  C   UNL     1      45.985   4.505   7.836  0.00  0.00    +0.000 A 
ATOM      6  C   UNL     1      46.519   3.367   7.258  0.00  0.00    +0.000 A 
ATOM      7  C   UNL     1      46.383   2.139   7.901  0.00  0.00    +0.000 A 
ATOM      8  C   UNL     1      45.659   2.057   9.107  0.00  0.00    +0.000 A 
BRANCH   7   9
ATOM      9  C   UNL     1      47.041   0.967   7.264  0.00  0.00    +0.000 C 
ATOM     10  N   UNL     1      46.719  -0.275   7.735  0.00  0.00    +0.000 N 
ATOM     11  O   UNL     1      47.887   1.102   6.390  0.00  0.00    +0.000 OA
ATOM     12  H   UNL     1      46.223  -0.414   8.602  0.00  0.00    +0.000 HD
ATOM     13  H   UNL     1      47.310  -1.029   7.406  0.00  0.00    +0.000 HD
ENDBRANCH   7   9
ENDBRANCH   1   3
BRANCH   1  15
ATOM     14  C   UNL     1      43.176   5.268  11.171  0.00  0.00    +0.000 C 
ATOM     15  C   UNL     1      44.004   4.158  11.846  0.00  0.00    +0.000 C 
ATOM     16  C   UNL     1      43.201   3.527  13.002  0.00  0.00    +0.000 C 
BRANCH  15  17
ATOM     17  C   UNL     1      45.274   4.882  12.338  0.00  0.00    +0.000 A 
ATOM     18  C   UNL     1      45.669   6.143  11.863  0.00  0.00    +0.000 A 
ATOM     19  C   UNL     1      46.910   6.673  12.215  0.00  0.00    +0.000 A 
ATOM     20  C   UNL     1      47.730   5.933  13.046  0.00  0.00    +0.000 A 
ATOM     21  N   UNL     1      47.392   4.727  13.543  0.00  0.00    +0.000 NA
ATOM     22  C   UNL     1      46.188   4.228  13.169  0.00  0.00    +0.000 A 
ENDBRANCH  15  17
ENDBRANCH   1  15
TORSDOF 4
ENDMDL
MODEL 3
REMARK VINA RESULT:    -7.042      1.597      1.992
REMARK INTER + INTRA:          -9.121
REMARK INTER:                  -8.810
REMARK INTRA:                  -0.311
REMARK UNBOUND:                -0.433
REMARK  Name = 
REMARK  6 active torsions:
REMARK  status: ('A' for Active; 'I' for Inactive)
REMARK    1  A    between atoms: C_1  and  C_2
REMARK    2  A    between atoms: C_2  and  C_3
REMARK    3  A    between atoms: C_2  and  N_4
REMARK    4  A    between atoms: C_2  and  C_14
REMARK    5  A    between atoms: N_4  and  C_5
REMARK    6  A    between atoms: C_9  and  C_10
REMARK                            x       y       z     vdW  Elec       q    Type
REMARK                         _______ _______ _______ _____ _____    ______ ____
ROOT
ATOM      1  N   UNL     1      44.748   5.172   9.786  0.00  0.00    +0.000 N 
ATOM      2  H   UNL     1      45.252   5.911   9.299  0.00  0.00    +0.000 HD
ENDROOT
BRANCH   1   3
ATOM      3  C   UNL     1      45.105   3.923   9.275  0.00  0.00    +0.000 A 
ATOM      4  C   UNL     1      44.454   2.727   9.589  0.00  0.00    +0.000 A 
ATOM      5  C   UNL     1      44.808   1.505   9.008  0.00  0.00    +0.000 A 
ATOM      6  C   UNL     1      45.811   1.456   8.057  0.00  0.00    +0.000 A 
ATOM      7  C   UNL     1      46.443   2.633   7.660  0.00  0.00    +0.000 A 
ATOM      8  C   UNL     1      46.093   3.855   8.269  0.00  0.00    +0.000 A 
BRANCH   7   9
ATOM      9  C   UNL     1      47.462   2.522   6.583  0.00  0.00    +0.000 C 
ATOM     10  N   UNL     1      47.326   3.338   5.495  0.00  0.00    +0.000 N 
ATOM     11  O   UNL     1      48.359   1.690   6.629  0.00  0.00    +0.000 OA
ATOM     12  H   UNL     1      46.480   3.854   5.306  0.00  0.00    +0.000 HD
ATOM     13  H   UNL     1      47.924   3.114   4.709  0.00  0.00    +0.000 HD
ENDBRANCH   7   9
ENDBRANCH   1   3
BRANCH   1  15
ATOM     14  C   UNL     1      43.116   5.794  11.636  0.00  0.00    +0.000 C 
ATOM     15  C   UNL     1      44.578   5.548  11.218  0.00  0.00    +0.000 C 
ATOM     16  C   UNL     1      45.196   4.431  12.083  0.00  0.00    +0.000 C 
BRANCH  15  17
ATOM     17  C   UNL     1      45.266   6.911  11.435  0.00  0.00    +0.000 A 
ATOM     18  C   UNL     1      46.592   7.038  11.878  0.00  0.00    +0.000 A 
ATOM     19  C   UNL     1      47.106   8.289  12.218  0.00  0.00    +0.000 A 
ATOM     20  C   UNL     1      46.284   9.394  12.097  0.00  0.00    +0.000 A 
ATOM     21  N   UNL     1      45.011   9.330  11.661  0.00  0.00    +0.000 NA
ATOM     22  C   UNL     1      44.532   8.098  11.356  0.00  0.00    +0.000 A 
ENDBRANCH  15  17
ENDBRANCH   1  15
TORSDOF 4
ENDMDL
MODEL 4
REMARK VINA RESULT:    -6.736      2.888      5.984
REMARK INTER + INTRA:          -8.744
REMARK INTER:                  -8.277
REMARK INTRA:                  -0.467
REMARK UNBOUND:                -0.433
REMARK  Name = 
REMARK  6 active torsions:
REMARK  status: ('A' for Active; 'I' for Inactive)
REMARK    1  A    between atoms: C_1  and  C_2
REMARK    2  A    between atoms: C_2  and  C_3
REMARK    3  A    between atoms: C_2  and  N_4
REMARK    4  A    between atoms: C_2  and  C_14
REMARK    5  A    between atoms: N_4  and  C_5
REMARK    6  A    between atoms: C_9  and  C_10
REMARK                            x       y       z     vdW  Elec       q    Type
REMARK                         _______ _______ _______ _____ _____    ______ ____
ROOT
ATOM      1  N   UNL     1      44.986   6.210  10.633  0.00  0.00    +0.000 N 
ATOM      2  H   UNL     1      44.230   6.729  10.190  0.00  0.00    +0.000 HD
ENDROOT
BRANCH   1   3
ATOM      3  C   UNL     1      45.691   7.036  11.510  0.00  0.00    +0.000 A 
ATOM      4  C   UNL     1      45.130   8.112  12.204  0.00  0.00    +0.000 A 
ATOM      5  C   UNL     1      45.860   8.878  13.118  0.00  0.00    +0.000 A 
ATOM      6  C   UNL     1      47.178   8.556  13.394  0.00  0.00    +0.000 A 
ATOM      7  C   UNL     1      47.760   7.450  12.779  0.00  0.00    +0.000 A 
ATOM      8  C   UNL     1      47.022   6.700  11.842  0.00  0.00    +0.000 A 
BRANCH   7   9
ATOM      9  C   UNL     1      49.155   7.117  13.172  0.00  0.00    +0.000 C 
ATOM     10  N   UNL     1      50.140   7.314  12.246  0.00  0.00    +0.000 N 
ATOM     11  O   UNL     1      49.416   6.626  14.263  0.00  0.00    +0.000 OA
ATOM     12  H   UNL     1      49.942   7.481  11.271  0.00  0.00    +0.000 HD
ATOM     13  H   UNL     1      51.041   6.914  12.479  0.00  0.00    +0.000 HD
ENDBRANCH   7   9
ENDBRANCH   1   3
BRANCH   1  15
ATOM     14  C   UNL     1      45.219   4.131  12.081  0.00  0.00    +0.000 C 
ATOM     15  C   UNL     1      44.554   4.803  10.865  0.00  0.00    +0.000 C 
ATOM     16  C   UNL     1      43.021   4.794  11.027  0.00  0.00    +0.000 C 
BRANCH  15  17
ATOM     17  C   UNL     1      45.025   3.959   9.664  0.00  0.00    +0.000 A 
ATOM     18  C   UNL     1      45.037   2.555   9.671  0.00  0.00    +0.000 A 
ATOM     19  C   UNL     1      45.630   1.848   8.626  0.00  0.00    +0.000 A 
ATOM     20  C   UNL     1      46.192   2.562   7.584  0.00  0.00    +0.000 A 
ATOM     21  N   UNL     1      46.193   3.907   7.519  0.00  0.00    +0.000 NA
ATOM     22  C   UNL     1      45.627   4.568   8.559  0.00  0.00    +0.000 A 
ENDBRANCH  15  17
ENDBRANCH   1  15
TORSDOF 4
ENDMDL
MODEL 5
REMARK VINA RESULT:    -6.696      1.773      2.566
REMARK INTER + INTRA:          -8.694
REMARK INTER:                  -8.284
REMARK INTRA:                  -0.410
REMARK UNBOUND:                -0.433
REMARK  Name = 
REMARK  6 active torsions:
REMARK  status: ('A' for Active; 'I' for Inactive)
REMARK    1  A    between atoms: C_1  and  C_2
REMARK    2  A    between atoms: C_2  and  C_3
REMARK    3  A    between atoms: C_2  and  N_4
REMARK    4  A    between atoms: C_2  and  C_14
REMARK    5  A    between atoms: N_4  and  C_5
REMARK    6  A    between atoms: C_9  and  C_10
REMARK                            x       y       z     vdW  Elec       q    Type
REMARK                         _______ _______ _______ _____ _____    ______ ____
ROOT
ATOM      1  N   UNL     1      44.102   3.082  10.849  0.00  0.00    +0.000 N 
ATOM      2  H   UNL     1      43.092   3.129  10.721  0.00  0.00    +0.000 HD
ENDROOT
BRANCH   1   3
ATOM      3  C   UNL     1      44.751   3.166   9.617  0.00  0.00    +0.000 A 
ATOM      4  C   UNL     1      44.808   4.321   8.832  0.00  0.00    +0.000 A 
ATOM      5  C   UNL     1      45.520   4.376   7.629  0.00  0.00    +0.000 A 
ATOM      6  C   UNL     1      46.235   3.273   7.197  0.00  0.00    +0.000 A 
ATOM      7  C   UNL     1      46.264   2.121   7.979  0.00  0.00    +0.000 A 
ATOM      8  C   UNL     1      45.524   2.069   9.177  0.00  0.00    +0.000 A 
BRANCH   7   9
ATOM      9  C   UNL     1      47.108   0.997   7.493  0.00  0.00    +0.000 C 
ATOM     10  N   UNL     1      48.211   1.308   6.748  0.00  0.00    +0.000 N 
ATOM     11  O   UNL     1      46.803  -0.171   7.695  0.00  0.00    +0.000 OA
ATOM     12  H   UNL     1      48.360   2.226   6.357  0.00  0.00    +0.000 HD
ATOM     13  H   UNL     1      48.658   0.525   6.288  0.00  0.00    +0.000 HD
ENDBRANCH   7   9
ENDBRANCH   1   3
BRANCH   1  15
ATOM     14  C   UNL     1      43.349   3.811  13.167  0.00  0.00    +0.000 C 
ATOM     15  C   UNL     1      44.474   3.772  12.116  0.00  0.00    +0.000 C 
ATOM     16  C   UNL     1      45.717   3.067  12.697  0.00  0.00    +0.000 C 
BRANCH  15  17
ATOM     17  C   UNL     1      44.737   5.256  11.789  0.00  0.00    +0.000 A 
ATOM     18  C   UNL     1      46.006   5.849  11.885  0.00  0.00    +0.000 A 
ATOM     19  C   UNL     1      46.154   7.227  11.742  0.00  0.00    +0.000 A 
ATOM     20  C   UNL     1      45.026   7.988  11.494  0.00  0.00    +0.000 A 
ATOM     21  N   UNL     1      43.789   7.469  11.377  0.00  0.00    +0.000 NA
ATOM     22  C   UNL     1      43.673   6.128  11.539  0.00  0.00    +0.000 A 
ENDBRANCH  15  17
ENDBRANCH   1  15
TORSDOF 4
ENDMDL
MODEL 6
REMARK VINA RESULT:    -6.448      3.791      7.142
REMARK INTER + INTRA:          -8.388
REMARK INTER:                  -7.925
REMARK INTRA:                  -0.463
REMARK UNBOUND:                -0.433
REMARK  Name = 
REMARK  6 active torsions:
REMARK  status: ('A' for Active; 'I' for Inactive)
REMARK    1  A    between atoms: C_1  and  C_2
REMARK    2  A    between atoms: C_2  and  C_3
REMARK    3  A    between atoms: C_2  and  N_4
REMARK    4  A    between atoms: C_2  and  C_14
REMARK    5  A    between atoms: N_4  and  C_5
REMARK    6  A    between atoms: C_9  and  C_10
REMARK                            x       y       z     vdW  Elec       q    Type
REMARK                         _______ _______ _______ _____ _____    ______ ____
ROOT
ATOM      1  N   UNL     1      46.731   4.966  12.666  0.00  0.00    +0.000 N 
ATOM      2  H   UNL     1      47.420   4.991  11.916  0.00  0.00    +0.000 HD
ENDROOT
BRANCH   1   3
ATOM      3  C   UNL     1      47.338   5.240  13.892  0.00  0.00    +0.000 A 
ATOM      4  C   UNL     1      48.113   6.373  14.152  0.00  0.00    +0.000 A 
ATOM      5  C   UNL     1      48.656   6.637  15.414  0.00  0.00    +0.000 A 
ATOM      6  C   UNL     1      48.400   5.781  16.470  0.00  0.00    +0.000 A 
ATOM      7  C   UNL     1      47.576   4.675  16.276  0.00  0.00    +0.000 A 
ATOM      8  C   UNL     1      47.054   4.407  14.995  0.00  0.00    +0.000 A 
BRANCH   7   9
ATOM      9  C   UNL     1      47.282   3.836  17.468  0.00  0.00    +0.000 C 
ATOM     10  N   UNL     1      47.962   4.112  18.622  0.00  0.00    +0.000 N 
ATOM     11  O   UNL     1      46.507   2.890  17.414  0.00  0.00    +0.000 OA
ATOM     12  H   UNL     1      48.773   4.711  18.643  0.00  0.00    +0.000 HD
ATOM     13  H   UNL     1      47.872   3.418  19.354  0.00  0.00    +0.000 HD
ENDBRANCH   7   9
ENDBRANCH   1   3
BRANCH   1  15
ATOM     14  C   UNL     1      44.221   5.138  13.047  0.00  0.00    +0.000 C 
ATOM     15  C   UNL     1      45.431   5.493  12.163  0.00  0.00    +0.000 C 
ATOM     16  C   UNL     1      45.556   7.024  12.025  0.00  0.00    +0.000 C 
BRANCH  15  17
ATOM     17  C   UNL     1      45.129   4.802  10.817  0.00  0.00    +0.000 A 
ATOM     18  C   UNL     1      44.471   3.565  10.721  0.00  0.00    +0.000 A 
ATOM     19  C   UNL     1      44.376   2.910   9.494  0.00  0.00    +0.000 A 
ATOM     20  C   UNL     1      44.933   3.512   8.381  0.00  0.00    +0.000 A 
ATOM     21  N   UNL     1      45.560   4.704   8.415  0.00  0.00    +0.000 NA
ATOM     22  C   UNL     1      45.654   5.309   9.624  0.00  0.00    +0.000 A 
ENDBRANCH  15  17
ENDBRANCH   1  15
TORSDOF 4
ENDMDL
MODEL 7
REMARK VINA RESULT:    -6.241      3.080      6.003
REMARK INTER + INTRA:          -8.133
REMARK INTER:                  -8.455
REMARK INTRA:                   0.322
REMARK UNBOUND:                -0.433
REMARK  Name = 
REMARK  6 active torsions:
REMARK  status: ('A' for Active; 'I' for Inactive)
REMARK    1  A    between atoms: C_1  and  C_2
REMARK    2  A    between atoms: C_2  and  C_3
REMARK    3  A    between atoms: C_2  and  N_4
REMARK    4  A    between atoms: C_2  and  C_14
REMARK    5  A    between atoms: N_4  and  C_5
REMARK    6  A    between atoms: C_9  and  C_10
REMARK                            x       y       z     vdW  Elec       q    Type
REMARK                         _______ _______ _______ _____ _____    ______ ____
ROOT
ATOM      1  N   UNL     1      45.141   4.547  12.078  0.00  0.00    +0.000 N 
ATOM      2  H   UNL     1      45.897   3.869  12.163  0.00  0.00    +0.000 HD
ENDROOT
BRANCH   1   3
ATOM      3  C   UNL     1      45.647   5.847  12.132  0.00  0.00    +0.000 A 
ATOM      4  C   UNL     1      47.004   6.161  12.246  0.00  0.00    +0.000 A 
ATOM      5  C   UNL     1      47.472   7.478  12.238  0.00  0.00    +0.000 A 
ATOM      6  C   UNL     1      46.585   8.527  12.075  0.00  0.00    +0.000 A 
ATOM      7  C   UNL     1      45.230   8.261  11.888  0.00  0.00    +0.000 A 
ATOM      8  C   UNL     1      44.767   6.930  11.921  0.00  0.00    +0.000 A 
BRANCH   7   9
ATOM      9  C   UNL     1      44.341   9.427  11.647  0.00  0.00    +0.000 C 
ATOM     10  N   UNL     1      43.267   9.247  10.820  0.00  0.00    +0.000 N 
ATOM     11  O   UNL     1      44.585  10.531  12.117  0.00  0.00    +0.000 OA
ATOM     12  H   UNL     1      43.170   8.436  10.227  0.00  0.00    +0.000 HD
ATOM     13  H   UNL     1      42.791  10.094  10.537  0.00  0.00    +0.000 HD
ENDBRANCH   7   9
ENDBRANCH   1   3
BRANCH   1  15
ATOM     14  C   UNL     1      43.448   2.705  11.617  0.00  0.00    +0.000 C 
ATOM     15  C   UNL     1      44.103   4.018  11.150  0.00  0.00    +0.000 C 
ATOM     16  C   UNL     1      43.028   5.109  10.964  0.00  0.00    +0.000 C 
BRANCH  15  17
ATOM     17  C   UNL     1      44.797   3.643   9.825  0.00  0.00    +0.000 A 
ATOM     18  C   UNL     1      45.103   2.320   9.468  0.00  0.00    +0.000 A 
ATOM     19  C   UNL     1      45.880   2.054   8.342  0.00  0.00    +0.000 A 
ATOM     20  C   UNL     1      46.329   3.120   7.585  0.00  0.00    +0.000 A 
ATOM     21  N   UNL     1      46.051   4.407   7.873  0.00  0.00    +0.000 NA
ATOM     22  C   UNL     1      45.309   4.636   8.985  0.00  0.00    +0.000 A 
ENDBRANCH  15  17
ENDBRANCH   1  15
TORSDOF 4
ENDMDL
MODEL 8
REMARK VINA RESULT:    -5.911      2.500      4.669
REMARK INTER + INTRA:          -7.726
REMARK INTER:                  -7.377
REMARK INTRA:                  -0.349
REMARK UNBOUND:                -0.433
REMARK  Name = 
REMARK  6 active torsions:
REMARK  status: ('A' for Active; 'I' for Inactive)
REMARK    1  A    between atoms: C_1  and  C_2
REMARK    2  A    between atoms: C_2  and  C_3
REMARK    3  A    between atoms: C_2  and  N_4
REMARK    4  A    between atoms: C_2  and  C_14
REMARK    5  A    between atoms: N_4  and  C_5
REMARK    6  A    between atoms: C_9  and  C_10
REMARK                            x       y       z     vdW  Elec       q    Type
REMARK                         _______ _______ _______ _____ _____    ______ ____
ROOT
ATOM      1  N   UNL     1      46.339   6.141  13.380  0.00  0.00    +0.000 N 
ATOM      2  H   UNL     1      46.042   6.112  14.354  0.00  0.00    +0.000 HD
ENDROOT
BRANCH   1   3
ATOM      3  C   UNL     1      45.333   5.642  12.551  0.00  0.00    +0.000 A 
ATOM      4  C   UNL     1      43.973   5.642  12.874  0.00  0.00    +0.000 A 
ATOM      5  C   UNL     1      42.992   5.185  11.989  0.00  0.00    +0.000 A 
ATOM      6  C   UNL     1      43.349   4.747  10.726  0.00  0.00    +0.000 A 
ATOM      7  C   UNL     1      44.685   4.792  10.333  0.00  0.00    +0.000 A 
ATOM      8  C   UNL     1      45.667   5.233  11.242  0.00  0.00    +0.000 A 
BRANCH   7   9
ATOM      9  C   UNL     1      44.993   4.375   8.940  0.00  0.00    +0.000 C 
ATOM     10  N   UNL     1      44.276   3.336   8.416  0.00  0.00    +0.000 N 
ATOM     11  O   UNL     1      45.896   4.895   8.297  0.00  0.00    +0.000 OA
ATOM     12  H   UNL     1      43.704   2.729   8.985  0.00  0.00    +0.000 HD
ATOM     13  H   UNL     1      44.627   2.964   7.542  0.00  0.00    +0.000 HD
ENDBRANCH   7   9
ENDBRANCH   1   3
BRANCH   1  15
ATOM     14  C   UNL     1      47.899   7.372  11.792  0.00  0.00    +0.000 C 
ATOM     15  C   UNL     1      47.181   7.349  13.154  0.00  0.00    +0.000 C 
ATOM     16  C   UNL     1      46.282   8.594  13.300  0.00  0.00    +0.000 C 
BRANCH  15  17
ATOM     17  C   UNL     1      48.328   7.327  14.184  0.00  0.00    +0.000 A 
ATOM     18  C   UNL     1      49.445   8.174  14.106  0.00  0.00    +0.000 A 
ATOM     19  C   UNL     1      50.529   7.994  14.965  0.00  0.00    +0.000 A 
ATOM     20  C   UNL     1      50.469   6.974  15.896  0.00  0.00    +0.000 A 
ATOM     21  N   UNL     1      49.416   6.144  16.024  0.00  0.00    +0.000 NA
ATOM     22  C   UNL     1      48.385   6.330  15.163  0.00  0.00    +0.000 A 
ENDBRANCH  15  17
ENDBRANCH   1  15
TORSDOF 4
ENDMDL
MODEL 9
REMARK VINA RESULT:    -5.731      2.880      5.049
REMARK INTER + INTRA:          -7.504
REMARK INTER:                  -6.880
REMARK INTRA:                  -0.624
REMARK UNBOUND:                -0.433
REMARK  Name = 
REMARK  6 active torsions:
REMARK  status: ('A' for Active; 'I' for Inactive)
REMARK    1  A    between atoms: C_1  and  C_2
REMARK    2  A    between atoms: C_2  and  C_3
REMARK    3  A    between atoms: C_2  and  N_4
REMARK    4  A    between atoms: C_2  and  C_14
REMARK    5  A    between atoms: N_4  and  C_5
REMARK    6  A    between atoms: C_9  and  C_10
REMARK                            x       y       z     vdW  Elec       q    Type
REMARK                         _______ _______ _______ _____ _____    ______ ____
ROOT
ATOM      1  N   UNL     1      46.362   7.405  13.201  0.00  0.00    +0.000 N 
ATOM      2  H   UNL     1      45.769   8.176  12.899  0.00  0.00    +0.000 HD
ENDROOT
BRANCH   1   3
ATOM      3  C   UNL     1      45.928   6.207  12.630  0.00  0.00    +0.000 A 
ATOM      4  C   UNL     1      45.381   5.143  13.351  0.00  0.00    +0.000 A 
ATOM      5  C   UNL     1      44.905   3.983  12.732  0.00  0.00    +0.000 A 
ATOM      6  C   UNL     1      44.930   3.875  11.353  0.00  0.00    +0.000 A 
ATOM      7  C   UNL     1      45.403   4.939  10.587  0.00  0.00    +0.000 A 
ATOM      8  C   UNL     1      45.901   6.093  11.223  0.00  0.00    +0.000 A 
BRANCH   7   9
ATOM      9  C   UNL     1      45.336   4.787   9.109  0.00  0.00    +0.000 C 
ATOM     10  N   UNL     1      44.258   4.129   8.587  0.00  0.00    +0.000 N 
ATOM     11  O   UNL     1      46.238   5.180   8.381  0.00  0.00    +0.000 OA
ATOM     12  H   UNL     1      43.627   3.584   9.155  0.00  0.00    +0.000 HD
ATOM     13  H   UNL     1      44.331   3.889   7.606  0.00  0.00    +0.000 HD
ENDBRANCH   7   9
ENDBRANCH   1   3
BRANCH   1  15
ATOM     14  C   UNL     1      48.147   8.309  14.772  0.00  0.00    +0.000 C 
ATOM     15  C   UNL     1      47.766   7.883  13.342  0.00  0.00    +0.000 C 
ATOM     16  C   UNL     1      48.705   6.761  12.854  0.00  0.00    +0.000 C 
BRANCH  15  17
ATOM     17  C   UNL     1      47.912   9.175  12.513  0.00  0.00    +0.000 A 
ATOM     18  C   UNL     1      46.829  10.015  12.205  0.00  0.00    +0.000 A 
ATOM     19  C   UNL     1      46.988  11.075  11.313  0.00  0.00    +0.000 A 
ATOM     20  C   UNL     1      48.235  11.282  10.753  0.00  0.00    +0.000 A 
ATOM     21  N   UNL     1      49.310  10.517  11.026  0.00  0.00    +0.000 NA
ATOM     22  C   UNL     1      49.121   9.483  11.882  0.00  0.00    +0.000 A 
ENDBRANCH  15  17
ENDBRANCH   1  15
TORSDOF 4
ENDMDL
