MODEL 1
REMARK VINA RESULT:    -9.169      0.000      0.000
REMARK INTER + INTRA:         -12.147
REMARK INTER:                 -11.313
REMARK INTRA:                  -0.835
REMARK UNBOUND:                -0.835
REMARK  Name = 
REMARK  4 active torsions:
REMARK  status: ('A' for Active; 'I' for Inactive)
REMARK    1  A    between atoms: C_2  and  C_4
REMARK    2  A    between atoms: N_8  and  C_9
REMARK    3  A    between atoms: C_9  and  C_10
REMARK    4  A    between atoms: C_14  and  C_15
REMARK                            x       y       z     vdW  Elec       q    Type
REMARK                         _______ _______ _______ _____ _____    ______ ____
ROOT
ATOM      1  C   UNL     1      43.437   4.877  10.967  0.00  0.00    +0.000 C 
ENDROOT
BRANCH   1   6
ATOM      2  C   UNL     1      46.403   2.261   7.702  0.00  0.00    +0.000 A 
ATOM      3  C   UNL     1      45.628   1.791   8.758  0.00  0.00    +0.000 A 
ATOM      4  C   UNL     1      44.768   2.669   9.414  0.00  0.00    +0.000 A 
ATOM      5  C   UNL     1      44.708   4.002   9.027  0.00  0.00    +0.000 A 
ATOM      6  N   UNL     1      43.837   4.916   9.577  0.00  0.00    +0.000 N 
ATOM      7  N   UNL     1      45.460   4.470   8.009  0.00  0.00    +0.000 NA
ATOM      8  C   UNL     1      46.293   3.602   7.375  0.00  0.00    +0.000 A 
ATOM      9  H   UNL     1      44.050   5.833   9.199  0.00  0.00    +0.000 HD
BRANCH   2  11
ATOM     10  N   UNL     1      48.479   1.966   6.477  0.00  0.00    +0.000 N 
ATOM     11  C   UNL     1      47.330   1.393   6.946  0.00  0.00    +0.000 C 
ATOM     12  O   UNL     1      47.093   0.204   6.779  0.00  0.00    +0.000 OA
ATOM     13  H   UNL     1      49.147   1.344   6.037  0.00  0.00    +0.000 HD
ATOM     14  H   UNL     1      48.821   2.857   6.803  0.00  0.00    +0.000 HD
ENDBRANCH   2  11
ENDBRANCH   1   6
BRANCH   1  15
ATOM     15  C   UNL     1      44.563   5.185  11.928  0.00  0.00    +0.000 A 
ATOM     16  C   UNL     1      44.985   4.235  12.866  0.00  0.00    +0.000 A 
ATOM     17  C   UNL     1      46.115   4.471  13.645  0.00  0.00    +0.000 A 
ATOM     18  C   UNL     1      46.848   5.649  13.482  0.00  0.00    +0.000 A 
ATOM     19  C   UNL     1      46.467   6.623  12.543  0.00  0.00    +0.000 A 
ATOM     20  C   UNL     1      45.296   6.382  11.798  0.00  0.00    +0.000 A 
BRANCH  19  21
ATOM     21  C   UNL     1      47.318   7.801  12.271  0.00  0.00    +0.000 A 
ATOM     22  C   UNL     1      46.854   9.116  12.389  0.00  0.00    +0.000 A 
ATOM     23  N   UNL     1      47.566  10.230  12.071  0.00  0.00    +0.000 NA
ATOM     24  C   UNL     1      48.825  10.029  11.619  0.00  0.00    +0.000 A 
ATOM     25  C   UNL     1      49.390   8.777  11.483  0.00  0.00    +0.000 A 
ATOM     26  F   UNL     1      50.641   8.636  11.026  0.00  0.00    +0.000 F 
ATOM     27  C   UNL     1      48.636   7.657  11.810  0.00  0.00    +0.000 A 
ENDBRANCH  19  21
ENDBRANCH   1  15
TORSDOF 4
ENDMDL
MODEL 2
REMARK VINA RESULT:    -8.676      2.543      3.716
REMARK INTER + INTRA:         -11.539
REMARK INTER:                 -10.756
REMARK INTRA:                  -0.783
REMARK UNBOUND:                -0.835
REMARK  Name = 
REMARK  4 active torsions:
REMARK  status: ('A' for Active; 'I' for Inactive)
REMARK    1  A    between atoms: C_2  and  C_4
REMARK    2  A    between atoms: N_8  and  C_9
REMARK    3  A    between atoms: C_9  and  C_10
REMARK    4  A    between atoms: C_14  and  C_15
REMARK                            x       y       z     vdW  Elec       q    Type
REMARK                         _______ _______ _______ _____ _____    ______ ____
ROOT
ATOM      1  C   UNL     1      43.549   5.039  10.889  0.00  0.00    +0.000 C 
ENDROOT
BRANCH   1   6
ATOM      2  C   UNL     1      46.383   2.188   7.706  0.00  0.00    +0.000 A 
ATOM      3  C   UNL     1      45.728   1.814   8.875  0.00  0.00    +0.000 A 
ATOM      4  C   UNL     1      44.874   2.724   9.497  0.00  0.00    +0.000 A 
ATOM      5  C   UNL     1      44.704   3.995   8.961  0.00  0.00    +0.000 A 
ATOM      6  N   UNL     1      43.829   4.926   9.474  0.00  0.00    +0.000 N 
ATOM      7  N   UNL     1      45.340   4.369   7.831  0.00  0.00    +0.000 NA
ATOM      8  C   UNL     1      46.168   3.471   7.233  0.00  0.00    +0.000 A 
ATOM      9  H   UNL     1      43.955   5.798   8.971  0.00  0.00    +0.000 HD
BRANCH   2  11
ATOM     10  N   UNL     1      48.357   1.847   6.331  0.00  0.00    +0.000 N 
ATOM     11  C   UNL     1      47.295   1.279   6.979  0.00  0.00    +0.000 C 
ATOM     12  O   UNL     1      47.123   0.067   6.988  0.00  0.00    +0.000 OA
ATOM     13  H   UNL     1      49.022   1.208   5.911  0.00  0.00    +0.000 HD
ATOM     14  H   UNL     1      48.666   2.790   6.507  0.00  0.00    +0.000 HD
ENDBRANCH   2  11
ENDBRANCH   1   6
BRANCH   1  15
ATOM     15  C   UNL     1      44.633   5.753  11.664  0.00  0.00    +0.000 A 
ATOM     16  C   UNL     1      44.738   7.148  11.630  0.00  0.00    +0.000 A 
ATOM     17  C   UNL     1      45.643   7.805  12.459  0.00  0.00    +0.000 A 
ATOM     18  C   UNL     1      46.440   7.078  13.346  0.00  0.00    +0.000 A 
ATOM     19  C   UNL     1      46.358   5.677  13.422  0.00  0.00    +0.000 A 
ATOM     20  C   UNL     1      45.467   5.032  12.541  0.00  0.00    +0.000 A 
BRANCH  19  21
ATOM     21  C   UNL     1      47.095   4.919  14.455  0.00  0.00    +0.000 A 
ATOM     22  C   UNL     1      47.216   3.524  14.433  0.00  0.00    +0.000 A 
ATOM     23  N   UNL     1      47.809   2.774  15.399  0.00  0.00    +0.000 NA
ATOM     24  C   UNL     1      48.329   3.449  16.450  0.00  0.00    +0.000 A 
ATOM     25  C   UNL     1      48.284   4.824  16.563  0.00  0.00    +0.000 A 
ATOM     26  F   UNL     1      48.811   5.441  17.628  0.00  0.00    +0.000 F 
ATOM     27  C   UNL     1      47.666   5.564  15.563  0.00  0.00    +0.000 A 
ENDBRANCH  19  21
ENDBRANCH   1  15
TORSDOF 4
ENDMDL
MODEL 3
REMARK VINA RESULT:    -7.825      2.750      3.270
REMARK INTER + INTRA:         -10.489
REMARK INTER:                  -9.817
REMARK INTRA:                  -0.672
REMARK UNBOUND:                -0.835
REMARK  Name = 
REMARK  4 active torsions:
REMARK  status: ('A' for Active; 'I' for Inactive)
REMARK    1  A    between atoms: C_2  and  C_4
REMARK    2  A    between atoms: N_8  and  C_9
REMARK    3  A    between atoms: C_9  and  C_10
REMARK    4  A    between atoms: C_14  and  C_15
REMARK                            x       y       z     vdW  Elec       q    Type
REMARK                         _______ _______ _______ _____ _____    ______ ____
ROOT
ATOM      1  C   UNL     1      43.584   3.962  11.131  0.00  0.00    +0.000 C 
ENDROOT
BRANCH   1   6
ATOM      2  C   UNL     1      46.651   2.573   7.263  0.00  0.00    +0.000 A 
ATOM      3  C   UNL     1      46.395   3.843   7.771  0.00  0.00    +0.000 A 
ATOM      4  C   UNL     1      45.648   3.969   8.941  0.00  0.00    +0.000 A 
ATOM      5  C   UNL     1      45.148   2.836   9.571  0.00  0.00    +0.000 A 
ATOM      6  N   UNL     1      44.460   2.871  10.764  0.00  0.00    +0.000 N 
ATOM      7  N   UNL     1      45.385   1.601   9.083  0.00  0.00    +0.000 NA
ATOM      8  C   UNL     1      46.118   1.491   7.943  0.00  0.00    +0.000 A 
ATOM      9  H   UNL     1      44.122   1.937  10.968  0.00  0.00    +0.000 HD
BRANCH   2  11
ATOM     10  N   UNL     1      47.245   3.219   4.997  0.00  0.00    +0.000 N 
ATOM     11  C   UNL     1      47.444   2.352   6.036  0.00  0.00    +0.000 C 
ATOM     12  O   UNL     1      48.269   1.449   5.967  0.00  0.00    +0.000 OA
ATOM     13  H   UNL     1      47.855   3.110   4.196  0.00  0.00    +0.000 HD
ATOM     14  H   UNL     1      46.771   4.102   5.104  0.00  0.00    +0.000 HD
ENDBRANCH   2  11
ENDBRANCH   1   6
BRANCH   1  15
ATOM     15  C   UNL     1      44.293   5.093  11.840  0.00  0.00    +0.000 A 
ATOM     16  C   UNL     1      45.380   4.838  12.685  0.00  0.00    +0.000 A 
ATOM     17  C   UNL     1      46.118   5.893  13.217  0.00  0.00    +0.000 A 
ATOM     18  C   UNL     1      45.792   7.212  12.896  0.00  0.00    +0.000 A 
ATOM     19  C   UNL     1      44.716   7.512  12.041  0.00  0.00    +0.000 A 
ATOM     20  C   UNL     1      43.958   6.430  11.551  0.00  0.00    +0.000 A 
BRANCH  19  21
ATOM     21  C   UNL     1      44.457   8.895  11.589  0.00  0.00    +0.000 A 
ATOM     22  C   UNL     1      45.155  10.001  12.089  0.00  0.00    +0.000 A 
ATOM     23  N   UNL     1      44.900  11.298  11.771  0.00  0.00    +0.000 NA
ATOM     24  C   UNL     1      43.898  11.514  10.889  0.00  0.00    +0.000 A 
ATOM     25  C   UNL     1      43.158  10.497  10.319  0.00  0.00    +0.000 A 
ATOM     26  F   UNL     1      42.173  10.769   9.455  0.00  0.00    +0.000 F 
ATOM     27  C   UNL     1      43.437   9.182  10.668  0.00  0.00    +0.000 A 
ENDBRANCH  19  21
ENDBRANCH   1  15
TORSDOF 4
ENDMDL
MODEL 4
REMARK VINA RESULT:    -7.669      2.321      2.959
REMARK INTER + INTRA:         -10.296
REMARK INTER:                  -9.870
REMARK INTRA:                  -0.426
REMARK UNBOUND:                -0.835
REMARK  Name = 
REMARK  4 active torsions:
REMARK  status: ('A' for Active; 'I' for Inactive)
REMARK    1  A    between atoms: C_2  and  C_4
REMARK    2  A    between atoms: N_8  and  C_9
REMARK    3  A    between atoms: C_9  and  C_10
REMARK    4  A    between atoms: C_14  and  C_15
REMARK                            x       y       z     vdW  Elec       q    Type
REMARK                         _______ _______ _______ _____ _____    ______ ____
ROOT
ATOM      1  C   UNL     1      43.516   3.661  11.040  0.00  0.00    +0.000 C 
ENDROOT
BRANCH   1   6
ATOM      2  C   UNL     1      46.702   2.475   7.200  0.00  0.00    +0.000 A 
ATOM      3  C   UNL     1      46.343   3.726   7.692  0.00  0.00    +0.000 A 
ATOM      4  C   UNL     1      45.583   3.806   8.857  0.00  0.00    +0.000 A 
ATOM      5  C   UNL     1      45.172   2.645   9.500  0.00  0.00    +0.000 A 
ATOM      6  N   UNL     1      44.479   2.639  10.690  0.00  0.00    +0.000 N 
ATOM      7  N   UNL     1      45.509   1.427   9.028  0.00  0.00    +0.000 NA
ATOM      8  C   UNL     1      46.253   1.362   7.892  0.00  0.00    +0.000 A 
ATOM      9  H   UNL     1      44.215   1.684  10.905  0.00  0.00    +0.000 HD
BRANCH   2  11
ATOM     10  N   UNL     1      47.295   3.178   4.952  0.00  0.00    +0.000 N 
ATOM     11  C   UNL     1      47.516   2.302   5.979  0.00  0.00    +0.000 C 
ATOM     12  O   UNL     1      48.374   1.432   5.905  0.00  0.00    +0.000 OA
ATOM     13  H   UNL     1      47.918   3.105   4.156  0.00  0.00    +0.000 HD
ATOM     14  H   UNL     1      46.789   4.042   5.067  0.00  0.00    +0.000 HD
ENDBRANCH   2  11
ENDBRANCH   1   6
BRANCH   1  15
ATOM     15  C   UNL     1      44.148   4.987  11.399  0.00  0.00    +0.000 A 
ATOM     16  C   UNL     1      43.515   6.193  11.076  0.00  0.00    +0.000 A 
ATOM     17  C   UNL     1      44.028   7.402  11.538  0.00  0.00    +0.000 A 
ATOM     18  C   UNL     1      45.168   7.419  12.345  0.00  0.00    +0.000 A 
ATOM     19  C   UNL     1      45.827   6.231  12.704  0.00  0.00    +0.000 A 
ATOM     20  C   UNL     1      45.315   5.024  12.187  0.00  0.00    +0.000 A 
BRANCH  19  21
ATOM     21  C   UNL     1      46.946   6.236  13.670  0.00  0.00    +0.000 A 
ATOM     22  C   UNL     1      47.224   5.156  14.516  0.00  0.00    +0.000 A 
ATOM     23  N   UNL     1      48.185   5.141  15.478  0.00  0.00    +0.000 NA
ATOM     24  C   UNL     1      48.930   6.264  15.601  0.00  0.00    +0.000 A 
ATOM     25  C   UNL     1      48.755   7.379  14.805  0.00  0.00    +0.000 A 
ATOM     26  F   UNL     1      49.518   8.466  14.974  0.00  0.00    +0.000 F 
ATOM     27  C   UNL     1      47.761   7.367  13.836  0.00  0.00    +0.000 A 
ENDBRANCH  19  21
ENDBRANCH   1  15
TORSDOF 4
ENDMDL
MODEL 5
REMARK VINA RESULT:    -7.305      4.716      7.914
REMARK INTER + INTRA:          -9.847
REMARK INTER:                  -9.399
REMARK INTRA:                  -0.449
REMARK UNBOUND:                -0.835
REMARK  Name = 
REMARK  4 active torsions:
REMARK  status: ('A' for Active; 'I' for Inactive)
REMARK    1  A    between atoms: C_2  and  C_4
REMARK    2  A    between atoms: N_8  and  C_9
REMARK    3  A    between atoms: C_9  and  C_10
REMARK    4  A    between atoms: C_14  and  C_15
REMARK                            x       y       z     vdW  Elec       q    Type
REMARK                         _______ _______ _______ _____ _____    ______ ____
ROOT
ATOM      1  C   UNL     1      46.070   5.486  13.661  0.00  0.00    +0.000 C 
ENDROOT
BRANCH   1   6
ATOM      2  C   UNL     1      49.402   4.114  17.309  0.00  0.00    +0.000 A 
ATOM      3  C   UNL     1      49.088   5.384  16.836  0.00  0.00    +0.000 A 
ATOM      4  C   UNL     1      48.025   5.536  15.948  0.00  0.00    +0.000 A 
ATOM      5  C   UNL     1      47.308   4.422  15.526  0.00  0.00    +0.000 A 
ATOM      6  N   UNL     1      46.204   4.494  14.706  0.00  0.00    +0.000 N 
ATOM      7  N   UNL     1      47.609   3.186  15.973  0.00  0.00    +0.000 NA
ATOM      8  C   UNL     1      48.646   3.052  16.842  0.00  0.00    +0.000 A 
ATOM      9  H   UNL     1      45.918   3.551  14.467  0.00  0.00    +0.000 HD
BRANCH   2  11
ATOM     10  N   UNL     1      50.354   4.354  19.531  0.00  0.00    +0.000 N 
ATOM     11  C   UNL     1      50.505   3.869  18.262  0.00  0.00    +0.000 C 
ATOM     12  O   UNL     1      51.496   3.228  17.934  0.00  0.00    +0.000 OA
ATOM     13  H   UNL     1      51.076   4.105  20.198  0.00  0.00    +0.000 HD
ATOM     14  H   UNL     1      49.467   4.658  19.900  0.00  0.00    +0.000 HD
ENDBRANCH   2  11
ENDBRANCH   1   6
BRANCH   1  15
ATOM     15  C   UNL     1      45.116   5.078  12.561  0.00  0.00    +0.000 A 
ATOM     16  C   UNL     1      43.826   5.618  12.496  0.00  0.00    +0.000 A 
ATOM     17  C   UNL     1      43.007   5.351  11.401  0.00  0.00    +0.000 A 
ATOM     18  C   UNL     1      43.475   4.558  10.350  0.00  0.00    +0.000 A 
ATOM     19  C   UNL     1      44.768   4.007  10.370  0.00  0.00    +0.000 A 
ATOM     20  C   UNL     1      45.560   4.255  11.508  0.00  0.00    +0.000 A 
BRANCH  19  21
ATOM     21  C   UNL     1      45.313   3.287   9.200  0.00  0.00    +0.000 A 
ATOM     22  C   UNL     1      45.498   1.900   9.179  0.00  0.00    +0.000 A 
ATOM     23  N   UNL     1      46.072   1.200   8.164  0.00  0.00    +0.000 NA
ATOM     24  C   UNL     1      46.477   1.920   7.093  0.00  0.00    +0.000 A 
ATOM     25  C   UNL     1      46.325   3.289   6.999  0.00  0.00    +0.000 A 
ATOM     26  F   UNL     1      46.749   3.952   5.916  0.00  0.00    +0.000 F 
ATOM     27  C   UNL     1      45.741   3.977   8.054  0.00  0.00    +0.000 A 
ENDBRANCH  19  21
ENDBRANCH   1  15
TORSDOF 4
ENDMDL
MODEL 6
REMARK VINA RESULT:    -6.909      3.353      6.957
REMARK INTER + INTRA:          -9.359
REMARK INTER:                  -8.546
REMARK INTRA:                  -0.812
REMARK UNBOUND:                -0.835
REMARK  Name = 
REMARK  4 active torsions:
REMARK  status: ('A' for Active; 'I' for Inactive)
REMARK    1  A    between atoms: C_2  and  C_4
REMARK    2  A    between atoms: N_8  and  C_9
REMARK    3  A    between atoms: C_9  and  C_10
REMARK    4  A    between atoms: C_14  and  C_15
REMARK                            x       y       z     vdW  Elec       q    Type
REMARK                         _______ _______ _______ _____ _____    ______ ____
ROOT
ATOM      1  C   UNL     1      45.617   4.761  13.847  0.00  0.00    +0.000 C 
ENDROOT
BRANCH   1   6
ATOM      2  C   UNL     1      48.454   8.656  12.091  0.00  0.00    +0.000 A 
ATOM      3  C   UNL     1      47.239   8.687  12.770  0.00  0.00    +0.000 A 
ATOM      4  C   UNL     1      46.726   7.505  13.300  0.00  0.00    +0.000 A 
ATOM      5  C   UNL     1      47.414   6.309  13.127  0.00  0.00    +0.000 A 
ATOM      6  N   UNL     1      47.010   5.113  13.677  0.00  0.00    +0.000 N 
ATOM      7  N   UNL     1      48.588   6.267  12.465  0.00  0.00    +0.000 NA
ATOM      8  C   UNL     1      49.080   7.428  11.955  0.00  0.00    +0.000 A 
ATOM      9  H   UNL     1      47.618   4.378  13.332  0.00  0.00    +0.000 HD
BRANCH   2  11
ATOM     10  N   UNL     1      50.437   9.941  11.532  0.00  0.00    +0.000 N 
ATOM     11  C   UNL     1      49.072   9.865  11.510  0.00  0.00    +0.000 C 
ATOM     12  O   UNL     1      48.390  10.745  10.999  0.00  0.00    +0.000 OA
ATOM     13  H   UNL     1      50.853  10.732  11.054  0.00  0.00    +0.000 HD
ATOM     14  H   UNL     1      51.028   9.144  11.710  0.00  0.00    +0.000 HD
ENDBRANCH   2  11
ENDBRANCH   1   6
BRANCH   1  15
ATOM     15  C   UNL     1      44.850   4.687  12.546  0.00  0.00    +0.000 A 
ATOM     16  C   UNL     1      43.750   5.521  12.314  0.00  0.00    +0.000 A 
ATOM     17  C   UNL     1      43.142   5.550  11.061  0.00  0.00    +0.000 A 
ATOM     18  C   UNL     1      43.639   4.762  10.020  0.00  0.00    +0.000 A 
ATOM     19  C   UNL     1      44.749   3.921  10.206  0.00  0.00    +0.000 A 
ATOM     20  C   UNL     1      45.319   3.875  11.494  0.00  0.00    +0.000 A 
BRANCH  19  21
ATOM     21  C   UNL     1      45.361   3.195   9.073  0.00  0.00    +0.000 A 
ATOM     22  C   UNL     1      45.626   1.821   9.104  0.00  0.00    +0.000 A 
ATOM     23  N   UNL     1      46.262   1.123   8.126  0.00  0.00    +0.000 NA
ATOM     24  C   UNL     1      46.648   1.829   7.038  0.00  0.00    +0.000 A 
ATOM     25  C   UNL     1      46.420   3.183   6.894  0.00  0.00    +0.000 A 
ATOM     26  F   UNL     1      46.828   3.832   5.797  0.00  0.00    +0.000 F 
ATOM     27  C   UNL     1      45.774   3.870   7.913  0.00  0.00    +0.000 A 
ENDBRANCH  19  21
ENDBRANCH   1  15
TORSDOF 4
ENDMDL
MODEL 7
REMARK VINA RESULT:    -6.680      5.451      8.077
REMARK INTER + INTRA:          -9.077
REMARK INTER:                  -8.387
REMARK INTRA:                  -0.690
REMARK UNBOUND:                -0.835
REMARK  Name = 
REMARK  4 active torsions:
REMARK  status: ('A' for Active; 'I' for Inactive)
REMARK    1  A    between atoms: C_2  and  C_4
REMARK    2  A    between atoms: N_8  and  C_9
REMARK    3  A    between atoms: C_9  and  C_10
REMARK    4  A    between atoms: C_14  and  C_15
REMARK                            x       y       z     vdW  Elec       q    Type
REMARK                         _______ _______ _______ _____ _____    ______ ____
ROOT
ATOM      1  C   UNL     1      48.733   7.530  15.672  0.00  0.00    +0.000 C 
ENDROOT
BRANCH   1   6
ATOM      2  C   UNL     1      50.945   3.281  17.502  0.00  0.00    +0.000 A 
ATOM      3  C   UNL     1      51.481   4.555  17.345  0.00  0.00    +0.000 A 
ATOM      4  C   UNL     1      50.643   5.606  16.978  0.00  0.00    +0.000 A 
ATOM      5  C   UNL     1      49.292   5.370  16.751  0.00  0.00    +0.000 A 
ATOM      6  N   UNL     1      48.386   6.363  16.453  0.00  0.00    +0.000 N 
ATOM      7  N   UNL     1      48.763   4.137  16.894  0.00  0.00    +0.000 NA
ATOM      8  C   UNL     1      49.592   3.121  17.254  0.00  0.00    +0.000 A 
ATOM      9  H   UNL     1      47.493   5.932  16.240  0.00  0.00    +0.000 HD
BRANCH   2  11
ATOM     10  N   UNL     1      51.279   0.876  17.584  0.00  0.00    +0.000 N 
ATOM     11  C   UNL     1      51.762   2.116  17.900  0.00  0.00    +0.000 C 
ATOM     12  O   UNL     1      52.843   2.259  18.458  0.00  0.00    +0.000 OA
ATOM     13  H   UNL     1      51.888   0.091  17.784  0.00  0.00    +0.000 HD
ATOM     14  H   UNL     1      50.536   0.730  16.919  0.00  0.00    +0.000 HD
ENDBRANCH   2  11
ENDBRANCH   1   6
BRANCH   1  15
ATOM     15  C   UNL     1      48.277   7.450  14.232  0.00  0.00    +0.000 A 
ATOM     16  C   UNL     1      49.026   8.044  13.210  0.00  0.00    +0.000 A 
ATOM     17  C   UNL     1      48.679   7.841  11.876  0.00  0.00    +0.000 A 
ATOM     18  C   UNL     1      47.594   7.026  11.548  0.00  0.00    +0.000 A 
ATOM     19  C   UNL     1      46.823   6.400  12.543  0.00  0.00    +0.000 A 
ATOM     20  C   UNL     1      47.166   6.656  13.886  0.00  0.00    +0.000 A 
BRANCH  19  21
ATOM     21  C   UNL     1      45.765   5.428  12.196  0.00  0.00    +0.000 A 
ATOM     22  C   UNL     1      45.249   4.506  13.115  0.00  0.00    +0.000 A 
ATOM     23  N   UNL     1      44.338   3.538  12.827  0.00  0.00    +0.000 NA
ATOM     24  C   UNL     1      43.900   3.487  11.549  0.00  0.00    +0.000 A 
ATOM     25  C   UNL     1      44.327   4.359  10.566  0.00  0.00    +0.000 A 
ATOM     26  F   UNL     1      43.863   4.259   9.315  0.00  0.00    +0.000 F 
ATOM     27  C   UNL     1      45.262   5.333  10.889  0.00  0.00    +0.000 A 
ENDBRANCH  19  21
ENDBRANCH   1  15
TORSDOF 4
ENDMDL
MODEL 8
REMARK VINA RESULT:    -6.625      5.313      8.258
REMARK INTER + INTRA:          -9.009
REMARK INTER:                  -8.560
REMARK INTRA:                  -0.449
REMARK UNBOUND:                -0.835
REMARK  Name = 
REMARK  4 active torsions:
REMARK  status: ('A' for Active; 'I' for Inactive)
REMARK    1  A    between atoms: C_2  and  C_4
REMARK    2  A    between atoms: N_8  and  C_9
REMARK    3  A    between atoms: C_9  and  C_10
REMARK    4  A    between atoms: C_14  and  C_15
REMARK                            x       y       z     vdW  Elec       q    Type
REMARK                         _______ _______ _______ _____ _____    ______ ____
ROOT
ATOM      1  C   UNL     1      48.158   6.970  14.101  0.00  0.00    +0.000 C 
ENDROOT
BRANCH   1   6
ATOM      2  C   UNL     1      50.824   4.708  17.853  0.00  0.00    +0.000 A 
ATOM      3  C   UNL     1      51.116   5.867  17.140  0.00  0.00    +0.000 A 
ATOM      4  C   UNL     1      50.161   6.390  16.271  0.00  0.00    +0.000 A 
ATOM      5  C   UNL     1      48.942   5.743  16.107  0.00  0.00    +0.000 A 
ATOM      6  N   UNL     1      47.921   6.230  15.322  0.00  0.00    +0.000 N 
ATOM      7  N   UNL     1      48.651   4.615  16.788  0.00  0.00    +0.000 NA
ATOM      8  C   UNL     1      49.591   4.116  17.635  0.00  0.00    +0.000 A 
ATOM      9  H   UNL     1      47.181   5.538  15.289  0.00  0.00    +0.000 HD
BRANCH   2  11
ATOM     10  N   UNL     1      52.250   2.850  18.496  0.00  0.00    +0.000 N 
ATOM     11  C   UNL     1      51.776   4.095  18.802  0.00  0.00    +0.000 C 
ATOM     12  O   UNL     1      52.149   4.694  19.803  0.00  0.00    +0.000 OA
ATOM     13  H   UNL     1      52.967   2.477  19.107  0.00  0.00    +0.000 HD
ATOM     14  H   UNL     1      52.165   2.441  17.578  0.00  0.00    +0.000 HD
ENDBRANCH   2  11
ENDBRANCH   1   6
BRANCH   1  15
ATOM     15  C   UNL     1      46.925   7.122  13.239  0.00  0.00    +0.000 A 
ATOM     16  C   UNL     1      46.325   8.374  13.064  0.00  0.00    +0.000 A 
ATOM     17  C   UNL     1      45.281   8.532  12.155  0.00  0.00    +0.000 A 
ATOM     18  C   UNL     1      44.840   7.446  11.396  0.00  0.00    +0.000 A 
ATOM     19  C   UNL     1      45.424   6.174  11.532  0.00  0.00    +0.000 A 
ATOM     20  C   UNL     1      46.447   6.030  12.489  0.00  0.00    +0.000 A 
BRANCH  19  21
ATOM     21  C   UNL     1      45.054   5.061  10.632  0.00  0.00    +0.000 A 
ATOM     22  C   UNL     1      44.248   3.991  11.039  0.00  0.00    +0.000 A 
ATOM     23  N   UNL     1      43.948   2.903  10.281  0.00  0.00    +0.000 NA
ATOM     24  C   UNL     1      44.470   2.878   9.033  0.00  0.00    +0.000 A 
ATOM     25  C   UNL     1      45.261   3.888   8.523  0.00  0.00    +0.000 A 
ATOM     26  F   UNL     1      45.755   3.809   7.281  0.00  0.00    +0.000 F 
ATOM     27  C   UNL     1      45.555   4.984   9.323  0.00  0.00    +0.000 A 
ENDBRANCH  19  21
ENDBRANCH   1  15
TORSDOF 4
ENDMDL
MODEL 9
REMARK VINA RESULT:    -6.288      3.037      5.297
REMARK INTER + INTRA:          -8.593
REMARK INTER:                  -7.930
REMARK INTRA:                  -0.664
REMARK UNBOUND:                -0.835
REMARK  Name = 
REMARK  4 active torsions:
REMARK  status: ('A' for Active; 'I' for Inactive)
REMARK    1  A    between atoms: C_2  and  C_4
REMARK    2  A    between atoms: N_8  and  C_9
REMARK    3  A    between atoms: C_9  and  C_10
REMARK    4  A    between atoms: C_14  and  C_15
REMARK                            x       y       z     vdW  Elec       q    Type
REMARK                         _______ _______ _______ _____ _____    ______ ____
ROOT
ATOM      1  C   UNL     1      46.809   8.500  13.276  0.00  0.00    +0.000 C 
ENDROOT
BRANCH   1   6
ATOM      2  C   UNL     1      44.877   4.089  11.514  0.00  0.00    +0.000 A 
ATOM      3  C   UNL     1      45.100   5.284  10.838  0.00  0.00    +0.000 A 
ATOM      4  C   UNL     1      45.792   6.310  11.480  0.00  0.00    +0.000 A 
ATOM      5  C   UNL     1      46.228   6.140  12.789  0.00  0.00    +0.000 A 
ATOM      6  N   UNL     1      46.975   7.076  13.469  0.00  0.00    +0.000 N 
ATOM      7  N   UNL     1      46.011   4.988  13.455  0.00  0.00    +0.000 NA
ATOM      8  C   UNL     1      45.338   3.994  12.816  0.00  0.00    +0.000 A 
ATOM      9  H   UNL     1      47.088   6.764  14.427  0.00  0.00    +0.000 HD
BRANCH   2  11
ATOM     10  N   UNL     1      44.787   2.303   9.870  0.00  0.00    +0.000 N 
ATOM     11  C   UNL     1      44.164   2.949  10.901  0.00  0.00    +0.000 C 
ATOM     12  O   UNL     1      43.075   2.579  11.324  0.00  0.00    +0.000 OA
ATOM     13  H   UNL     1      44.329   1.471   9.516  0.00  0.00    +0.000 HD
ATOM     14  H   UNL     1      45.768   2.415   9.666  0.00  0.00    +0.000 HD
ENDBRANCH   2  11
ENDBRANCH   1   6
BRANCH   1  15
ATOM     15  C   UNL     1      47.854   9.112  12.371  0.00  0.00    +0.000 A 
ATOM     16  C   UNL     1      47.714  10.423  11.898  0.00  0.00    +0.000 A 
ATOM     17  C   UNL     1      48.747  11.029  11.189  0.00  0.00    +0.000 A 
ATOM     18  C   UNL     1      49.941  10.340  10.960  0.00  0.00    +0.000 A 
ATOM     19  C   UNL     1      50.129   9.028  11.428  0.00  0.00    +0.000 A 
ATOM     20  C   UNL     1      49.052   8.421  12.104  0.00  0.00    +0.000 A 
BRANCH  19  21
ATOM     21  C   UNL     1      51.438   8.351  11.310  0.00  0.00    +0.000 A 
ATOM     22  C   UNL     1      52.529   8.660  12.131  0.00  0.00    +0.000 A 
ATOM     23  N   UNL     1      53.775   8.130  12.010  0.00  0.00    +0.000 NA
ATOM     24  C   UNL     1      53.949   7.224  11.021  0.00  0.00    +0.000 A 
ATOM     25  C   UNL     1      52.938   6.831  10.167  0.00  0.00    +0.000 A 
ATOM     26  F   UNL     1      53.168   5.934   9.201  0.00  0.00    +0.000 F 
ATOM     27  C   UNL     1      51.677   7.395  10.310  0.00  0.00    +0.000 A 
ENDBRANCH  19  21
ENDBRANCH   1  15
TORSDOF 4
ENDMDL
