MODEL 1
REMARK VINA RESULT:    -7.686      0.000      0.000
REMARK INTER + INTRA:         -12.390
REMARK INTER:                 -11.281
REMARK INTRA:                  -1.109
REMARK UNBOUND:                -1.109
REMARK  Name = 
REMARK  14 active torsions:
REMARK  status: ('A' for Active; 'I' for Inactive)
REMARK    1  A    between atoms: C_1  and  C_2
REMARK    2  A    between atoms: C_2  and  C_3
REMARK    3  A    between atoms: C_2  and  N_4
REMARK    4  A    between atoms: C_2  and  C_5
REMARK    5  A    between atoms: C_5  and  C_6
REMARK    6  A    between atoms: C_6  and  N_7
REMARK    7  A    between atoms: C_6  and  C_8
REMARK    8  A    between atoms: C_11  and  C_12
REMARK    9  A    between atoms: C_12  and  N_13
REMARK   10  A    between atoms: C_15  and  C_16
REMARK   11  A    between atoms: C_16  and  C_17
REMARK   12  A    between atoms: C_16  and  C_18
REMARK   13  A    between atoms: C_16  and  C_19
REMARK   14  A    between atoms: C_22  and  C_23
REMARK                            x       y       z     vdW  Elec       q    Type
REMARK                         _______ _______ _______ _____ _____    ______ ____
ROOT
ATOM      1  C   UNL     1      47.164   4.445  16.179  0.00  0.00    +0.000 C 
ENDROOT
BRANCH   1   2
ATOM      2  N   UNL     1      47.354   4.978  14.840  0.00  0.00    +0.000 N 
ATOM      3  C   UNL     1      48.052   6.143  14.611  0.00  0.00    +0.000 A 
ATOM      4  C   UNL     1      47.422   6.785  13.562  0.00  0.00    +0.000 A 
ATOM      5  C   UNL     1      46.601   5.795  12.939  0.00  0.00    +0.000 A 
ATOM      6  C   UNL     1      45.765   5.786  11.818  0.00  0.00    +0.000 A 
ATOM      7  C   UNL     1      45.099   4.618  11.468  0.00  0.00    +0.000 A 
ATOM      8  C   UNL     1      45.270   3.514  12.297  0.00  0.00    +0.000 A 
ATOM      9  N   UNL     1      45.994   3.480  13.463  0.00  0.00    +0.000 NA
ATOM     10  C   UNL     1      46.639   4.641  13.716  0.00  0.00    +0.000 A 
BRANCH   7  11
ATOM     11  C   UNL     1      44.286   4.693  10.230  0.00  0.00    +0.000 C 
ATOM     12  N   UNL     1      44.837   4.400   9.019  0.00  0.00    +0.000 N 
ATOM     13  O   UNL     1      43.102   5.017  10.265  0.00  0.00    +0.000 OA
ATOM     14  H   UNL     1      45.795   4.119   8.865  0.00  0.00    +0.000 HD
ATOM     15  H   UNL     1      44.226   4.471   8.225  0.00  0.00    +0.000 HD
ENDBRANCH   7  11
BRANCH   4  16
ATOM     16  C   UNL     1      47.506   8.253  13.189  0.00  0.00    +0.000 C 
ATOM     17  C   UNL     1      46.105   8.852  12.951  0.00  0.00    +0.000 C 
ATOM     18  C   UNL     1      48.198   9.077  14.289  0.00  0.00    +0.000 C 
ATOM     19  C   UNL     1      48.301   8.377  11.872  0.00  0.00    +0.000 C 
ENDBRANCH   4  16
ENDBRANCH   1   2
BRANCH   1  23
ATOM     20  C   UNL     1      50.618   2.154  17.242  0.00  0.00    +0.000 A 
ATOM     21  C   UNL     1      50.455   3.403  17.841  0.00  0.00    +0.000 A 
ATOM     22  C   UNL     1      49.325   4.165  17.529  0.00  0.00    +0.000 A 
ATOM     23  C   UNL     1      48.387   3.671  16.613  0.00  0.00    +0.000 A 
ATOM     24  C   UNL     1      48.602   2.391  16.119  0.00  0.00    +0.000 A 
ATOM     25  N   UNL     1      49.682   1.633  16.405  0.00  0.00    +0.000 NA
BRANCH  20  26
ATOM     26  C   UNL     1      51.912   1.359  17.431  0.00  0.00    +0.000 C 
BRANCH  26  27
ATOM     27  N   UNL     1      51.610   0.131  18.180  0.00  0.00    +0.000 NA
ATOM     28  H   UNL     1      50.860  -0.346  17.677  0.00  0.00    +0.000 HD
ATOM     29  H   UNL     1      51.240   0.359  19.094  0.00  0.00    +0.000 HD
ENDBRANCH  26  27
BRANCH  26  30
ATOM     30  C   UNL     1      52.984   2.252  18.107  0.00  0.00    +0.000 C 
BRANCH  30  32
ATOM     31  C   UNL     1      55.340   2.853  18.734  0.00  0.00    +0.000 C 
ATOM     32  C   UNL     1      54.429   1.702  18.262  0.00  0.00    +0.000 C 
ATOM     33  C   UNL     1      54.970   1.152  16.935  0.00  0.00    +0.000 C 
BRANCH  32  34
ATOM     34  N   UNL     1      54.518   0.657  19.293  0.00  0.00    +0.000 NA
ATOM     35  H   UNL     1      54.783   1.073  20.186  0.00  0.00    +0.000 HD
ATOM     36  H   UNL     1      55.262   0.003  19.077  0.00  0.00    +0.000 HD
ENDBRANCH  32  34
ENDBRANCH  30  32
ENDBRANCH  26  30
ENDBRANCH  20  26
ENDBRANCH   1  23
TORSDOF 9
ENDMDL
MODEL 2
REMARK VINA RESULT:    -6.459      4.024      8.739
REMARK INTER + INTRA:         -10.588
REMARK INTER:                 -10.714
REMARK INTRA:                   0.126
REMARK UNBOUND:                -1.109
REMARK  Name = 
REMARK  14 active torsions:
REMARK  status: ('A' for Active; 'I' for Inactive)
REMARK    1  A    between atoms: C_1  and  C_2
REMARK    2  A    between atoms: C_2  and  C_3
REMARK    3  A    between atoms: C_2  and  N_4
REMARK    4  A    between atoms: C_2  and  C_5
REMARK    5  A    between atoms: C_5  and  C_6
REMARK    6  A    between atoms: C_6  and  N_7
REMARK    7  A    between atoms: C_6  and  C_8
REMARK    8  A    between atoms: C_11  and  C_12
REMARK    9  A    between atoms: C_12  and  N_13
REMARK   10  A    between atoms: C_15  and  C_16
REMARK   11  A    between atoms: C_16  and  C_17
REMARK   12  A    between atoms: C_16  and  C_18
REMARK   13  A    between atoms: C_16  and  C_19
REMARK   14  A    between atoms: C_22  and  C_23
REMARK                            x       y       z     vdW  Elec       q    Type
REMARK                         _______ _______ _______ _____ _____    ______ ____
ROOT
ATOM      1  C   UNL     1      45.482   5.938  13.311  0.00  0.00    +0.000 C 
ENDROOT
BRANCH   1   2
ATOM      2  N   UNL     1      46.739   5.537  13.921  0.00  0.00    +0.000 N 
ATOM      3  C   UNL     1      46.803   4.545  14.874  0.00  0.00    +0.000 A 
ATOM      4  C   UNL     1      47.780   4.920  15.775  0.00  0.00    +0.000 A 
ATOM      5  C   UNL     1      48.541   5.936  15.119  0.00  0.00    +0.000 A 
ATOM      6  C   UNL     1      49.676   6.679  15.463  0.00  0.00    +0.000 A 
ATOM      7  C   UNL     1      50.185   7.608  14.564  0.00  0.00    +0.000 A 
ATOM      8  C   UNL     1      49.496   7.782  13.368  0.00  0.00    +0.000 A 
ATOM      9  N   UNL     1      48.325   7.162  13.009  0.00  0.00    +0.000 NA
ATOM     10  C   UNL     1      47.913   6.249  13.917  0.00  0.00    +0.000 A 
BRANCH   7  11
ATOM     11  C   UNL     1      51.425   8.299  14.995  0.00  0.00    +0.000 C 
ATOM     12  N   UNL     1      52.640   7.898  14.529  0.00  0.00    +0.000 N 
ATOM     13  O   UNL     1      51.386   9.247  15.774  0.00  0.00    +0.000 OA
ATOM     14  H   UNL     1      52.797   7.136  13.883  0.00  0.00    +0.000 HD
ATOM     15  H   UNL     1      53.435   8.413  14.863  0.00  0.00    +0.000 HD
ENDBRANCH   7  11
BRANCH   4  16
ATOM     16  C   UNL     1      47.965   4.431  17.199  0.00  0.00    +0.000 C 
ATOM     17  C   UNL     1      49.437   4.075  17.483  0.00  0.00    +0.000 C 
ATOM     18  C   UNL     1      47.522   5.491  18.223  0.00  0.00    +0.000 C 
ATOM     19  C   UNL     1      47.125   3.149  17.387  0.00  0.00    +0.000 C 
ENDBRANCH   4  16
ENDBRANCH   1   2
BRANCH   1  23
ATOM     20  C   UNL     1      45.204   4.204   9.409  0.00  0.00    +0.000 A 
ATOM     21  C   UNL     1      44.609   3.520  10.470  0.00  0.00    +0.000 A 
ATOM     22  C   UNL     1      44.665   4.074  11.752  0.00  0.00    +0.000 A 
ATOM     23  C   UNL     1      45.328   5.291  11.953  0.00  0.00    +0.000 A 
ATOM     24  C   UNL     1      45.833   5.929  10.828  0.00  0.00    +0.000 A 
ATOM     25  N   UNL     1      45.791   5.419   9.578  0.00  0.00    +0.000 NA
BRANCH  20  26
ATOM     26  C   UNL     1      45.305   3.562   8.024  0.00  0.00    +0.000 C 
BRANCH  26  27
ATOM     27  N   UNL     1      44.857   2.165   8.113  0.00  0.00    +0.000 NA
ATOM     28  H   UNL     1      45.358   1.647   7.390  0.00  0.00    +0.000 HD
ATOM     29  H   UNL     1      43.874   2.096   7.883  0.00  0.00    +0.000 HD
ENDBRANCH  26  27
BRANCH  26  30
ATOM     30  C   UNL     1      46.747   3.718   7.475  0.00  0.00    +0.000 C 
BRANCH  30  32
ATOM     31  C   UNL     1      46.682   2.575   5.240  0.00  0.00    +0.000 C 
ATOM     32  C   UNL     1      47.356   2.567   6.626  0.00  0.00    +0.000 C 
ATOM     33  C   UNL     1      47.129   1.199   7.283  0.00  0.00    +0.000 C 
BRANCH  32  34
ATOM     34  N   UNL     1      48.794   2.757   6.386  0.00  0.00    +0.000 NA
ATOM     35  H   UNL     1      49.223   1.867   6.130  0.00  0.00    +0.000 HD
ATOM     36  H   UNL     1      49.267   3.039   7.239  0.00  0.00    +0.000 HD
ENDBRANCH  32  34
ENDBRANCH  30  32
ENDBRANCH  26  30
ENDBRANCH  20  26
ENDBRANCH   1  23
TORSDOF 9
ENDMDL
MODEL 3
REMARK VINA RESULT:    -6.237      3.586      8.392
REMARK INTER + INTRA:         -10.263
REMARK INTER:                  -9.358
REMARK INTRA:                  -0.906
REMARK UNBOUND:                -1.109
REMARK  Name = 
REMARK  14 active torsions:
REMARK  status: ('A' for Active; 'I' for Inactive)
REMARK    1  A    between atoms: C_1  and  C_2
REMARK    2  A    between atoms: C_2  and  C_3
REMARK    3  A    between atoms: C_2  and  N_4
REMARK    4  A    between atoms: C_2  and  C_5
REMARK    5  A    between atoms: C_5  and  C_6
REMARK    6  A    between atoms: C_6  and  N_7
REMARK    7  A    between atoms: C_6  and  C_8
REMARK    8  A    between atoms: C_11  and  C_12
REMARK    9  A    between atoms: C_12  and  N_13
REMARK   10  A    between atoms: C_15  and  C_16
REMARK   11  A    between atoms: C_16  and  C_17
REMARK   12  A    between atoms: C_16  and  C_18
REMARK   13  A    between atoms: C_16  and  C_19
REMARK   14  A    between atoms: C_22  and  C_23
REMARK                            x       y       z     vdW  Elec       q    Type
REMARK                         _______ _______ _______ _____ _____    ______ ____
ROOT
ATOM      1  C   UNL     1      48.646   7.847  13.156  0.00  0.00    +0.000 C 
ENDROOT
BRANCH   1   2
ATOM      2  N   UNL     1      48.651   7.728  14.605  0.00  0.00    +0.000 N 
ATOM      3  C   UNL     1      49.140   8.727  15.417  0.00  0.00    +0.000 A 
ATOM      4  C   UNL     1      49.754   8.106  16.487  0.00  0.00    +0.000 A 
ATOM      5  C   UNL     1      49.273   6.760  16.482  0.00  0.00    +0.000 A 
ATOM      6  C   UNL     1      49.465   5.652  17.313  0.00  0.00    +0.000 A 
ATOM      7  C   UNL     1      48.820   4.457  17.023  0.00  0.00    +0.000 A 
ATOM      8  C   UNL     1      48.039   4.416  15.873  0.00  0.00    +0.000 A 
ATOM      9  N   UNL     1      47.885   5.431  14.961  0.00  0.00    +0.000 NA
ATOM     10  C   UNL     1      48.513   6.570  15.331  0.00  0.00    +0.000 A 
BRANCH   7  11
ATOM     11  C   UNL     1      49.039   3.360  17.998  0.00  0.00    +0.000 C 
ATOM     12  N   UNL     1      48.331   3.313  19.160  0.00  0.00    +0.000 N 
ATOM     13  O   UNL     1      49.859   2.471  17.782  0.00  0.00    +0.000 OA
ATOM     14  H   UNL     1      47.629   3.983  19.446  0.00  0.00    +0.000 HD
ATOM     15  H   UNL     1      48.531   2.541  19.771  0.00  0.00    +0.000 HD
ENDBRANCH   7  11
BRANCH   4  16
ATOM     16  C   UNL     1      50.792   8.689  17.427  0.00  0.00    +0.000 C 
ATOM     17  C   UNL     1      51.070  10.171  17.106  0.00  0.00    +0.000 C 
ATOM     18  C   UNL     1      50.342   8.594  18.896  0.00  0.00    +0.000 C 
ATOM     19  C   UNL     1      52.111   7.911  17.239  0.00  0.00    +0.000 C 
ENDBRANCH   4  16
ENDBRANCH   1   2
BRANCH   1  23
ATOM     20  C   UNL     1      44.910   6.555  11.520  0.00  0.00    +0.000 A 
ATOM     21  C   UNL     1      44.878   7.465  12.576  0.00  0.00    +0.000 A 
ATOM     22  C   UNL     1      46.084   7.922  13.116  0.00  0.00    +0.000 A 
ATOM     23  C   UNL     1      47.298   7.448  12.602  0.00  0.00    +0.000 A 
ATOM     24  C   UNL     1      47.229   6.594  11.509  0.00  0.00    +0.000 A 
ATOM     25  N   UNL     1      46.080   6.140  10.966  0.00  0.00    +0.000 NA
BRANCH  20  26
ATOM     26  C   UNL     1      43.621   5.910  11.005  0.00  0.00    +0.000 C 
BRANCH  26  27
ATOM     27  N   UNL     1      42.548   6.914  11.021  0.00  0.00    +0.000 NA
ATOM     28  H   UNL     1      42.702   7.525  10.218  0.00  0.00    +0.000 HD
ATOM     29  H   UNL     1      42.625   7.498  11.843  0.00  0.00    +0.000 HD
ENDBRANCH  26  27
BRANCH  26  30
ATOM     30  C   UNL     1      43.299   4.641  11.837  0.00  0.00    +0.000 C 
BRANCH  30  32
ATOM     31  C   UNL     1      45.196   3.041  12.220  0.00  0.00    +0.000 C 
ATOM     32  C   UNL     1      43.912   3.282  11.401  0.00  0.00    +0.000 C 
ATOM     33  C   UNL     1      44.266   3.275   9.907  0.00  0.00    +0.000 C 
BRANCH  32  34
ATOM     34  N   UNL     1      43.019   2.151  11.693  0.00  0.00    +0.000 NA
ATOM     35  H   UNL     1      43.474   1.275  11.436  0.00  0.00    +0.000 HD
ATOM     36  H   UNL     1      42.186   2.193  11.114  0.00  0.00    +0.000 HD
ENDBRANCH  32  34
ENDBRANCH  30  32
ENDBRANCH  26  30
ENDBRANCH  20  26
ENDBRANCH   1  23
TORSDOF 9
ENDMDL
MODEL 4
REMARK VINA RESULT:    -6.015      3.935      5.698
REMARK INTER + INTRA:          -9.937
REMARK INTER:                  -8.668
REMARK INTRA:                  -1.270
REMARK UNBOUND:                -1.109
REMARK  Name = 
REMARK  14 active torsions:
REMARK  status: ('A' for Active; 'I' for Inactive)
REMARK    1  A    between atoms: C_1  and  C_2
REMARK    2  A    between atoms: C_2  and  C_3
REMARK    3  A    between atoms: C_2  and  N_4
REMARK    4  A    between atoms: C_2  and  C_5
REMARK    5  A    between atoms: C_5  and  C_6
REMARK    6  A    between atoms: C_6  and  N_7
REMARK    7  A    between atoms: C_6  and  C_8
REMARK    8  A    between atoms: C_11  and  C_12
REMARK    9  A    between atoms: C_12  and  N_13
REMARK   10  A    between atoms: C_15  and  C_16
REMARK   11  A    between atoms: C_16  and  C_17
REMARK   12  A    between atoms: C_16  and  C_18
REMARK   13  A    between atoms: C_16  and  C_19
REMARK   14  A    between atoms: C_22  and  C_23
REMARK                            x       y       z     vdW  Elec       q    Type
REMARK                         _______ _______ _______ _____ _____    ______ ____
ROOT
ATOM      1  C   UNL     1      47.718   5.029  13.953  0.00  0.00    +0.000 C 
ENDROOT
BRANCH   1   2
ATOM      2  N   UNL     1      46.377   5.489  13.629  0.00  0.00    +0.000 N 
ATOM      3  C   UNL     1      45.340   4.612  13.404  0.00  0.00    +0.000 A 
ATOM      4  C   UNL     1      44.557   5.168  12.412  0.00  0.00    +0.000 A 
ATOM      5  C   UNL     1      44.933   6.545  12.347  0.00  0.00    +0.000 A 
ATOM      6  C   UNL     1      44.492   7.643  11.600  0.00  0.00    +0.000 A 
ATOM      7  C   UNL     1      45.081   8.885  11.794  0.00  0.00    +0.000 A 
ATOM      8  C   UNL     1      46.129   8.959  12.707  0.00  0.00    +0.000 A 
ATOM      9  N   UNL     1      46.677   7.908  13.398  0.00  0.00    +0.000 NA
ATOM     10  C   UNL     1      46.028   6.741  13.184  0.00  0.00    +0.000 A 
BRANCH   7  11
ATOM     11  C   UNL     1      44.502   9.997  11.001  0.00  0.00    +0.000 C 
ATOM     12  N   UNL     1      43.440   9.781  10.175  0.00  0.00    +0.000 N 
ATOM     13  O   UNL     1      44.961  11.134  11.070  0.00  0.00    +0.000 OA
ATOM     14  H   UNL     1      42.977   8.894  10.039  0.00  0.00    +0.000 HD
ATOM     15  H   UNL     1      43.102  10.581   9.671  0.00  0.00    +0.000 HD
ENDBRANCH   7  11
BRANCH   4  16
ATOM     16  C   UNL     1      43.564   4.460  11.509  0.00  0.00    +0.000 C 
ATOM     17  C   UNL     1      43.369   2.991  11.933  0.00  0.00    +0.000 C 
ATOM     18  C   UNL     1      42.189   5.151  11.529  0.00  0.00    +0.000 C 
ATOM     19  C   UNL     1      44.124   4.465  10.071  0.00  0.00    +0.000 C 
ENDBRANCH   4  16
ENDBRANCH   1   2
BRANCH   1  23
ATOM     20  C   UNL     1      48.340   5.270  18.179  0.00  0.00    +0.000 A 
ATOM     21  C   UNL     1      47.655   4.161  17.684  0.00  0.00    +0.000 A 
ATOM     22  C   UNL     1      47.456   4.045  16.305  0.00  0.00    +0.000 A 
ATOM     23  C   UNL     1      47.931   5.046  15.449  0.00  0.00    +0.000 A 
ATOM     24  C   UNL     1      48.657   6.079  16.028  0.00  0.00    +0.000 A 
ATOM     25  N   UNL     1      48.867   6.215  17.354  0.00  0.00    +0.000 NA
BRANCH  20  26
ATOM     26  C   UNL     1      48.442   5.518  19.686  0.00  0.00    +0.000 C 
BRANCH  26  27
ATOM     27  N   UNL     1      48.177   4.257  20.394  0.00  0.00    +0.000 NA
ATOM     28  H   UNL     1      47.410   3.797  19.901  0.00  0.00    +0.000 HD
ATOM     29  H   UNL     1      47.843   4.444  21.330  0.00  0.00    +0.000 HD
ENDBRANCH  26  27
BRANCH  26  30
ATOM     30  C   UNL     1      47.491   6.672  20.095  0.00  0.00    +0.000 C 
BRANCH  30  32
ATOM     31  C   UNL     1      49.486   8.016  20.815  0.00  0.00    +0.000 C 
ATOM     32  C   UNL     1      48.067   8.110  20.221  0.00  0.00    +0.000 C 
ATOM     33  C   UNL     1      47.201   8.987  21.136  0.00  0.00    +0.000 C 
BRANCH  32  34
ATOM     34  N   UNL     1      48.209   8.767  18.913  0.00  0.00    +0.000 NA
ATOM     35  H   UNL     1      48.436   9.754  19.044  0.00  0.00    +0.000 HD
ATOM     36  H   UNL     1      47.327   8.765  18.412  0.00  0.00    +0.000 HD
ENDBRANCH  32  34
ENDBRANCH  30  32
ENDBRANCH  26  30
ENDBRANCH  20  26
ENDBRANCH   1  23
TORSDOF 9
ENDMDL
MODEL 5
REMARK VINA RESULT:    -5.988      4.341      8.956
REMARK INTER + INTRA:          -9.897
REMARK INTER:                  -8.883
REMARK INTRA:                  -1.014
REMARK UNBOUND:                -1.109
REMARK  Name = 
REMARK  14 active torsions:
REMARK  status: ('A' for Active; 'I' for Inactive)
REMARK    1  A    between atoms: C_1  and  C_2
REMARK    2  A    between atoms: C_2  and  C_3
REMARK    3  A    between atoms: C_2  and  N_4
REMARK    4  A    between atoms: C_2  and  C_5
REMARK    5  A    between atoms: C_5  and  C_6
REMARK    6  A    between atoms: C_6  and  N_7
REMARK    7  A    between atoms: C_6  and  C_8
REMARK    8  A    between atoms: C_11  and  C_12
REMARK    9  A    between atoms: C_12  and  N_13
REMARK   10  A    between atoms: C_15  and  C_16
REMARK   11  A    between atoms: C_16  and  C_17
REMARK   12  A    between atoms: C_16  and  C_18
REMARK   13  A    between atoms: C_16  and  C_19
REMARK   14  A    between atoms: C_22  and  C_23
REMARK                            x       y       z     vdW  Elec       q    Type
REMARK                         _______ _______ _______ _____ _____    ______ ____
ROOT
ATOM      1  C   UNL     1      49.357   8.751  13.970  0.00  0.00    +0.000 C 
ENDROOT
BRANCH   1   2
ATOM      2  N   UNL     1      49.445   8.320  15.355  0.00  0.00    +0.000 N 
ATOM      3  C   UNL     1      49.788   7.031  15.697  0.00  0.00    +0.000 A 
ATOM      4  C   UNL     1      49.049   6.705  16.817  0.00  0.00    +0.000 A 
ATOM      5  C   UNL     1      48.574   7.947  17.342  0.00  0.00    +0.000 A 
ATOM      6  C   UNL     1      47.825   8.307  18.468  0.00  0.00    +0.000 A 
ATOM      7  C   UNL     1      47.539   9.647  18.700  0.00  0.00    +0.000 A 
ATOM      8  C   UNL     1      47.983  10.567  17.756  0.00  0.00    +0.000 A 
ATOM      9  N   UNL     1      48.634  10.276  16.583  0.00  0.00    +0.000 NA
ATOM     10  C   UNL     1      48.907   8.959  16.446  0.00  0.00    +0.000 A 
BRANCH   7  11
ATOM     11  C   UNL     1      46.793   9.932  19.951  0.00  0.00    +0.000 C 
ATOM     12  N   UNL     1      47.024   9.202  21.077  0.00  0.00    +0.000 N 
ATOM     13  O   UNL     1      45.958  10.830  20.001  0.00  0.00    +0.000 OA
ATOM     14  H   UNL     1      47.687   8.444  21.158  0.00  0.00    +0.000 HD
ATOM     15  H   UNL     1      46.483   9.453  21.886  0.00  0.00    +0.000 HD
ENDBRANCH   7  11
BRANCH   4  16
ATOM     16  C   UNL     1      48.723   5.320  17.343  0.00  0.00    +0.000 C 
ATOM     17  C   UNL     1      48.056   5.389  18.731  0.00  0.00    +0.000 C 
ATOM     18  C   UNL     1      47.778   4.562  16.394  0.00  0.00    +0.000 C 
ATOM     19  C   UNL     1      50.043   4.534  17.493  0.00  0.00    +0.000 C 
ENDBRANCH   4  16
ENDBRANCH   1   2
BRANCH   1  23
ATOM     20  C   UNL     1      45.866   7.144  12.091  0.00  0.00    +0.000 A 
ATOM     21  C   UNL     1      47.088   6.523  11.834  0.00  0.00    +0.000 A 
ATOM     22  C   UNL     1      48.243   7.013  12.452  0.00  0.00    +0.000 A 
ATOM     23  C   UNL     1      48.157   8.124  13.300  0.00  0.00    +0.000 A 
ATOM     24  C   UNL     1      46.888   8.634  13.545  0.00  0.00    +0.000 A 
ATOM     25  N   UNL     1      45.757   8.179  12.966  0.00  0.00    +0.000 NA
BRANCH  20  26
ATOM     26  C   UNL     1      44.607   6.743  11.318  0.00  0.00    +0.000 C 
BRANCH  26  27
ATOM     27  N   UNL     1      43.727   7.915  11.202  0.00  0.00    +0.000 NA
ATOM     28  H   UNL     1      42.799   7.618  11.508  0.00  0.00    +0.000 HD
ATOM     29  H   UNL     1      43.634   8.190  10.233  0.00  0.00    +0.000 HD
ENDBRANCH  26  27
BRANCH  26  30
ATOM     30  C   UNL     1      43.935   5.525  12.002  0.00  0.00    +0.000 C 
BRANCH  30  32
ATOM     31  C   UNL     1      45.228   3.384  12.224  0.00  0.00    +0.000 C 
ATOM     32  C   UNL     1      44.149   4.110  11.396  0.00  0.00    +0.000 C 
ATOM     33  C   UNL     1      44.611   4.186   9.935  0.00  0.00    +0.000 C 
BRANCH  32  34
ATOM     34  N   UNL     1      42.938   3.282  11.480  0.00  0.00    +0.000 NA
ATOM     35  H   UNL     1      42.277   3.699  12.137  0.00  0.00    +0.000 HD
ATOM     36  H   UNL     1      43.153   2.370  11.870  0.00  0.00    +0.000 HD
ENDBRANCH  32  34
ENDBRANCH  30  32
ENDBRANCH  26  30
ENDBRANCH  20  26
ENDBRANCH   1  23
TORSDOF 9
ENDMDL
MODEL 6
REMARK VINA RESULT:    -5.869      4.144      8.696
REMARK INTER + INTRA:          -9.722
REMARK INTER:                  -8.133
REMARK INTRA:                  -1.589
REMARK UNBOUND:                -1.109
REMARK  Name = 
REMARK  14 active torsions:
REMARK  status: ('A' for Active; 'I' for Inactive)
REMARK    1  A    between atoms: C_1  and  C_2
REMARK    2  A    between atoms: C_2  and  C_3
REMARK    3  A    between atoms: C_2  and  N_4
REMARK    4  A    between atoms: C_2  and  C_5
REMARK    5  A    between atoms: C_5  and  C_6
REMARK    6  A    between atoms: C_6  and  N_7
REMARK    7  A    between atoms: C_6  and  C_8
REMARK    8  A    between atoms: C_11  and  C_12
REMARK    9  A    between atoms: C_12  and  N_13
REMARK   10  A    between atoms: C_15  and  C_16
REMARK   11  A    between atoms: C_16  and  C_17
REMARK   12  A    between atoms: C_16  and  C_18
REMARK   13  A    between atoms: C_16  and  C_19
REMARK   14  A    between atoms: C_22  and  C_23
REMARK                            x       y       z     vdW  Elec       q    Type
REMARK                         _______ _______ _______ _____ _____    ______ ____
ROOT
ATOM      1  C   UNL     1      50.052   7.974  14.617  0.00  0.00    +0.000 C 
ENDROOT
BRANCH   1   2
ATOM      2  N   UNL     1      49.915   7.640  16.025  0.00  0.00    +0.000 N 
ATOM      3  C   UNL     1      50.091   6.357  16.490  0.00  0.00    +0.000 A 
ATOM      4  C   UNL     1      49.182   6.176  17.515  0.00  0.00    +0.000 A 
ATOM      5  C   UNL     1      48.757   7.488  17.891  0.00  0.00    +0.000 A 
ATOM      6  C   UNL     1      47.902   7.991  18.877  0.00  0.00    +0.000 A 
ATOM      7  C   UNL     1      47.711   9.362  18.984  0.00  0.00    +0.000 A 
ATOM      8  C   UNL     1      48.358  10.171  18.055  0.00  0.00    +0.000 A 
ATOM      9  N   UNL     1      49.130   9.742  17.005  0.00  0.00    +0.000 NA
ATOM     10  C   UNL     1      49.298   8.400  16.989  0.00  0.00    +0.000 A 
BRANCH   7  11
ATOM     11  C   UNL     1      46.835   9.800  20.099  0.00  0.00    +0.000 C 
ATOM     12  N   UNL     1      46.091  10.936  19.992  0.00  0.00    +0.000 N 
ATOM     13  O   UNL     1      46.758   9.151  21.139  0.00  0.00    +0.000 OA
ATOM     14  H   UNL     1      46.068  11.547  19.187  0.00  0.00    +0.000 HD
ATOM     15  H   UNL     1      45.521  11.168  20.786  0.00  0.00    +0.000 HD
ENDBRANCH   7  11
BRANCH   4  16
ATOM     16  C   UNL     1      48.665   4.865  18.075  0.00  0.00    +0.000 C 
ATOM     17  C   UNL     1      48.880   4.782  19.599  0.00  0.00    +0.000 C 
ATOM     18  C   UNL     1      47.163   4.682  17.793  0.00  0.00    +0.000 C 
ATOM     19  C   UNL     1      49.457   3.711  17.424  0.00  0.00    +0.000 C 
ENDBRANCH   4  16
ENDBRANCH   1   2
BRANCH   1  23
ATOM     20  C   UNL     1      46.388   7.134  12.574  0.00  0.00    +0.000 A 
ATOM     21  C   UNL     1      46.479   8.332  13.282  0.00  0.00    +0.000 A 
ATOM     22  C   UNL     1      47.672   8.644  13.941  0.00  0.00    +0.000 A 
ATOM     23  C   UNL     1      48.745   7.744  13.894  0.00  0.00    +0.000 A 
ATOM     24  C   UNL     1      48.583   6.608  13.112  0.00  0.00    +0.000 A 
ATOM     25  N   UNL     1      47.444   6.284  12.463  0.00  0.00    +0.000 NA
BRANCH  20  26
ATOM     26  C   UNL     1      45.056   6.680  11.973  0.00  0.00    +0.000 C 
BRANCH  26  27
ATOM     27  N   UNL     1      44.151   7.836  11.895  0.00  0.00    +0.000 NA
ATOM     28  H   UNL     1      44.740   8.669  11.837  0.00  0.00    +0.000 HD
ATOM     29  H   UNL     1      43.617   7.923  12.749  0.00  0.00    +0.000 HD
ENDBRANCH  26  27
BRANCH  26  30
ATOM     30  C   UNL     1      44.483   5.497  12.796  0.00  0.00    +0.000 C 
BRANCH  30  32
ATOM     31  C   UNL     1      45.034   4.106  10.780  0.00  0.00    +0.000 C 
ATOM     32  C   UNL     1      44.711   4.047  12.286  0.00  0.00    +0.000 C 
ATOM     33  C   UNL     1      43.467   3.173  12.494  0.00  0.00    +0.000 C 
BRANCH  32  34
ATOM     34  N   UNL     1      45.867   3.408  12.931  0.00  0.00    +0.000 NA
ATOM     35  H   UNL     1      45.836   2.400  12.776  0.00  0.00    +0.000 HD
ATOM     36  H   UNL     1      45.822   3.518  13.939  0.00  0.00    +0.000 HD
ENDBRANCH  32  34
ENDBRANCH  30  32
ENDBRANCH  26  30
ENDBRANCH  20  26
ENDBRANCH   1  23
TORSDOF 9
ENDMDL
MODEL 7
REMARK VINA RESULT:    -5.748      3.032      5.011
REMARK INTER + INTRA:          -9.545
REMARK INTER:                  -8.393
REMARK INTRA:                  -1.153
REMARK UNBOUND:                -1.109
REMARK  Name = 
REMARK  14 active torsions:
REMARK  status: ('A' for Active; 'I' for Inactive)
REMARK    1  A    between atoms: C_1  and  C_2
REMARK    2  A    between atoms: C_2  and  C_3
REMARK    3  A    between atoms: C_2  and  N_4
REMARK    4  A    between atoms: C_2  and  C_5
REMARK    5  A    between atoms: C_5  and  C_6
REMARK    6  A    between atoms: C_6  and  N_7
REMARK    7  A    between atoms: C_6  and  C_8
REMARK    8  A    between atoms: C_11  and  C_12
REMARK    9  A    between atoms: C_12  and  N_13
REMARK   10  A    between atoms: C_15  and  C_16
REMARK   11  A    between atoms: C_16  and  C_17
REMARK   12  A    between atoms: C_16  and  C_18
REMARK   13  A    between atoms: C_16  and  C_19
REMARK   14  A    between atoms: C_22  and  C_23
REMARK                            x       y       z     vdW  Elec       q    Type
REMARK                         _______ _______ _______ _____ _____    ______ ____
ROOT
ATOM      1  C   UNL     1      48.278   6.626  13.551  0.00  0.00    +0.000 C 
ENDROOT
BRANCH   1   2
ATOM      2  N   UNL     1      46.858   6.524  13.253  0.00  0.00    +0.000 N 
ATOM      3  C   UNL     1      46.236   5.309  13.074  0.00  0.00    +0.000 A 
ATOM      4  C   UNL     1      45.283   5.490  12.091  0.00  0.00    +0.000 A 
ATOM      5  C   UNL     1      45.098   6.904  11.987  0.00  0.00    +0.000 A 
ATOM      6  C   UNL     1      44.255   7.724  11.229  0.00  0.00    +0.000 A 
ATOM      7  C   UNL     1      44.323   9.103  11.382  0.00  0.00    +0.000 A 
ATOM      8  C   UNL     1      45.276   9.601  12.265  0.00  0.00    +0.000 A 
ATOM      9  N   UNL     1      46.197   8.863  12.964  0.00  0.00    +0.000 NA
ATOM     10  C   UNL     1      46.045   7.531  12.791  0.00  0.00    +0.000 A 
BRANCH   7  11
ATOM     11  C   UNL     1      43.347   9.882  10.580  0.00  0.00    +0.000 C 
ATOM     12  N   UNL     1      42.038   9.943  10.950  0.00  0.00    +0.000 N 
ATOM     13  O   UNL     1      43.695  10.490   9.572  0.00  0.00    +0.000 OA
ATOM     14  H   UNL     1      41.636   9.490  11.759  0.00  0.00    +0.000 HD
ATOM     15  H   UNL     1      41.436  10.490  10.360  0.00  0.00    +0.000 HD
ENDBRANCH   7  11
BRANCH   4  16
ATOM     16  C   UNL     1      44.625   4.428  11.230  0.00  0.00    +0.000 C 
ATOM     17  C   UNL     1      43.088   4.512  11.311  0.00  0.00    +0.000 C 
ATOM     18  C   UNL     1      45.035   4.565   9.753  0.00  0.00    +0.000 C 
ATOM     19  C   UNL     1      45.050   3.041  11.758  0.00  0.00    +0.000 C 
ENDBRANCH   4  16
ENDBRANCH   1   2
BRANCH   1  23
ATOM     20  C   UNL     1      48.927   7.001  17.764  0.00  0.00    +0.000 A 
ATOM     21  C   UNL     1      48.992   8.159  16.989  0.00  0.00    +0.000 A 
ATOM     22  C   UNL     1      48.762   8.070  15.613  0.00  0.00    +0.000 A 
ATOM     23  C   UNL     1      48.489   6.824  15.035  0.00  0.00    +0.000 A 
ATOM     24  C   UNL     1      48.381   5.739  15.895  0.00  0.00    +0.000 A 
ATOM     25  N   UNL     1      48.594   5.796  17.227  0.00  0.00    +0.000 NA
BRANCH  20  26
ATOM     26  C   UNL     1      49.326   7.025  19.241  0.00  0.00    +0.000 C 
BRANCH  26  27
ATOM     27  N   UNL     1      49.192   8.398  19.747  0.00  0.00    +0.000 NA
ATOM     28  H   UNL     1      48.196   8.622  19.735  0.00  0.00    +0.000 HD
ATOM     29  H   UNL     1      49.639   9.050  19.115  0.00  0.00    +0.000 HD
ENDBRANCH  26  27
BRANCH  26  30
ATOM     30  C   UNL     1      50.750   6.435  19.411  0.00  0.00    +0.000 C 
BRANCH  30  32
ATOM     31  C   UNL     1      51.766   4.769  20.991  0.00  0.00    +0.000 C 
ATOM     32  C   UNL     1      50.903   4.920  19.723  0.00  0.00    +0.000 C 
ATOM     33  C   UNL     1      51.580   4.171  18.567  0.00  0.00    +0.000 C 
BRANCH  32  34
ATOM     34  N   UNL     1      49.612   4.283  20.024  0.00  0.00    +0.000 NA
ATOM     35  H   UNL     1      49.163   3.985  19.157  0.00  0.00    +0.000 HD
ATOM     36  H   UNL     1      48.969   4.951  20.435  0.00  0.00    +0.000 HD
ENDBRANCH  32  34
ENDBRANCH  30  32
ENDBRANCH  26  30
ENDBRANCH  20  26
ENDBRANCH   1  23
TORSDOF 9
ENDMDL
MODEL 8
REMARK VINA RESULT:    -5.705      3.349      8.564
REMARK INTER + INTRA:          -9.482
REMARK INTER:                  -8.311
REMARK INTRA:                  -1.171
REMARK UNBOUND:                -1.109
REMARK  Name = 
REMARK  14 active torsions:
REMARK  status: ('A' for Active; 'I' for Inactive)
REMARK    1  A    between atoms: C_1  and  C_2
REMARK    2  A    between atoms: C_2  and  C_3
REMARK    3  A    between atoms: C_2  and  N_4
REMARK    4  A    between atoms: C_2  and  C_5
REMARK    5  A    between atoms: C_5  and  C_6
REMARK    6  A    between atoms: C_6  and  N_7
REMARK    7  A    between atoms: C_6  and  C_8
REMARK    8  A    between atoms: C_11  and  C_12
REMARK    9  A    between atoms: C_12  and  N_13
REMARK   10  A    between atoms: C_15  and  C_16
REMARK   11  A    between atoms: C_16  and  C_17
REMARK   12  A    between atoms: C_16  and  C_18
REMARK   13  A    between atoms: C_16  and  C_19
REMARK   14  A    between atoms: C_22  and  C_23
REMARK                            x       y       z     vdW  Elec       q    Type
REMARK                         _______ _______ _______ _____ _____    ______ ____
ROOT
ATOM      1  C   UNL     1      47.165   3.441  14.935  0.00  0.00    +0.000 C 
ENDROOT
BRANCH   1   2
ATOM      2  N   UNL     1      47.746   3.514  16.266  0.00  0.00    +0.000 N 
ATOM      3  C   UNL     1      47.354   4.464  17.182  0.00  0.00    +0.000 A 
ATOM      4  C   UNL     1      48.483   4.822  17.893  0.00  0.00    +0.000 A 
ATOM      5  C   UNL     1      49.440   3.790  17.644  0.00  0.00    +0.000 A 
ATOM      6  C   UNL     1      50.739   3.535  18.096  0.00  0.00    +0.000 A 
ATOM      7  C   UNL     1      51.409   2.401  17.655  0.00  0.00    +0.000 A 
ATOM      8  C   UNL     1      50.752   1.592  16.733  0.00  0.00    +0.000 A 
ATOM      9  N   UNL     1      49.523   1.833  16.173  0.00  0.00    +0.000 NA
ATOM     10  C   UNL     1      48.921   2.933  16.678  0.00  0.00    +0.000 A 
BRANCH   7  11
ATOM     11  C   UNL     1      52.755   2.187  18.239  0.00  0.00    +0.000 C 
ATOM     12  N   UNL     1      53.614   3.231  18.404  0.00  0.00    +0.000 N 
ATOM     13  O   UNL     1      53.125   1.069  18.590  0.00  0.00    +0.000 OA
ATOM     14  H   UNL     1      53.421   4.192  18.158  0.00  0.00    +0.000 HD
ATOM     15  H   UNL     1      54.507   3.010  18.807  0.00  0.00    +0.000 HD
ENDBRANCH   7  11
BRANCH   4  16
ATOM     16  C   UNL     1      48.708   6.086  18.701  0.00  0.00    +0.000 C 
ATOM     17  C   UNL     1      47.386   6.843  18.938  0.00  0.00    +0.000 C 
ATOM     18  C   UNL     1      49.336   5.777  20.071  0.00  0.00    +0.000 C 
ATOM     19  C   UNL     1      49.645   7.016  17.900  0.00  0.00    +0.000 C 
ENDBRANCH   4  16
ENDBRANCH   1   2
BRANCH   1  23
ATOM     20  C   UNL     1      46.552   7.345  13.294  0.00  0.00    +0.000 A 
ATOM     21  C   UNL     1      47.769   7.087  13.925  0.00  0.00    +0.000 A 
ATOM     22  C   UNL     1      48.006   5.814  14.452  0.00  0.00    +0.000 A 
ATOM     23  C   UNL     1      47.017   4.827  14.352  0.00  0.00    +0.000 A 
ATOM     24  C   UNL     1      45.865   5.158  13.650  0.00  0.00    +0.000 A 
ATOM     25  N   UNL     1      45.611   6.377  13.129  0.00  0.00    +0.000 NA
BRANCH  20  26
ATOM     26  C   UNL     1      46.189   8.762  12.846  0.00  0.00    +0.000 C 
BRANCH  26  27
ATOM     27  N   UNL     1      44.763   8.797  12.491  0.00  0.00    +0.000 NA
ATOM     28  H   UNL     1      44.369   7.894  12.759  0.00  0.00    +0.000 HD
ATOM     29  H   UNL     1      44.652   8.870  11.489  0.00  0.00    +0.000 HD
ENDBRANCH  26  27
BRANCH  26  30
ATOM     30  C   UNL     1      47.127   9.207  11.694  0.00  0.00    +0.000 C 
BRANCH  30  32
ATOM     31  C   UNL     1      48.102  11.389  10.923  0.00  0.00    +0.000 C 
ATOM     32  C   UNL     1      48.217  10.276  11.984  0.00  0.00    +0.000 C 
ATOM     33  C   UNL     1      49.628   9.675  11.924  0.00  0.00    +0.000 C 
BRANCH  32  34
ATOM     34  N   UNL     1      48.022  10.927  13.288  0.00  0.00    +0.000 NA
ATOM     35  H   UNL     1      47.091  11.343  13.332  0.00  0.00    +0.000 HD
ATOM     36  H   UNL     1      48.661  11.707  13.399  0.00  0.00    +0.000 HD
ENDBRANCH  32  34
ENDBRANCH  30  32
ENDBRANCH  26  30
ENDBRANCH  20  26
ENDBRANCH   1  23
TORSDOF 9
ENDMDL
MODEL 9
REMARK VINA RESULT:    -5.446      4.355      6.579
REMARK INTER + INTRA:          -9.102
REMARK INTER:                  -8.046
REMARK INTRA:                  -1.056
REMARK UNBOUND:                -1.109
REMARK  Name = 
REMARK  14 active torsions:
REMARK  status: ('A' for Active; 'I' for Inactive)
REMARK    1  A    between atoms: C_1  and  C_2
REMARK    2  A    between atoms: C_2  and  C_3
REMARK    3  A    between atoms: C_2  and  N_4
REMARK    4  A    between atoms: C_2  and  C_5
REMARK    5  A    between atoms: C_5  and  C_6
REMARK    6  A    between atoms: C_6  and  N_7
REMARK    7  A    between atoms: C_6  and  C_8
REMARK    8  A    between atoms: C_11  and  C_12
REMARK    9  A    between atoms: C_12  and  N_13
REMARK   10  A    between atoms: C_15  and  C_16
REMARK   11  A    between atoms: C_16  and  C_17
REMARK   12  A    between atoms: C_16  and  C_18
REMARK   13  A    between atoms: C_16  and  C_19
REMARK   14  A    between atoms: C_22  and  C_23
REMARK                            x       y       z     vdW  Elec       q    Type
REMARK                         _______ _______ _______ _____ _____    ______ ____
ROOT
ATOM      1  C   UNL     1      48.334   6.625  13.422  0.00  0.00    +0.000 C 
ENDROOT
BRANCH   1   2
ATOM      2  N   UNL     1      46.908   6.507  13.164  0.00  0.00    +0.000 N 
ATOM      3  C   UNL     1      46.300   5.287  12.974  0.00  0.00    +0.000 A 
ATOM      4  C   UNL     1      45.314   5.478  12.025  0.00  0.00    +0.000 A 
ATOM      5  C   UNL     1      45.104   6.890  11.962  0.00  0.00    +0.000 A 
ATOM      6  C   UNL     1      44.226   7.715  11.251  0.00  0.00    +0.000 A 
ATOM      7  C   UNL     1      44.277   9.091  11.436  0.00  0.00    +0.000 A 
ATOM      8  C   UNL     1      45.249   9.582  12.302  0.00  0.00    +0.000 A 
ATOM      9  N   UNL     1      46.203   8.842  12.954  0.00  0.00    +0.000 NA
ATOM     10  C   UNL     1      46.066   7.512  12.752  0.00  0.00    +0.000 A 
BRANCH   7  11
ATOM     11  C   UNL     1      43.266   9.873  10.685  0.00  0.00    +0.000 C 
ATOM     12  N   UNL     1      42.003  10.025  11.173  0.00  0.00    +0.000 N 
ATOM     13  O   UNL     1      43.541  10.403   9.611  0.00  0.00    +0.000 OA
ATOM     14  H   UNL     1      41.662   9.642  12.044  0.00  0.00    +0.000 HD
ATOM     15  H   UNL     1      41.373  10.569  10.610  0.00  0.00    +0.000 HD
ENDBRANCH   7  11
BRANCH   4  16
ATOM     16  C   UNL     1      44.647   4.427  11.158  0.00  0.00    +0.000 C 
ATOM     17  C   UNL     1      43.111   4.501  11.268  0.00  0.00    +0.000 C 
ATOM     18  C   UNL     1      45.029   4.590   9.676  0.00  0.00    +0.000 C 
ATOM     19  C   UNL     1      45.088   3.033  11.655  0.00  0.00    +0.000 C 
ENDBRANCH   4  16
ENDBRANCH   1   2
BRANCH   1  23
ATOM     20  C   UNL     1      48.974   7.754  17.499  0.00  0.00    +0.000 A 
ATOM     21  C   UNL     1      48.723   6.409  17.227  0.00  0.00    +0.000 A 
ATOM     22  C   UNL     1      48.531   6.007  15.901  0.00  0.00    +0.000 A 
ATOM     23  C   UNL     1      48.579   6.959  14.875  0.00  0.00    +0.000 A 
ATOM     24  C   UNL     1      48.899   8.261  15.236  0.00  0.00    +0.000 A 
ATOM     25  N   UNL     1      49.092   8.676  16.506  0.00  0.00    +0.000 NA
BRANCH  20  26
ATOM     26  C   UNL     1      49.032   8.263  18.941  0.00  0.00    +0.000 C 
BRANCH  26  27
ATOM     27  N   UNL     1      49.635   7.224  19.788  0.00  0.00    +0.000 NA
ATOM     28  H   UNL     1      50.627   7.187  19.549  0.00  0.00    +0.000 HD
ATOM     29  H   UNL     1      49.252   6.317  19.557  0.00  0.00    +0.000 HD
ENDBRANCH  26  27
BRANCH  26  30
ATOM     30  C   UNL     1      47.617   8.698  19.402  0.00  0.00    +0.000 C 
BRANCH  30  32
ATOM     31  C   UNL     1      47.483  11.075  18.605  0.00  0.00    +0.000 C 
ATOM     32  C   UNL     1      47.392  10.169  19.849  0.00  0.00    +0.000 C 
ATOM     33  C   UNL     1      48.446  10.617  20.870  0.00  0.00    +0.000 C 
BRANCH  32  34
ATOM     34  N   UNL     1      46.050  10.378  20.414  0.00  0.00    +0.000 NA
ATOM     35  H   UNL     1      45.707   9.507  20.821  0.00  0.00    +0.000 HD
ATOM     36  H   UNL     1      45.384  10.605  19.683  0.00  0.00    +0.000 HD
ENDBRANCH  32  34
ENDBRANCH  30  32
ENDBRANCH  26  30
ENDBRANCH  20  26
ENDBRANCH   1  23
TORSDOF 9
ENDMDL
