MODEL 1
REMARK VINA RESULT:    -7.805      0.000      0.000
REMARK INTER + INTRA:         -11.492
REMARK INTER:                 -10.771
REMARK INTRA:                  -0.721
REMARK UNBOUND:                -0.721
REMARK  Name = 
REMARK  8 active torsions:
REMARK  status: ('A' for Active; 'I' for Inactive)
REMARK    1  A    between atoms: C_1  and  C_2
REMARK    2  A    between atoms: C_2  and  N_3
REMARK    3  A    between atoms: C_2  and  C_18
REMARK    4  A    between atoms: N_3  and  C_4
REMARK    5  A    between atoms: C_7  and  C_8
REMARK    6  A    between atoms: C_8  and  N_9
REMARK    7  A    between atoms: N_9  and  C_10
REMARK    8  A    between atoms: C_13  and  N_14
REMARK                            x       y       z     vdW  Elec       q    Type
REMARK                         _______ _______ _______ _____ _____    ______ ____
ROOT
ATOM      1  C   UNL     1      47.297   5.161  14.603  0.00  0.00    +0.000 A 
ATOM      2  C   UNL     1      47.092   6.136  13.627  0.00  0.00    +0.000 A 
ATOM      3  C   UNL     1      46.339   5.856  12.486  0.00  0.00    +0.000 A 
ATOM      4  C   UNL     1      45.828   4.573  12.320  0.00  0.00    +0.000 A 
ATOM      5  N   UNL     1      46.033   3.588  13.229  0.00  0.00    +0.000 NA
ATOM      6  C   UNL     1      46.764   3.901  14.327  0.00  0.00    +0.000 A 
ENDROOT
BRANCH   1   7
ATOM      7  N   UNL     1      48.106   5.483  15.697  0.00  0.00    +0.000 N 
ATOM      8  H   UNL     1      49.060   5.618  15.357  0.00  0.00    +0.000 HD
BRANCH   7  10
ATOM      9  C   UNL     1      47.113   5.126  17.924  0.00  0.00    +0.000 C 
ATOM     10  C   UNL     1      48.128   4.612  16.893  0.00  0.00    +0.000 C 
BRANCH  10  11
ATOM     11  C   UNL     1      49.514   4.532  17.517  0.00  0.00    +0.000 A 
ATOM     12  C   UNL     1      50.130   5.578  18.187  0.00  0.00    +0.000 A 
ATOM     13  S   UNL     1      51.725   5.215  18.676  0.00  0.00    +0.000 S 
ATOM     14  C   UNL     1      51.626   3.638  18.040  0.00  0.00    +0.000 A 
ATOM     15  N   UNL     1      52.683   2.784  18.092  0.00  0.00    +0.000 NA
ATOM     16  C   UNL     1      52.450   1.620  17.583  0.00  0.00    +0.000 A 
ATOM     17  N   UNL     1      51.250   1.225  17.043  0.00  0.00    +0.000 N 
ATOM     18  C   UNL     1      50.145   2.043  16.992  0.00  0.00    +0.000 A 
ATOM     19  O   UNL     1      49.064   1.653  16.566  0.00  0.00    +0.000 OA
ATOM     20  C   UNL     1      50.380   3.382  17.500  0.00  0.00    +0.000 A 
ATOM     21  H   UNL     1      51.127   0.285  16.696  0.00  0.00    +0.000 HD
ENDBRANCH  10  11
ENDBRANCH   7  10
ENDBRANCH   1   7
BRANCH   4  22
ATOM     22  C   UNL     1      44.998   4.225  11.101  0.00  0.00    +0.000 C 
BRANCH  22  23
ATOM     23  N   UNL     1      45.217   2.865  10.576  0.00  0.00    +0.000 NA
ATOM     24  H   UNL     1      44.820   2.229  11.274  0.00  0.00    +0.000 HD
BRANCH  23  25
ATOM     25  C   UNL     1      44.561   2.596   9.289  0.00  0.00    +0.000 C 
ATOM     26  C   UNL     1      44.802   3.680   8.227  0.00  0.00    +0.000 C 
ATOM     27  C   UNL     1      46.067   3.282   7.460  0.00  0.00    +0.000 C 
ATOM     28  C   UNL     1      46.489   1.924   8.021  0.00  0.00    +0.000 C 
ATOM     29  C   UNL     1      45.205   1.365   8.630  0.00  0.00    +0.000 C 
BRANCH  28  30
ATOM     30  N   UNL     1      47.081   1.064   7.003  0.00  0.00    +0.000 NA
ATOM     31  H   UNL     1      47.690   0.373   7.440  0.00  0.00    +0.000 HD
ATOM     32  H   UNL     1      47.678   1.623   6.394  0.00  0.00    +0.000 HD
ENDBRANCH  28  30
ENDBRANCH  23  25
ENDBRANCH  22  23
ENDBRANCH   4  22
TORSDOF 7
ENDMDL
MODEL 2
REMARK VINA RESULT:    -7.683      3.408      8.519
REMARK INTER + INTRA:         -11.323
REMARK INTER:                 -10.391
REMARK INTRA:                  -0.932
REMARK UNBOUND:                -0.721
REMARK  Name = 
REMARK  8 active torsions:
REMARK  status: ('A' for Active; 'I' for Inactive)
REMARK    1  A    between atoms: C_1  and  C_2
REMARK    2  A    between atoms: C_2  and  N_3
REMARK    3  A    between atoms: C_2  and  C_18
REMARK    4  A    between atoms: N_3  and  C_4
REMARK    5  A    between atoms: C_7  and  C_8
REMARK    6  A    between atoms: C_8  and  N_9
REMARK    7  A    between atoms: N_9  and  C_10
REMARK    8  A    between atoms: C_13  and  N_14
REMARK                            x       y       z     vdW  Elec       q    Type
REMARK                         _______ _______ _______ _____ _____    ______ ____
ROOT
ATOM      1  C   UNL     1      47.823   6.731  12.586  0.00  0.00    +0.000 A 
ATOM      2  C   UNL     1      48.762   7.710  12.907  0.00  0.00    +0.000 A 
ATOM      3  C   UNL     1      49.436   7.678  14.128  0.00  0.00    +0.000 A 
ATOM      4  C   UNL     1      49.126   6.673  15.038  0.00  0.00    +0.000 A 
ATOM      5  N   UNL     1      48.194   5.723  14.778  0.00  0.00    +0.000 NA
ATOM      6  C   UNL     1      47.566   5.784  13.578  0.00  0.00    +0.000 A 
ENDROOT
BRANCH   1   7
ATOM      7  N   UNL     1      47.139   6.846  11.371  0.00  0.00    +0.000 N 
ATOM      8  H   UNL     1      47.634   7.527  10.792  0.00  0.00    +0.000 HD
BRANCH   7  10
ATOM      9  C   UNL     1      45.358   8.152  12.466  0.00  0.00    +0.000 C 
ATOM     10  C   UNL     1      45.690   7.146  11.355  0.00  0.00    +0.000 C 
BRANCH  10  11
ATOM     11  C   UNL     1      44.844   5.891  11.514  0.00  0.00    +0.000 A 
ATOM     12  C   UNL     1      44.007   5.646  12.592  0.00  0.00    +0.000 A 
ATOM     13  S   UNL     1      43.277   4.103  12.539  0.00  0.00    +0.000 S 
ATOM     14  C   UNL     1      44.029   3.732  11.057  0.00  0.00    +0.000 A 
ATOM     15  N   UNL     1      43.856   2.524  10.456  0.00  0.00    +0.000 NA
ATOM     16  C   UNL     1      44.478   2.398   9.331  0.00  0.00    +0.000 A 
ATOM     17  N   UNL     1      45.242   3.375   8.741  0.00  0.00    +0.000 N 
ATOM     18  C   UNL     1      45.425   4.621   9.297  0.00  0.00    +0.000 A 
ATOM     19  O   UNL     1      46.057   5.503   8.726  0.00  0.00    +0.000 OA
ATOM     20  C   UNL     1      44.792   4.786  10.593  0.00  0.00    +0.000 A 
ATOM     21  H   UNL     1      45.670   3.220   7.841  0.00  0.00    +0.000 HD
ENDBRANCH  10  11
ENDBRANCH   7  10
ENDBRANCH   1   7
BRANCH   4  22
ATOM     22  C   UNL     1      49.837   6.595  16.374  0.00  0.00    +0.000 C 
BRANCH  22  23
ATOM     23  N   UNL     1      50.154   5.226  16.822  0.00  0.00    +0.000 NA
ATOM     24  H   UNL     1      51.177   5.165  16.832  0.00  0.00    +0.000 HD
BRANCH  23  25
ATOM     25  C   UNL     1      49.663   4.898  18.168  0.00  0.00    +0.000 C 
ATOM     26  C   UNL     1      48.505   5.788  18.645  0.00  0.00    +0.000 C 
ATOM     27  C   UNL     1      47.207   5.106  18.202  0.00  0.00    +0.000 C 
ATOM     28  C   UNL     1      47.624   3.783  17.561  0.00  0.00    +0.000 C 
ATOM     29  C   UNL     1      49.005   3.509  18.152  0.00  0.00    +0.000 C 
BRANCH  28  30
ATOM     30  N   UNL     1      46.657   2.720  17.805  0.00  0.00    +0.000 NA
ATOM     31  H   UNL     1      46.997   2.099  18.539  0.00  0.00    +0.000 HD
ATOM     32  H   UNL     1      46.565   2.146  16.968  0.00  0.00    +0.000 HD
ENDBRANCH  28  30
ENDBRANCH  23  25
ENDBRANCH  22  23
ENDBRANCH   4  22
TORSDOF 7
ENDMDL
MODEL 3
REMARK VINA RESULT:    -7.562      1.466      1.972
REMARK INTER + INTRA:         -11.156
REMARK INTER:                 -10.421
REMARK INTRA:                  -0.736
REMARK UNBOUND:                -0.721
REMARK  Name = 
REMARK  8 active torsions:
REMARK  status: ('A' for Active; 'I' for Inactive)
REMARK    1  A    between atoms: C_1  and  C_2
REMARK    2  A    between atoms: C_2  and  N_3
REMARK    3  A    between atoms: C_2  and  C_18
REMARK    4  A    between atoms: N_3  and  C_4
REMARK    5  A    between atoms: C_7  and  C_8
REMARK    6  A    between atoms: C_8  and  N_9
REMARK    7  A    between atoms: N_9  and  C_10
REMARK    8  A    between atoms: C_13  and  N_14
REMARK                            x       y       z     vdW  Elec       q    Type
REMARK                         _______ _______ _______ _____ _____    ______ ____
ROOT
ATOM      1  C   UNL     1      47.693   5.998  14.675  0.00  0.00    +0.000 A 
ATOM      2  C   UNL     1      47.845   7.147  13.902  0.00  0.00    +0.000 A 
ATOM      3  C   UNL     1      47.168   7.286  12.689  0.00  0.00    +0.000 A 
ATOM      4  C   UNL     1      46.368   6.238  12.247  0.00  0.00    +0.000 A 
ATOM      5  N   UNL     1      46.220   5.090  12.953  0.00  0.00    +0.000 NA
ATOM      6  C   UNL     1      46.889   4.996  14.129  0.00  0.00    +0.000 A 
ENDROOT
BRANCH   1   7
ATOM      7  N   UNL     1      48.440   5.893  15.853  0.00  0.00    +0.000 N 
ATOM      8  H   UNL     1      49.409   6.130  15.636  0.00  0.00    +0.000 HD
BRANCH   7  10
ATOM      9  C   UNL     1      47.197   4.674  17.599  0.00  0.00    +0.000 C 
ATOM     10  C   UNL     1      48.405   4.647  16.652  0.00  0.00    +0.000 C 
BRANCH  10  11
ATOM     11  C   UNL     1      49.687   4.439  17.444  0.00  0.00    +0.000 A 
ATOM     12  C   UNL     1      50.261   5.397  18.267  0.00  0.00    +0.000 A 
ATOM     13  S   UNL     1      51.754   4.905  18.932  0.00  0.00    +0.000 S 
ATOM     14  C   UNL     1      51.662   3.384  18.170  0.00  0.00    +0.000 A 
ATOM     15  N   UNL     1      52.657   2.466  18.295  0.00  0.00    +0.000 NA
ATOM     16  C   UNL     1      52.435   1.356  17.672  0.00  0.00    +0.000 A 
ATOM     17  N   UNL     1      51.301   1.073  16.951  0.00  0.00    +0.000 N 
ATOM     18  C   UNL     1      50.256   1.959  16.817  0.00  0.00    +0.000 A 
ATOM     19  O   UNL     1      49.224   1.665  16.224  0.00  0.00    +0.000 OA
ATOM     20  C   UNL     1      50.489   3.243  17.453  0.00  0.00    +0.000 A 
ATOM     21  H   UNL     1      51.178   0.169  16.519  0.00  0.00    +0.000 HD
ENDBRANCH  10  11
ENDBRANCH   7  10
ENDBRANCH   1   7
BRANCH   4  22
ATOM     22  C   UNL     1      45.607   6.346  10.940  0.00  0.00    +0.000 C 
BRANCH  22  23
ATOM     23  N   UNL     1      45.805   5.212  10.019  0.00  0.00    +0.000 NA
ATOM     24  H   UNL     1      46.190   4.453  10.589  0.00  0.00    +0.000 HD
BRANCH  23  25
ATOM     25  C   UNL     1      44.573   4.724   9.383  0.00  0.00    +0.000 C 
ATOM     26  C   UNL     1      44.754   3.423   8.586  0.00  0.00    +0.000 C 
ATOM     27  C   UNL     1      44.497   2.266   9.557  0.00  0.00    +0.000 C 
ATOM     28  C   UNL     1      44.074   2.910  10.877  0.00  0.00    +0.000 C 
ATOM     29  C   UNL     1      43.571   4.292  10.465  0.00  0.00    +0.000 C 
BRANCH  28  30
ATOM     30  N   UNL     1      43.087   2.111  11.592  0.00  0.00    +0.000 NA
ATOM     31  H   UNL     1      42.511   2.712  12.181  0.00  0.00    +0.000 HD
ATOM     32  H   UNL     1      43.563   1.469  12.223  0.00  0.00    +0.000 HD
ENDBRANCH  28  30
ENDBRANCH  23  25
ENDBRANCH  22  23
ENDBRANCH   4  22
TORSDOF 7
ENDMDL
MODEL 4
REMARK VINA RESULT:    -7.080      1.863      2.296
REMARK INTER + INTRA:         -10.490
REMARK INTER:                  -9.586
REMARK INTRA:                  -0.904
REMARK UNBOUND:                -0.721
REMARK  Name = 
REMARK  8 active torsions:
REMARK  status: ('A' for Active; 'I' for Inactive)
REMARK    1  A    between atoms: C_1  and  C_2
REMARK    2  A    between atoms: C_2  and  N_3
REMARK    3  A    between atoms: C_2  and  C_18
REMARK    4  A    between atoms: N_3  and  C_4
REMARK    5  A    between atoms: C_7  and  C_8
REMARK    6  A    between atoms: C_8  and  N_9
REMARK    7  A    between atoms: N_9  and  C_10
REMARK    8  A    between atoms: C_13  and  N_14
REMARK                            x       y       z     vdW  Elec       q    Type
REMARK                         _______ _______ _______ _____ _____    ______ ____
ROOT
ATOM      1  C   UNL     1      47.549   6.259  13.080  0.00  0.00    +0.000 A 
ATOM      2  C   UNL     1      46.972   6.662  11.877  0.00  0.00    +0.000 A 
ATOM      3  C   UNL     1      45.969   5.902  11.276  0.00  0.00    +0.000 A 
ATOM      4  C   UNL     1      45.580   4.711  11.881  0.00  0.00    +0.000 A 
ATOM      5  N   UNL     1      46.139   4.266  13.033  0.00  0.00    +0.000 NA
ATOM      6  C   UNL     1      47.107   5.037  13.589  0.00  0.00    +0.000 A 
ENDROOT
BRANCH   1   7
ATOM      7  N   UNL     1      48.589   7.032  13.605  0.00  0.00    +0.000 N 
ATOM      8  H   UNL     1      49.473   6.585  13.358  0.00  0.00    +0.000 HD
BRANCH   7  10
ATOM      9  C   UNL     1      48.366   8.900  15.198  0.00  0.00    +0.000 C 
ATOM     10  C   UNL     1      48.603   7.391  15.041  0.00  0.00    +0.000 C 
BRANCH  10  11
ATOM     11  C   UNL     1      49.906   6.992  15.718  0.00  0.00    +0.000 A 
ATOM     12  C   UNL     1      51.114   7.647  15.535  0.00  0.00    +0.000 A 
ATOM     13  S   UNL     1      52.416   6.895  16.344  0.00  0.00    +0.000 S 
ATOM     14  C   UNL     1      51.398   5.693  16.992  0.00  0.00    +0.000 A 
ATOM     15  N   UNL     1      51.889   4.690  17.767  0.00  0.00    +0.000 NA
ATOM     16  C   UNL     1      50.993   3.865  18.197  0.00  0.00    +0.000 A 
ATOM     17  N   UNL     1      49.648   3.961  17.937  0.00  0.00    +0.000 N 
ATOM     18  C   UNL     1      49.100   4.971  17.180  0.00  0.00    +0.000 A 
ATOM     19  O   UNL     1      47.891   5.078  17.012  0.00  0.00    +0.000 OA
ATOM     20  C   UNL     1      50.080   5.890  16.628  0.00  0.00    +0.000 A 
ATOM     21  H   UNL     1      48.998   3.300  18.336  0.00  0.00    +0.000 HD
ENDBRANCH  10  11
ENDBRANCH   7  10
ENDBRANCH   1   7
BRANCH   4  22
ATOM     22  C   UNL     1      44.488   3.856  11.269  0.00  0.00    +0.000 C 
BRANCH  22  23
ATOM     23  N   UNL     1      44.972   2.660  10.555  0.00  0.00    +0.000 NA
ATOM     24  H   UNL     1      44.659   1.858  11.110  0.00  0.00    +0.000 HD
BRANCH  23  25
ATOM     25  C   UNL     1      44.440   2.508   9.193  0.00  0.00    +0.000 C 
ATOM     26  C   UNL     1      44.815   3.658   8.244  0.00  0.00    +0.000 C 
ATOM     27  C   UNL     1      46.138   3.272   7.577  0.00  0.00    +0.000 C 
ATOM     28  C   UNL     1      46.465   1.863   8.071  0.00  0.00    +0.000 C 
ATOM     29  C   UNL     1      45.112   1.307   8.509  0.00  0.00    +0.000 C 
BRANCH  28  30
ATOM     30  N   UNL     1      47.132   1.060   7.054  0.00  0.00    +0.000 NA
ATOM     31  H   UNL     1      47.282   1.615   6.213  0.00  0.00    +0.000 HD
ATOM     32  H   UNL     1      46.525   0.288   6.780  0.00  0.00    +0.000 HD
ENDBRANCH  28  30
ENDBRANCH  23  25
ENDBRANCH  22  23
ENDBRANCH   4  22
TORSDOF 7
ENDMDL
MODEL 5
REMARK VINA RESULT:    -6.975      4.869      6.228
REMARK INTER + INTRA:         -10.346
REMARK INTER:                  -9.515
REMARK INTRA:                  -0.831
REMARK UNBOUND:                -0.721
REMARK  Name = 
REMARK  8 active torsions:
REMARK  status: ('A' for Active; 'I' for Inactive)
REMARK    1  A    between atoms: C_1  and  C_2
REMARK    2  A    between atoms: C_2  and  N_3
REMARK    3  A    between atoms: C_2  and  C_18
REMARK    4  A    between atoms: N_3  and  C_4
REMARK    5  A    between atoms: C_7  and  C_8
REMARK    6  A    between atoms: C_8  and  N_9
REMARK    7  A    between atoms: N_9  and  C_10
REMARK    8  A    between atoms: C_13  and  N_14
REMARK                            x       y       z     vdW  Elec       q    Type
REMARK                         _______ _______ _______ _____ _____    ______ ____
ROOT
ATOM      1  C   UNL     1      45.820   6.438  12.743  0.00  0.00    +0.000 A 
ATOM      2  C   UNL     1      45.748   6.459  11.351  0.00  0.00    +0.000 A 
ATOM      3  C   UNL     1      45.361   5.323  10.640  0.00  0.00    +0.000 A 
ATOM      4  C   UNL     1      45.085   4.155  11.343  0.00  0.00    +0.000 A 
ATOM      5  N   UNL     1      45.176   4.084  12.694  0.00  0.00    +0.000 NA
ATOM      6  C   UNL     1      45.549   5.211  13.349  0.00  0.00    +0.000 A 
ENDROOT
BRANCH   1   7
ATOM      7  N   UNL     1      46.267   7.591  13.397  0.00  0.00    +0.000 N 
ATOM      8  H   UNL     1      45.664   8.367  13.120  0.00  0.00    +0.000 HD
BRANCH   7  10
ATOM      9  C   UNL     1      48.267   8.211  14.698  0.00  0.00    +0.000 C 
ATOM     10  C   UNL     1      47.684   8.007  13.293  0.00  0.00    +0.000 C 
BRANCH  10  11
ATOM     11  C   UNL     1      47.849   9.275  12.468  0.00  0.00    +0.000 A 
ATOM     12  C   UNL     1      46.836  10.193  12.236  0.00  0.00    +0.000 A 
ATOM     13  S   UNL     1      47.300  11.454  11.182  0.00  0.00    +0.000 S 
ATOM     14  C   UNL     1      48.878  10.831  11.033  0.00  0.00    +0.000 A 
ATOM     15  N   UNL     1      49.802  11.423  10.231  0.00  0.00    +0.000 NA
ATOM     16  C   UNL     1      50.957  10.844  10.234  0.00  0.00    +0.000 A 
ATOM     17  N   UNL     1      51.278   9.737  10.981  0.00  0.00    +0.000 N 
ATOM     18  C   UNL     1      50.385   9.117  11.826  0.00  0.00    +0.000 A 
ATOM     19  O   UNL     1      50.707   8.170  12.534  0.00  0.00    +0.000 OA
ATOM     20  C   UNL     1      49.056   9.701  11.809  0.00  0.00    +0.000 A 
ATOM     21  H   UNL     1      52.213   9.357  10.963  0.00  0.00    +0.000 HD
ENDBRANCH  10  11
ENDBRANCH   7  10
ENDBRANCH   1   7
BRANCH   4  22
ATOM     22  C   UNL     1      44.654   2.898  10.614  0.00  0.00    +0.000 C 
BRANCH  22  23
ATOM     23  N   UNL     1      45.708   2.269   9.799  0.00  0.00    +0.000 NA
ATOM     24  H   UNL     1      45.913   1.372  10.251  0.00  0.00    +0.000 HD
BRANCH  23  25
ATOM     25  C   UNL     1      45.321   1.999   8.407  0.00  0.00    +0.000 C 
ATOM     26  C   UNL     1      45.264   3.253   7.520  0.00  0.00    +0.000 C 
ATOM     27  C   UNL     1      46.658   3.432   6.909  0.00  0.00    +0.000 C 
ATOM     28  C   UNL     1      47.477   2.226   7.369  0.00  0.00    +0.000 C 
ATOM     29  C   UNL     1      46.422   1.178   7.716  0.00  0.00    +0.000 C 
BRANCH  28  30
ATOM     30  N   UNL     1      48.434   1.789   6.361  0.00  0.00    +0.000 NA
ATOM     31  H   UNL     1      48.420   0.773   6.282  0.00  0.00    +0.000 HD
ATOM     32  H   UNL     1      49.377   2.037   6.658  0.00  0.00    +0.000 HD
ENDBRANCH  28  30
ENDBRANCH  23  25
ENDBRANCH  22  23
ENDBRANCH   4  22
TORSDOF 7
ENDMDL
MODEL 6
REMARK VINA RESULT:    -6.813      3.666      4.969
REMARK INTER + INTRA:         -10.123
REMARK INTER:                  -9.222
REMARK INTRA:                  -0.901
REMARK UNBOUND:                -0.721
REMARK  Name = 
REMARK  8 active torsions:
REMARK  status: ('A' for Active; 'I' for Inactive)
REMARK    1  A    between atoms: C_1  and  C_2
REMARK    2  A    between atoms: C_2  and  N_3
REMARK    3  A    between atoms: C_2  and  C_18
REMARK    4  A    between atoms: N_3  and  C_4
REMARK    5  A    between atoms: C_7  and  C_8
REMARK    6  A    between atoms: C_8  and  N_9
REMARK    7  A    between atoms: N_9  and  C_10
REMARK    8  A    between atoms: C_13  and  N_14
REMARK                            x       y       z     vdW  Elec       q    Type
REMARK                         _______ _______ _______ _____ _____    ______ ____
ROOT
ATOM      1  C   UNL     1      46.599   6.366  13.190  0.00  0.00    +0.000 A 
ATOM      2  C   UNL     1      46.371   6.662  11.846  0.00  0.00    +0.000 A 
ATOM      3  C   UNL     1      45.681   5.769  11.026  0.00  0.00    +0.000 A 
ATOM      4  C   UNL     1      45.256   4.559  11.563  0.00  0.00    +0.000 A 
ATOM      5  N   UNL     1      45.487   4.218  12.855  0.00  0.00    +0.000 NA
ATOM      6  C   UNL     1      46.156   5.115  13.622  0.00  0.00    +0.000 A 
ENDROOT
BRANCH   1   7
ATOM      7  N   UNL     1      47.345   7.274  13.948  0.00  0.00    +0.000 N 
ATOM      8  H   UNL     1      47.387   8.156  13.434  0.00  0.00    +0.000 HD
BRANCH   7  10
ATOM      9  C   UNL     1      48.602   6.227  15.792  0.00  0.00    +0.000 C 
ATOM     10  C   UNL     1      48.700   6.916  14.423  0.00  0.00    +0.000 C 
BRANCH  10  11
ATOM     11  C   UNL     1      49.615   8.129  14.510  0.00  0.00    +0.000 A 
ATOM     12  C   UNL     1      50.015   8.721  15.699  0.00  0.00    +0.000 A 
ATOM     13  S   UNL     1      50.950  10.130  15.466  0.00  0.00    +0.000 S 
ATOM     14  C   UNL     1      50.879   9.971  13.772  0.00  0.00    +0.000 A 
ATOM     15  N   UNL     1      51.457  10.885  12.948  0.00  0.00    +0.000 NA
ATOM     16  C   UNL     1      51.332  10.620  11.690  0.00  0.00    +0.000 A 
ATOM     17  N   UNL     1      50.697   9.513  11.180  0.00  0.00    +0.000 N 
ATOM     18  C   UNL     1      50.120   8.548  11.973  0.00  0.00    +0.000 A 
ATOM     19  O   UNL     1      49.615   7.535  11.503  0.00  0.00    +0.000 OA
ATOM     20  C   UNL     1      50.187   8.836  13.394  0.00  0.00    +0.000 A 
ATOM     21  H   UNL     1      50.669   9.350  10.185  0.00  0.00    +0.000 HD
ENDBRANCH  10  11
ENDBRANCH   7  10
ENDBRANCH   1   7
BRANCH   4  22
ATOM     22  C   UNL     1      44.496   3.561  10.712  0.00  0.00    +0.000 C 
BRANCH  22  23
ATOM     23  N   UNL     1      45.335   2.524  10.085  0.00  0.00    +0.000 NA
ATOM     24  H   UNL     1      45.251   1.697  10.685  0.00  0.00    +0.000 HD
BRANCH  23  25
ATOM     25  C   UNL     1      44.921   2.146   8.727  0.00  0.00    +0.000 C 
ATOM     26  C   UNL     1      44.922   3.312   7.726  0.00  0.00    +0.000 C 
ATOM     27  C   UNL     1      46.317   3.357   7.094  0.00  0.00    +0.000 C 
ATOM     28  C   UNL     1      47.076   2.158   7.663  0.00  0.00    +0.000 C 
ATOM     29  C   UNL     1      45.970   1.205   8.111  0.00  0.00    +0.000 C 
BRANCH  28  30
ATOM     30  N   UNL     1      47.998   1.578   6.695  0.00  0.00    +0.000 NA
ATOM     31  H   UNL     1      48.948   1.897   6.882  0.00  0.00    +0.000 HD
ATOM     32  H   UNL     1      47.765   1.912   5.762  0.00  0.00    +0.000 HD
ENDBRANCH  28  30
ENDBRANCH  23  25
ENDBRANCH  22  23
ENDBRANCH   4  22
TORSDOF 7
ENDMDL
MODEL 7
REMARK VINA RESULT:    -6.635      2.162      3.028
REMARK INTER + INTRA:          -9.876
REMARK INTER:                  -8.777
REMARK INTRA:                  -1.099
REMARK UNBOUND:                -0.721
REMARK  Name = 
REMARK  8 active torsions:
REMARK  status: ('A' for Active; 'I' for Inactive)
REMARK    1  A    between atoms: C_1  and  C_2
REMARK    2  A    between atoms: C_2  and  N_3
REMARK    3  A    between atoms: C_2  and  C_18
REMARK    4  A    between atoms: N_3  and  C_4
REMARK    5  A    between atoms: C_7  and  C_8
REMARK    6  A    between atoms: C_8  and  N_9
REMARK    7  A    between atoms: N_9  and  C_10
REMARK    8  A    between atoms: C_13  and  N_14
REMARK                            x       y       z     vdW  Elec       q    Type
REMARK                         _______ _______ _______ _____ _____    ______ ____
ROOT
ATOM      1  C   UNL     1      48.006   7.563  14.156  0.00  0.00    +0.000 A 
ATOM      2  C   UNL     1      47.777   6.271  13.685  0.00  0.00    +0.000 A 
ATOM      3  C   UNL     1      46.762   6.018  12.761  0.00  0.00    +0.000 A 
ATOM      4  C   UNL     1      45.956   7.074  12.348  0.00  0.00    +0.000 A 
ATOM      5  N   UNL     1      46.124   8.338  12.808  0.00  0.00    +0.000 NA
ATOM      6  C   UNL     1      47.125   8.544  13.700  0.00  0.00    +0.000 A 
ENDROOT
BRANCH   1   7
ATOM      7  N   UNL     1      49.001   7.745  15.122  0.00  0.00    +0.000 N 
ATOM      8  H   UNL     1      49.871   7.353  14.759  0.00  0.00    +0.000 HD
BRANCH   7  10
ATOM      9  C   UNL     1      48.775   8.475  17.466  0.00  0.00    +0.000 C 
ATOM     10  C   UNL     1      48.790   7.273  16.510  0.00  0.00    +0.000 C 
BRANCH  10  11
ATOM     11  C   UNL     1      49.852   6.273  16.942  0.00  0.00    +0.000 A 
ATOM     12  C   UNL     1      51.160   6.609  17.256  0.00  0.00    +0.000 A 
ATOM     13  S   UNL     1      52.140   5.253  17.596  0.00  0.00    +0.000 S 
ATOM     14  C   UNL     1      50.838   4.179  17.369  0.00  0.00    +0.000 A 
ATOM     15  N   UNL     1      51.000   2.834  17.476  0.00  0.00    +0.000 NA
ATOM     16  C   UNL     1      49.918   2.152  17.292  0.00  0.00    +0.000 A 
ATOM     17  N   UNL     1      48.684   2.694  17.028  0.00  0.00    +0.000 N 
ATOM     18  C   UNL     1      48.465   4.050  16.936  0.00  0.00    +0.000 A 
ATOM     19  O   UNL     1      47.345   4.519  16.764  0.00  0.00    +0.000 OA
ATOM     20  C   UNL     1      49.666   4.852  17.078  0.00  0.00    +0.000 A 
ATOM     21  H   UNL     1      47.872   2.103  16.932  0.00  0.00    +0.000 HD
ENDBRANCH  10  11
ENDBRANCH   7  10
ENDBRANCH   1   7
BRANCH   4  22
ATOM     22  C   UNL     1      44.846   6.849  11.340  0.00  0.00    +0.000 C 
BRANCH  22  23
ATOM     23  N   UNL     1      45.164   5.871  10.284  0.00  0.00    +0.000 NA
ATOM     24  H   UNL     1      45.901   5.273  10.670  0.00  0.00    +0.000 HD
BRANCH  23  25
ATOM     25  C   UNL     1      44.038   5.012   9.891  0.00  0.00    +0.000 C 
ATOM     26  C   UNL     1      44.454   3.752   9.116  0.00  0.00    +0.000 C 
ATOM     27  C   UNL     1      44.699   2.651  10.153  0.00  0.00    +0.000 C 
ATOM     28  C   UNL     1      44.328   3.256  11.506  0.00  0.00    +0.000 C 
ATOM     29  C   UNL     1      43.390   4.407  11.147  0.00  0.00    +0.000 C 
BRANCH  28  30
ATOM     30  N   UNL     1      43.738   2.275  12.409  0.00  0.00    +0.000 NA
ATOM     31  H   UNL     1      44.469   1.816  12.952  0.00  0.00    +0.000 HD
ATOM     32  H   UNL     1      43.287   1.542  11.864  0.00  0.00    +0.000 HD
ENDBRANCH  28  30
ENDBRANCH  23  25
ENDBRANCH  22  23
ENDBRANCH   4  22
TORSDOF 7
ENDMDL
MODEL 8
REMARK VINA RESULT:    -6.497      2.700      3.261
REMARK INTER + INTRA:          -9.687
REMARK INTER:                  -8.968
REMARK INTRA:                  -0.719
REMARK UNBOUND:                -0.721
REMARK  Name = 
REMARK  8 active torsions:
REMARK  status: ('A' for Active; 'I' for Inactive)
REMARK    1  A    between atoms: C_1  and  C_2
REMARK    2  A    between atoms: C_2  and  N_3
REMARK    3  A    between atoms: C_2  and  C_18
REMARK    4  A    between atoms: N_3  and  C_4
REMARK    5  A    between atoms: C_7  and  C_8
REMARK    6  A    between atoms: C_8  and  N_9
REMARK    7  A    between atoms: N_9  and  C_10
REMARK    8  A    between atoms: C_13  and  N_14
REMARK                            x       y       z     vdW  Elec       q    Type
REMARK                         _______ _______ _______ _____ _____    ______ ____
ROOT
ATOM      1  C   UNL     1      47.293   6.252  13.286  0.00  0.00    +0.000 A 
ATOM      2  C   UNL     1      46.716   6.574  12.059  0.00  0.00    +0.000 A 
ATOM      3  C   UNL     1      45.782   5.725  11.464  0.00  0.00    +0.000 A 
ATOM      4  C   UNL     1      45.465   4.530  12.100  0.00  0.00    +0.000 A 
ATOM      5  N   UNL     1      46.028   4.163  13.278  0.00  0.00    +0.000 NA
ATOM      6  C   UNL     1      46.927   5.018  13.826  0.00  0.00    +0.000 A 
ENDROOT
BRANCH   1   7
ATOM      7  N   UNL     1      48.263   7.114  13.805  0.00  0.00    +0.000 N 
ATOM      8  H   UNL     1      49.181   6.768  13.519  0.00  0.00    +0.000 HD
BRANCH   7  10
ATOM      9  C   UNL     1      48.310   8.955  15.444  0.00  0.00    +0.000 C 
ATOM     10  C   UNL     1      48.285   7.432  15.251  0.00  0.00    +0.000 C 
BRANCH  10  11
ATOM     11  C   UNL     1      49.472   6.794  15.959  0.00  0.00    +0.000 A 
ATOM     12  C   UNL     1      49.366   5.932  17.039  0.00  0.00    +0.000 A 
ATOM     13  S   UNL     1      50.878   5.473  17.684  0.00  0.00    +0.000 S 
ATOM     14  C   UNL     1      51.721   6.382  16.516  0.00  0.00    +0.000 A 
ATOM     15  N   UNL     1      53.078   6.455  16.517  0.00  0.00    +0.000 NA
ATOM     16  C   UNL     1      53.571   7.170  15.561  0.00  0.00    +0.000 A 
ATOM     17  N   UNL     1      52.832   7.804  14.592  0.00  0.00    +0.000 N 
ATOM     18  C   UNL     1      51.459   7.739  14.535  0.00  0.00    +0.000 A 
ATOM     19  O   UNL     1      50.819   8.257  13.626  0.00  0.00    +0.000 OA
ATOM     20  C   UNL     1      50.859   6.993  15.625  0.00  0.00    +0.000 A 
ATOM     21  H   UNL     1      53.287   8.317  13.852  0.00  0.00    +0.000 HD
ENDBRANCH  10  11
ENDBRANCH   7  10
ENDBRANCH   1   7
BRANCH   4  22
ATOM     22  C   UNL     1      44.450   3.579  11.496  0.00  0.00    +0.000 C 
BRANCH  22  23
ATOM     23  N   UNL     1      45.026   2.540  10.623  0.00  0.00    +0.000 NA
ATOM     24  H   UNL     1      44.805   1.645  11.070  0.00  0.00    +0.000 HD
BRANCH  23  25
ATOM     25  C   UNL     1      44.474   2.517   9.261  0.00  0.00    +0.000 C 
ATOM     26  C   UNL     1      44.902   3.710   8.393  0.00  0.00    +0.000 C 
ATOM     27  C   UNL     1      46.196   3.304   7.682  0.00  0.00    +0.000 C 
ATOM     28  C   UNL     1      46.450   1.847   8.069  0.00  0.00    +0.000 C 
ATOM     29  C   UNL     1      45.073   1.334   8.483  0.00  0.00    +0.000 C 
BRANCH  28  30
ATOM     30  N   UNL     1      47.063   1.085   6.988  0.00  0.00    +0.000 NA
ATOM     31  H   UNL     1      46.501   1.165   6.141  0.00  0.00    +0.000 HD
ATOM     32  H   UNL     1      47.068   0.096   7.232  0.00  0.00    +0.000 HD
ENDBRANCH  28  30
ENDBRANCH  23  25
ENDBRANCH  22  23
ENDBRANCH   4  22
TORSDOF 7
ENDMDL
MODEL 9
REMARK VINA RESULT:    -6.407      4.015      7.776
REMARK INTER + INTRA:          -9.562
REMARK INTER:                  -7.776
REMARK INTRA:                  -1.786
REMARK UNBOUND:                -0.721
REMARK  Name = 
REMARK  8 active torsions:
REMARK  status: ('A' for Active; 'I' for Inactive)
REMARK    1  A    between atoms: C_1  and  C_2
REMARK    2  A    between atoms: C_2  and  N_3
REMARK    3  A    between atoms: C_2  and  C_18
REMARK    4  A    between atoms: N_3  and  C_4
REMARK    5  A    between atoms: C_7  and  C_8
REMARK    6  A    between atoms: C_8  and  N_9
REMARK    7  A    between atoms: N_9  and  C_10
REMARK    8  A    between atoms: C_13  and  N_14
REMARK                            x       y       z     vdW  Elec       q    Type
REMARK                         _______ _______ _______ _____ _____    ______ ____
ROOT
ATOM      1  C   UNL     1      49.479   8.321  15.237  0.00  0.00    +0.000 A 
ATOM      2  C   UNL     1      48.672   8.447  16.367  0.00  0.00    +0.000 A 
ATOM      3  C   UNL     1      48.801   7.563  17.438  0.00  0.00    +0.000 A 
ATOM      4  C   UNL     1      49.725   6.528  17.344  0.00  0.00    +0.000 A 
ATOM      5  N   UNL     1      50.504   6.350  16.249  0.00  0.00    +0.000 NA
ATOM      6  C   UNL     1      50.353   7.233  15.231  0.00  0.00    +0.000 A 
ENDROOT
BRANCH   1   7
ATOM      7  N   UNL     1      49.265   9.201  14.172  0.00  0.00    +0.000 N 
ATOM      8  H   UNL     1      48.528   9.855  14.444  0.00  0.00    +0.000 HD
BRANCH   7  10
ATOM      9  C   UNL     1      49.596   9.618  11.765  0.00  0.00    +0.000 C 
ATOM     10  C   UNL     1      48.984   8.680  12.815  0.00  0.00    +0.000 C 
BRANCH  10  11
ATOM     11  C   UNL     1      47.492   8.514  12.563  0.00  0.00    +0.000 A 
ATOM     12  C   UNL     1      46.651   9.537  12.152  0.00  0.00    +0.000 A 
ATOM     13  S   UNL     1      45.013   9.065  12.064  0.00  0.00    +0.000 S 
ATOM     14  C   UNL     1      45.383   7.472  12.536  0.00  0.00    +0.000 A 
ATOM     15  N   UNL     1      44.411   6.534  12.696  0.00  0.00    +0.000 NA
ATOM     16  C   UNL     1      44.849   5.370  13.042  0.00  0.00    +0.000 A 
ATOM     17  N   UNL     1      46.172   5.050  13.225  0.00  0.00    +0.000 N 
ATOM     18  C   UNL     1      47.193   5.957  13.051  0.00  0.00    +0.000 A 
ATOM     19  O   UNL     1      48.372   5.638  13.156  0.00  0.00    +0.000 OA
ATOM     20  C   UNL     1      46.741   7.295  12.719  0.00  0.00    +0.000 A 
ATOM     21  H   UNL     1      46.446   4.108  13.460  0.00  0.00    +0.000 HD
ENDBRANCH  10  11
ENDBRANCH   7  10
ENDBRANCH   1   7
BRANCH   4  22
ATOM     22  C   UNL     1      49.906   5.548  18.486  0.00  0.00    +0.000 C 
BRANCH  22  23
ATOM     23  N   UNL     1      50.151   4.156  18.068  0.00  0.00    +0.000 NA
ATOM     24  H   UNL     1      50.871   3.797  18.703  0.00  0.00    +0.000 HD
BRANCH  23  25
ATOM     25  C   UNL     1      48.978   3.276  18.164  0.00  0.00    +0.000 C 
ATOM     26  C   UNL     1      47.640   4.026  18.256  0.00  0.00    +0.000 C 
ATOM     27  C   UNL     1      47.144   4.232  16.821  0.00  0.00    +0.000 C 
ATOM     28  C   UNL     1      48.149   3.513  15.921  0.00  0.00    +0.000 C 
ATOM     29  C   UNL     1      48.810   2.497  16.849  0.00  0.00    +0.000 C 
BRANCH  28  30
ATOM     30  N   UNL     1      47.517   2.919  14.750  0.00  0.00    +0.000 NA
ATOM     31  H   UNL     1      46.663   2.433  15.021  0.00  0.00    +0.000 HD
ATOM     32  H   UNL     1      48.134   2.208  14.356  0.00  0.00    +0.000 HD
ENDBRANCH  28  30
ENDBRANCH  23  25
ENDBRANCH  22  23
ENDBRANCH   4  22
TORSDOF 7
ENDMDL
