MODEL 1
REMARK VINA RESULT:    -8.866      0.000      0.000
REMARK INTER + INTRA:         -12.103
REMARK INTER:                 -11.457
REMARK INTRA:                  -0.646
REMARK UNBOUND:                -0.646
REMARK  Name = 
REMARK  5 active torsions:
REMARK  status: ('A' for Active; 'I' for Inactive)
REMARK    1  A    between atoms: C_2  and  C_4
REMARK    2  A    between atoms: C_7  and  N_8
REMARK    3  A    between atoms: N_8  and  C_9
REMARK    4  A    between atoms: C_9  and  C_10
REMARK    5  A    between atoms: C_15  and  C_16
REMARK                            x       y       z     vdW  Elec       q    Type
REMARK                         _______ _______ _______ _____ _____    ______ ____
ROOT
ATOM      1  C   UNL     1      43.630   4.440  11.226  0.00  0.00    +0.000 C 
ENDROOT
BRANCH   1   2
ATOM      2  C   UNL     1      44.911   4.816  11.944  0.00  0.00    +0.000 A 
ATOM      3  C   UNL     1      45.517   3.924  12.834  0.00  0.00    +0.000 A 
ATOM      4  C   UNL     1      46.686   4.292  13.486  0.00  0.00    +0.000 A 
ATOM      5  F   UNL     1      47.262   3.431  14.336  0.00  0.00    +0.000 F 
ATOM      6  C   UNL     1      47.273   5.537  13.276  0.00  0.00    +0.000 A 
ATOM      7  C   UNL     1      46.704   6.462  12.385  0.00  0.00    +0.000 A 
ATOM      8  C   UNL     1      45.513   6.075  11.732  0.00  0.00    +0.000 A 
BRANCH   7   9
ATOM      9  C   UNL     1      47.332   7.781  12.142  0.00  0.00    +0.000 A 
ATOM     10  C   UNL     1      48.669   7.909  11.732  0.00  0.00    +0.000 A 
ATOM     11  C   UNL     1      49.234   9.166  11.515  0.00  0.00    +0.000 A 
ATOM     12  C   UNL     1      48.444  10.284  11.707  0.00  0.00    +0.000 A 
ATOM     13  N   UNL     1      47.156  10.223  12.098  0.00  0.00    +0.000 NA
ATOM     14  C   UNL     1      46.640   8.984  12.308  0.00  0.00    +0.000 A 
ENDBRANCH   7   9
ENDBRANCH   1   2
BRANCH   1  15
ATOM     15  N   UNL     1      43.763   4.778   9.814  0.00  0.00    +0.000 N 
ATOM     16  H   UNL     1      43.994   5.759   9.688  0.00  0.00    +0.000 HD
BRANCH  15  20
ATOM     17  C   UNL     1      46.372   2.313   7.800  0.00  0.00    +0.000 A 
ATOM     18  C   UNL     1      46.380   3.681   7.576  0.00  0.00    +0.000 A 
ATOM     19  N   UNL     1      45.534   4.536   8.216  0.00  0.00    +0.000 NA
ATOM     20  C   UNL     1      44.667   3.983   9.092  0.00  0.00    +0.000 A 
ATOM     21  C   UNL     1      44.691   2.599   9.318  0.00  0.00    +0.000 A 
ATOM     22  N   UNL     1      45.521   1.728   8.685  0.00  0.00    +0.000 NA
BRANCH  17  24
ATOM     23  N   UNL     1      48.405   2.044   6.513  0.00  0.00    +0.000 N 
ATOM     24  C   UNL     1      47.309   1.428   7.058  0.00  0.00    +0.000 C 
ATOM     25  O   UNL     1      47.121   0.223   6.943  0.00  0.00    +0.000 OA
ATOM     26  H   UNL     1      49.081   1.500   5.998  0.00  0.00    +0.000 HD
ATOM     27  H   UNL     1      48.534   3.044   6.631  0.00  0.00    +0.000 HD
ENDBRANCH  17  24
ENDBRANCH  15  20
ENDBRANCH   1  15
TORSDOF 5
ENDMDL
MODEL 2
REMARK VINA RESULT:    -8.378      2.397      3.723
REMARK INTER + INTRA:         -11.473
REMARK INTER:                 -10.820
REMARK INTRA:                  -0.652
REMARK UNBOUND:                -0.646
REMARK  Name = 
REMARK  5 active torsions:
REMARK  status: ('A' for Active; 'I' for Inactive)
REMARK    1  A    between atoms: C_2  and  C_4
REMARK    2  A    between atoms: C_7  and  N_8
REMARK    3  A    between atoms: N_8  and  C_9
REMARK    4  A    between atoms: C_9  and  C_10
REMARK    5  A    between atoms: C_15  and  C_16
REMARK                            x       y       z     vdW  Elec       q    Type
REMARK                         _______ _______ _______ _____ _____    ______ ____
ROOT
ATOM      1  C   UNL     1      44.003   4.471  11.452  0.00  0.00    +0.000 C 
ENDROOT
BRANCH   1   2
ATOM      2  C   UNL     1      45.160   5.200  12.104  0.00  0.00    +0.000 A 
ATOM      3  C   UNL     1      45.640   6.399  11.568  0.00  0.00    +0.000 A 
ATOM      4  C   UNL     1      46.706   7.046  12.177  0.00  0.00    +0.000 A 
ATOM      5  F   UNL     1      47.159   8.196  11.658  0.00  0.00    +0.000 F 
ATOM      6  C   UNL     1      47.316   6.527  13.316  0.00  0.00    +0.000 A 
ATOM      7  C   UNL     1      46.862   5.330  13.895  0.00  0.00    +0.000 A 
ATOM      8  C   UNL     1      45.780   4.681  13.262  0.00  0.00    +0.000 A 
BRANCH   7   9
ATOM      9  C   UNL     1      47.492   4.781  15.118  0.00  0.00    +0.000 A 
ATOM     10  C   UNL     1      47.424   3.417  15.446  0.00  0.00    +0.000 A 
ATOM     11  C   UNL     1      48.024   2.930  16.607  0.00  0.00    +0.000 A 
ATOM     12  C   UNL     1      48.693   3.821  17.425  0.00  0.00    +0.000 A 
ATOM     13  N   UNL     1      48.793   5.138  17.161  0.00  0.00    +0.000 NA
ATOM     14  C   UNL     1      48.190   5.580  16.026  0.00  0.00    +0.000 A 
ENDBRANCH   7   9
ENDBRANCH   1   2
BRANCH   1  15
ATOM     15  N   UNL     1      43.984   4.791  10.030  0.00  0.00    +0.000 N 
ATOM     16  H   UNL     1      44.180   5.775   9.869  0.00  0.00    +0.000 HD
BRANCH  15  20
ATOM     17  C   UNL     1      46.421   2.350   7.785  0.00  0.00    +0.000 A 
ATOM     18  C   UNL     1      46.435   3.723   7.597  0.00  0.00    +0.000 A 
ATOM     19  N   UNL     1      45.644   4.571   8.314  0.00  0.00    +0.000 NA
ATOM     20  C   UNL     1      44.828   4.005   9.229  0.00  0.00    +0.000 A 
ATOM     21  C   UNL     1      44.847   2.615   9.416  0.00  0.00    +0.000 A 
ATOM     22  N   UNL     1      45.622   1.752   8.707  0.00  0.00    +0.000 NA
BRANCH  17  24
ATOM     23  N   UNL     1      48.353   2.095   6.347  0.00  0.00    +0.000 N 
ATOM     24  C   UNL     1      47.296   1.474   6.959  0.00  0.00    +0.000 C 
ATOM     25  O   UNL     1      47.092   0.273   6.835  0.00  0.00    +0.000 OA
ATOM     26  H   UNL     1      48.986   1.557   5.774  0.00  0.00    +0.000 HD
ATOM     27  H   UNL     1      48.498   3.091   6.474  0.00  0.00    +0.000 HD
ENDBRANCH  17  24
ENDBRANCH  15  20
ENDBRANCH   1  15
TORSDOF 5
ENDMDL
MODEL 3
REMARK VINA RESULT:    -8.034      2.012      2.742
REMARK INTER + INTRA:         -11.028
REMARK INTER:                 -10.291
REMARK INTRA:                  -0.737
REMARK UNBOUND:                -0.646
REMARK  Name = 
REMARK  5 active torsions:
REMARK  status: ('A' for Active; 'I' for Inactive)
REMARK    1  A    between atoms: C_2  and  C_4
REMARK    2  A    between atoms: C_7  and  N_8
REMARK    3  A    between atoms: N_8  and  C_9
REMARK    4  A    between atoms: C_9  and  C_10
REMARK    5  A    between atoms: C_15  and  C_16
REMARK                            x       y       z     vdW  Elec       q    Type
REMARK                         _______ _______ _______ _____ _____    ______ ____
ROOT
ATOM      1  C   UNL     1      44.196   3.916  11.771  0.00  0.00    +0.000 C 
ENDROOT
BRANCH   1   2
ATOM      2  C   UNL     1      44.988   5.187  12.006  0.00  0.00    +0.000 A 
ATOM      3  C   UNL     1      46.279   5.133  12.541  0.00  0.00    +0.000 A 
ATOM      4  C   UNL     1      46.984   6.310  12.755  0.00  0.00    +0.000 A 
ATOM      5  F   UNL     1      48.221   6.250  13.267  0.00  0.00    +0.000 F 
ATOM      6  C   UNL     1      46.432   7.551  12.451  0.00  0.00    +0.000 A 
ATOM      7  C   UNL     1      45.142   7.654  11.904  0.00  0.00    +0.000 A 
ATOM      8  C   UNL     1      44.437   6.449  11.696  0.00  0.00    +0.000 A 
BRANCH   7   9
ATOM      9  C   UNL     1      44.556   8.969  11.559  0.00  0.00    +0.000 A 
ATOM     10  C   UNL     1      43.453   9.094  10.699  0.00  0.00    +0.000 A 
ATOM     11  C   UNL     1      42.925  10.348  10.390  0.00  0.00    +0.000 A 
ATOM     12  C   UNL     1      43.510  11.465  10.956  0.00  0.00    +0.000 A 
ATOM     13  N   UNL     1      44.567  11.407  11.788  0.00  0.00    +0.000 NA
ATOM     14  C   UNL     1      45.061  10.171  12.062  0.00  0.00    +0.000 A 
ENDBRANCH   7   9
ENDBRANCH   1   2
BRANCH   1  15
ATOM     15  N   UNL     1      43.732   3.897  10.389  0.00  0.00    +0.000 N 
ATOM     16  H   UNL     1      43.368   4.804  10.109  0.00  0.00    +0.000 HD
BRANCH  15  20
ATOM     17  C   UNL     1      46.492   2.762   7.556  0.00  0.00    +0.000 A 
ATOM     18  C   UNL     1      45.906   1.819   8.386  0.00  0.00    +0.000 A 
ATOM     19  N   UNL     1      44.990   2.147   9.340  0.00  0.00    +0.000 NA
ATOM     20  C   UNL     1      44.675   3.455   9.448  0.00  0.00    +0.000 A 
ATOM     21  C   UNL     1      45.265   4.389   8.583  0.00  0.00    +0.000 A 
ATOM     22  N   UNL     1      46.186   4.084   7.631  0.00  0.00    +0.000 NA
BRANCH  17  24
ATOM     23  N   UNL     1      47.513   3.071   5.382  0.00  0.00    +0.000 N 
ATOM     24  C   UNL     1      47.499   2.344   6.543  0.00  0.00    +0.000 C 
ATOM     25  O   UNL     1      48.272   1.413   6.733  0.00  0.00    +0.000 OA
ATOM     26  H   UNL     1      48.174   2.840   4.655  0.00  0.00    +0.000 HD
ATOM     27  H   UNL     1      46.862   3.840   5.258  0.00  0.00    +0.000 HD
ENDBRANCH  17  24
ENDBRANCH  15  20
ENDBRANCH   1  15
TORSDOF 5
ENDMDL
MODEL 4
REMARK VINA RESULT:    -7.943      2.278      2.856
REMARK INTER + INTRA:         -10.911
REMARK INTER:                 -10.251
REMARK INTRA:                  -0.660
REMARK UNBOUND:                -0.646
REMARK  Name = 
REMARK  5 active torsions:
REMARK  status: ('A' for Active; 'I' for Inactive)
REMARK    1  A    between atoms: C_2  and  C_4
REMARK    2  A    between atoms: C_7  and  N_8
REMARK    3  A    between atoms: N_8  and  C_9
REMARK    4  A    between atoms: C_9  and  C_10
REMARK    5  A    between atoms: C_15  and  C_16
REMARK                            x       y       z     vdW  Elec       q    Type
REMARK                         _______ _______ _______ _____ _____    ______ ____
ROOT
ATOM      1  C   UNL     1      44.255   3.994  11.742  0.00  0.00    +0.000 C 
ENDROOT
BRANCH   1   2
ATOM      2  C   UNL     1      44.817   5.394  11.885  0.00  0.00    +0.000 A 
ATOM      3  C   UNL     1      44.109   6.499  11.405  0.00  0.00    +0.000 A 
ATOM      4  C   UNL     1      44.646   7.772  11.539  0.00  0.00    +0.000 A 
ATOM      5  F   UNL     1      43.959   8.826  11.078  0.00  0.00    +0.000 F 
ATOM      6  C   UNL     1      45.883   7.977  12.143  0.00  0.00    +0.000 A 
ATOM      7  C   UNL     1      46.627   6.898  12.649  0.00  0.00    +0.000 A 
ATOM      8  C   UNL     1      46.070   5.610  12.501  0.00  0.00    +0.000 A 
BRANCH   7   9
ATOM      9  C   UNL     1      47.936   7.110  13.310  0.00  0.00    +0.000 A 
ATOM     10  C   UNL     1      48.933   7.925  12.751  0.00  0.00    +0.000 A 
ATOM     11  C   UNL     1      50.157   8.101  13.396  0.00  0.00    +0.000 A 
ATOM     12  C   UNL     1      50.364   7.458  14.602  0.00  0.00    +0.000 A 
ATOM     13  N   UNL     1      49.445   6.665  15.185  0.00  0.00    +0.000 NA
ATOM     14  C   UNL     1      48.267   6.510  14.527  0.00  0.00    +0.000 A 
ENDBRANCH   7   9
ENDBRANCH   1   2
BRANCH   1  15
ATOM     15  N   UNL     1      43.734   3.830  10.391  0.00  0.00    +0.000 N 
ATOM     16  H   UNL     1      43.269   4.675  10.068  0.00  0.00    +0.000 HD
BRANCH  15  20
ATOM     17  C   UNL     1      46.469   2.763   7.506  0.00  0.00    +0.000 A 
ATOM     18  C   UNL     1      45.961   1.815   8.380  0.00  0.00    +0.000 A 
ATOM     19  N   UNL     1      45.056   2.121   9.353  0.00  0.00    +0.000 NA
ATOM     20  C   UNL     1      44.672   3.413   9.433  0.00  0.00    +0.000 A 
ATOM     21  C   UNL     1      45.184   4.351   8.525  0.00  0.00    +0.000 A 
ATOM     22  N   UNL     1      46.092   4.068   7.554  0.00  0.00    +0.000 NA
BRANCH  17  24
ATOM     23  N   UNL     1      47.375   3.028   5.277  0.00  0.00    +0.000 N 
ATOM     24  C   UNL     1      47.467   2.371   6.476  0.00  0.00    +0.000 C 
ATOM     25  O   UNL     1      48.323   1.520   6.682  0.00  0.00    +0.000 OA
ATOM     26  H   UNL     1      48.024   2.811   4.536  0.00  0.00    +0.000 HD
ATOM     27  H   UNL     1      46.657   3.732   5.139  0.00  0.00    +0.000 HD
ENDBRANCH  17  24
ENDBRANCH  15  20
ENDBRANCH   1  15
TORSDOF 5
ENDMDL
MODEL 5
REMARK VINA RESULT:    -7.817      3.846      7.053
REMARK INTER + INTRA:         -10.748
REMARK INTER:                 -10.492
REMARK INTRA:                  -0.256
REMARK UNBOUND:                -0.646
REMARK  Name = 
REMARK  5 active torsions:
REMARK  status: ('A' for Active; 'I' for Inactive)
REMARK    1  A    between atoms: C_2  and  C_4
REMARK    2  A    between atoms: C_7  and  N_8
REMARK    3  A    between atoms: N_8  and  C_9
REMARK    4  A    between atoms: C_9  and  C_10
REMARK    5  A    between atoms: C_15  and  C_16
REMARK                            x       y       z     vdW  Elec       q    Type
REMARK                         _______ _______ _______ _____ _____    ______ ____
ROOT
ATOM      1  C   UNL     1      46.276   7.271  12.159  0.00  0.00    +0.000 C 
ENDROOT
BRANCH   1   2
ATOM      2  C   UNL     1      45.371   6.282  11.451  0.00  0.00    +0.000 A 
ATOM      3  C   UNL     1      44.008   6.221  11.754  0.00  0.00    +0.000 A 
ATOM      4  C   UNL     1      43.198   5.303  11.099  0.00  0.00    +0.000 A 
ATOM      5  F   UNL     1      41.892   5.252  11.394  0.00  0.00    +0.000 F 
ATOM      6  C   UNL     1      43.715   4.433  10.143  0.00  0.00    +0.000 A 
ATOM      7  C   UNL     1      45.077   4.463   9.800  0.00  0.00    +0.000 A 
ATOM      8  C   UNL     1      45.888   5.400  10.477  0.00  0.00    +0.000 A 
BRANCH   7   9
ATOM      9  C   UNL     1      45.631   3.554   8.771  0.00  0.00    +0.000 A 
ATOM     10  C   UNL     1      46.215   4.032   7.587  0.00  0.00    +0.000 A 
ATOM     11  C   UNL     1      46.725   3.151   6.633  0.00  0.00    +0.000 A 
ATOM     12  C   UNL     1      46.646   1.794   6.885  0.00  0.00    +0.000 A 
ATOM     13  N   UNL     1      46.099   1.277   8.001  0.00  0.00    +0.000 NA
ATOM     14  C   UNL     1      45.606   2.164   8.905  0.00  0.00    +0.000 A 
ENDBRANCH   7   9
ENDBRANCH   1   2
BRANCH   1  15
ATOM     15  N   UNL     1      47.549   6.622  12.449  0.00  0.00    +0.000 N 
ATOM     16  H   UNL     1      48.314   7.291  12.455  0.00  0.00    +0.000 HD
BRANCH  15  20
ATOM     17  C   UNL     1      47.510   4.292  15.841  0.00  0.00    +0.000 A 
ATOM     18  C   UNL     1      48.189   5.500  15.825  0.00  0.00    +0.000 A 
ATOM     19  N   UNL     1      48.233   6.304  14.725  0.00  0.00    +0.000 NA
ATOM     20  C   UNL     1      47.578   5.863  13.630  0.00  0.00    +0.000 A 
ATOM     21  C   UNL     1      46.880   4.647  13.677  0.00  0.00    +0.000 A 
ATOM     22  N   UNL     1      46.830   3.827  14.760  0.00  0.00    +0.000 NA
BRANCH  17  24
ATOM     23  N   UNL     1      48.722   3.320  17.698  0.00  0.00    +0.000 N 
ATOM     24  C   UNL     1      47.513   3.450  17.068  0.00  0.00    +0.000 C 
ATOM     25  O   UNL     1      46.500   2.909  17.495  0.00  0.00    +0.000 OA
ATOM     26  H   UNL     1      48.792   2.763  18.537  0.00  0.00    +0.000 HD
ATOM     27  H   UNL     1      49.542   3.784  17.321  0.00  0.00    +0.000 HD
ENDBRANCH  17  24
ENDBRANCH  15  20
ENDBRANCH   1  15
TORSDOF 5
ENDMDL
MODEL 6
REMARK VINA RESULT:    -7.783      3.298      7.054
REMARK INTER + INTRA:         -10.703
REMARK INTER:                 -10.071
REMARK INTRA:                  -0.633
REMARK UNBOUND:                -0.646
REMARK  Name = 
REMARK  5 active torsions:
REMARK  status: ('A' for Active; 'I' for Inactive)
REMARK    1  A    between atoms: C_2  and  C_4
REMARK    2  A    between atoms: C_7  and  N_8
REMARK    3  A    between atoms: N_8  and  C_9
REMARK    4  A    between atoms: C_9  and  C_10
REMARK    5  A    between atoms: C_15  and  C_16
REMARK                            x       y       z     vdW  Elec       q    Type
REMARK                         _______ _______ _______ _____ _____    ______ ____
ROOT
ATOM      1  C   UNL     1      44.762   6.610  11.108  0.00  0.00    +0.000 C 
ENDROOT
BRANCH   1   2
ATOM      2  C   UNL     1      44.630   5.153  10.710  0.00  0.00    +0.000 A 
ATOM      3  C   UNL     1      43.803   4.289  11.434  0.00  0.00    +0.000 A 
ATOM      4  C   UNL     1      43.704   2.956  11.058  0.00  0.00    +0.000 A 
ATOM      5  F   UNL     1      42.908   2.135  11.755  0.00  0.00    +0.000 F 
ATOM      6  C   UNL     1      44.414   2.455   9.971  0.00  0.00    +0.000 A 
ATOM      7  C   UNL     1      45.251   3.287   9.209  0.00  0.00    +0.000 A 
ATOM      8  C   UNL     1      45.345   4.639   9.606  0.00  0.00    +0.000 A 
BRANCH   7   9
ATOM      9  C   UNL     1      45.996   2.766   8.039  0.00  0.00    +0.000 A 
ATOM     10  C   UNL     1      46.261   3.556   6.909  0.00  0.00    +0.000 A 
ATOM     11  C   UNL     1      46.962   3.036   5.821  0.00  0.00    +0.000 A 
ATOM     12  C   UNL     1      47.394   1.724   5.884  0.00  0.00    +0.000 A 
ATOM     13  N   UNL     1      47.170   0.920   6.941  0.00  0.00    +0.000 NA
ATOM     14  C   UNL     1      46.478   1.457   7.980  0.00  0.00    +0.000 A 
ENDBRANCH   7   9
ENDBRANCH   1   2
BRANCH   1  15
ATOM     15  N   UNL     1      44.953   6.690  12.551  0.00  0.00    +0.000 N 
ATOM     16  H   UNL     1      44.635   5.844  13.014  0.00  0.00    +0.000 HD
BRANCH  15  20
ATOM     17  C   UNL     1      48.818   7.402  13.773  0.00  0.00    +0.000 A 
ATOM     18  C   UNL     1      47.892   8.433  13.728  0.00  0.00    +0.000 A 
ATOM     19  N   UNL     1      46.603   8.247  13.328  0.00  0.00    +0.000 NA
ATOM     20  C   UNL     1      46.260   6.992  12.965  0.00  0.00    +0.000 A 
ATOM     21  C   UNL     1      47.208   5.961  13.038  0.00  0.00    +0.000 A 
ATOM     22  N   UNL     1      48.500   6.127  13.427  0.00  0.00    +0.000 NA
BRANCH  17  24
ATOM     23  N   UNL     1      51.104   7.954  13.198  0.00  0.00    +0.000 N 
ATOM     24  C   UNL     1      50.217   7.672  14.203  0.00  0.00    +0.000 C 
ATOM     25  O   UNL     1      50.557   7.650  15.379  0.00  0.00    +0.000 OA
ATOM     26  H   UNL     1      52.069   8.148  13.422  0.00  0.00    +0.000 HD
ATOM     27  H   UNL     1      50.790   7.969  12.233  0.00  0.00    +0.000 HD
ENDBRANCH  17  24
ENDBRANCH  15  20
ENDBRANCH   1  15
TORSDOF 5
ENDMDL
MODEL 7
REMARK VINA RESULT:    -7.448      4.997      8.092
REMARK INTER + INTRA:         -10.271
REMARK INTER:                  -9.766
REMARK INTRA:                  -0.505
REMARK UNBOUND:                -0.646
REMARK  Name = 
REMARK  5 active torsions:
REMARK  status: ('A' for Active; 'I' for Inactive)
REMARK    1  A    between atoms: C_2  and  C_4
REMARK    2  A    between atoms: C_7  and  N_8
REMARK    3  A    between atoms: N_8  and  C_9
REMARK    4  A    between atoms: C_9  and  C_10
REMARK    5  A    between atoms: C_15  and  C_16
REMARK                            x       y       z     vdW  Elec       q    Type
REMARK                         _______ _______ _______ _____ _____    ______ ____
ROOT
ATOM      1  C   UNL     1      46.119   5.357  13.948  0.00  0.00    +0.000 C 
ENDROOT
BRANCH   1   2
ATOM      2  C   UNL     1      45.210   5.105  12.761  0.00  0.00    +0.000 A 
ATOM      3  C   UNL     1      43.870   5.501  12.793  0.00  0.00    +0.000 A 
ATOM      4  C   UNL     1      43.053   5.253  11.698  0.00  0.00    +0.000 A 
ATOM      5  F   UNL     1      41.770   5.637  11.736  0.00  0.00    +0.000 F 
ATOM      6  C   UNL     1      43.539   4.613  10.561  0.00  0.00    +0.000 A 
ATOM      7  C   UNL     1      44.881   4.204  10.481  0.00  0.00    +0.000 A 
ATOM      8  C   UNL     1      45.698   4.460  11.603  0.00  0.00    +0.000 A 
BRANCH   7   9
ATOM      9  C   UNL     1      45.410   3.540   9.267  0.00  0.00    +0.000 A 
ATOM     10  C   UNL     1      45.873   4.266   8.158  0.00  0.00    +0.000 A 
ATOM     11  C   UNL     1      46.362   3.611   7.028  0.00  0.00    +0.000 A 
ATOM     12  C   UNL     1      46.386   2.230   7.027  0.00  0.00    +0.000 A 
ATOM     13  N   UNL     1      45.957   1.481   8.061  0.00  0.00    +0.000 NA
ATOM     14  C   UNL     1      45.481   2.150   9.143  0.00  0.00    +0.000 A 
ENDBRANCH   7   9
ENDBRANCH   1   2
BRANCH   1  15
ATOM     15  N   UNL     1      46.603   4.078  14.453  0.00  0.00    +0.000 N 
ATOM     16  H   UNL     1      47.215   3.622  13.782  0.00  0.00    +0.000 HD
BRANCH  15  20
ATOM     17  C   UNL     1      48.540   4.366  18.072  0.00  0.00    +0.000 A 
ATOM     18  C   UNL     1      47.757   3.260  17.779  0.00  0.00    +0.000 A 
ATOM     19  N   UNL     1      47.095   3.121  16.596  0.00  0.00    +0.000 NA
ATOM     20  C   UNL     1      47.232   4.128  15.707  0.00  0.00    +0.000 A 
ATOM     21  C   UNL     1      48.046   5.228  16.018  0.00  0.00    +0.000 A 
ATOM     22  N   UNL     1      48.708   5.389  17.194  0.00  0.00    +0.000 NA
BRANCH  17  24
ATOM     23  N   UNL     1      48.552   3.930  20.454  0.00  0.00    +0.000 N 
ATOM     24  C   UNL     1      49.225   4.468  19.389  0.00  0.00    +0.000 C 
ATOM     25  O   UNL     1      50.324   4.993  19.517  0.00  0.00    +0.000 OA
ATOM     26  H   UNL     1      48.963   3.965  21.375  0.00  0.00    +0.000 HD
ATOM     27  H   UNL     1      47.645   3.498  20.313  0.00  0.00    +0.000 HD
ENDBRANCH  17  24
ENDBRANCH  15  20
ENDBRANCH   1  15
TORSDOF 5
ENDMDL
MODEL 8
REMARK VINA RESULT:    -6.859      5.441      7.881
REMARK INTER + INTRA:          -9.510
REMARK INTER:                  -8.824
REMARK INTRA:                  -0.685
REMARK UNBOUND:                -0.646
REMARK  Name = 
REMARK  5 active torsions:
REMARK  status: ('A' for Active; 'I' for Inactive)
REMARK    1  A    between atoms: C_2  and  C_4
REMARK    2  A    between atoms: C_7  and  N_8
REMARK    3  A    between atoms: N_8  and  C_9
REMARK    4  A    between atoms: C_9  and  C_10
REMARK    5  A    between atoms: C_15  and  C_16
REMARK                            x       y       z     vdW  Elec       q    Type
REMARK                         _______ _______ _______ _____ _____    ______ ____
ROOT
ATOM      1  C   UNL     1      48.695   6.606  15.886  0.00  0.00    +0.000 C 
ENDROOT
BRANCH   1   2
ATOM      2  C   UNL     1      48.235   6.638  14.442  0.00  0.00    +0.000 A 
ATOM      3  C   UNL     1      48.900   7.429  13.500  0.00  0.00    +0.000 A 
ATOM      4  C   UNL     1      48.457   7.450  12.185  0.00  0.00    +0.000 A 
ATOM      5  F   UNL     1      49.100   8.209  11.288  0.00  0.00    +0.000 F 
ATOM      6  C   UNL     1      47.359   6.698  11.777  0.00  0.00    +0.000 A 
ATOM      7  C   UNL     1      46.665   5.882  12.686  0.00  0.00    +0.000 A 
ATOM      8  C   UNL     1      47.124   5.875  14.021  0.00  0.00    +0.000 A 
BRANCH   7   9
ATOM      9  C   UNL     1      45.507   5.064  12.257  0.00  0.00    +0.000 A 
ATOM     10  C   UNL     1      45.021   5.090  10.940  0.00  0.00    +0.000 A 
ATOM     11  C   UNL     1      43.925   4.311  10.567  0.00  0.00    +0.000 A 
ATOM     12  C   UNL     1      43.333   3.508  11.524  0.00  0.00    +0.000 A 
ATOM     13  N   UNL     1      43.756   3.442  12.800  0.00  0.00    +0.000 NA
ATOM     14  C   UNL     1      44.820   4.218  13.131  0.00  0.00    +0.000 A 
ENDBRANCH   7   9
ENDBRANCH   1   2
BRANCH   1  15
ATOM     15  N   UNL     1      48.145   5.420  16.530  0.00  0.00    +0.000 N 
ATOM     16  H   UNL     1      47.368   5.036  16.000  0.00  0.00    +0.000 HD
BRANCH  15  20
ATOM     17  C   UNL     1      50.993   2.566  17.357  0.00  0.00    +0.000 A 
ATOM     18  C   UNL     1      49.744   2.197  16.883  0.00  0.00    +0.000 A 
ATOM     19  N   UNL     1      48.769   3.105  16.598  0.00  0.00    +0.000 NA
ATOM     20  C   UNL     1      49.075   4.404  16.806  0.00  0.00    +0.000 A 
ATOM     21  C   UNL     1      50.353   4.755  17.266  0.00  0.00    +0.000 A 
ATOM     22  N   UNL     1      51.336   3.865  17.563  0.00  0.00    +0.000 NA
BRANCH  17  24
ATOM     23  N   UNL     1      51.521   0.313  18.067  0.00  0.00    +0.000 N 
ATOM     24  C   UNL     1      52.012   1.527  17.666  0.00  0.00    +0.000 C 
ATOM     25  O   UNL     1      53.215   1.737  17.564  0.00  0.00    +0.000 OA
ATOM     26  H   UNL     1      52.159  -0.437  18.290  0.00  0.00    +0.000 HD
ATOM     27  H   UNL     1      50.519   0.170  18.137  0.00  0.00    +0.000 HD
ENDBRANCH  17  24
ENDBRANCH  15  20
ENDBRANCH   1  15
TORSDOF 5
ENDMDL
MODEL 9
REMARK VINA RESULT:    -6.503      5.059      7.906
REMARK INTER + INTRA:          -9.050
REMARK INTER:                  -8.522
REMARK INTRA:                  -0.528
REMARK UNBOUND:                -0.646
REMARK  Name = 
REMARK  5 active torsions:
REMARK  status: ('A' for Active; 'I' for Inactive)
REMARK    1  A    between atoms: C_2  and  C_4
REMARK    2  A    between atoms: C_7  and  N_8
REMARK    3  A    between atoms: N_8  and  C_9
REMARK    4  A    between atoms: C_9  and  C_10
REMARK    5  A    between atoms: C_15  and  C_16
REMARK                            x       y       z     vdW  Elec       q    Type
REMARK                         _______ _______ _______ _____ _____    ______ ____
ROOT
ATOM      1  C   UNL     1      48.581   7.283  13.838  0.00  0.00    +0.000 C 
ENDROOT
BRANCH   1   2
ATOM      2  C   UNL     1      47.308   7.363  13.019  0.00  0.00    +0.000 A 
ATOM      3  C   UNL     1      46.501   8.503  13.066  0.00  0.00    +0.000 A 
ATOM      4  C   UNL     1      45.336   8.552  12.314  0.00  0.00    +0.000 A 
ATOM      5  F   UNL     1      44.568   9.649  12.362  0.00  0.00    +0.000 F 
ATOM      6  C   UNL     1      44.946   7.484  11.509  0.00  0.00    +0.000 A 
ATOM      7  C   UNL     1      45.730   6.321  11.424  0.00  0.00    +0.000 A 
ATOM      8  C   UNL     1      46.910   6.285  12.198  0.00  0.00    +0.000 A 
BRANCH   7   9
ATOM      9  C   UNL     1      45.333   5.188  10.557  0.00  0.00    +0.000 A 
ATOM     10  C   UNL     1      45.702   5.118   9.204  0.00  0.00    +0.000 A 
ATOM     11  C   UNL     1      45.309   4.039   8.410  0.00  0.00    +0.000 A 
ATOM     12  C   UNL     1      44.552   3.039   8.990  0.00  0.00    +0.000 A 
ATOM     13  N   UNL     1      44.169   3.052  10.281  0.00  0.00    +0.000 NA
ATOM     14  C   UNL     1      44.563   4.120  11.023  0.00  0.00    +0.000 A 
ENDBRANCH   7   9
ENDBRANCH   1   2
BRANCH   1  15
ATOM     15  N   UNL     1      48.229   7.177  15.249  0.00  0.00    +0.000 N 
ATOM     16  H   UNL     1      47.233   7.014  15.371  0.00  0.00    +0.000 HD
BRANCH  15  20
ATOM     17  C   UNL     1      50.510   4.469  17.345  0.00  0.00    +0.000 A 
ATOM     18  C   UNL     1      49.173   4.212  17.088  0.00  0.00    +0.000 A 
ATOM     19  N   UNL     1      48.377   5.080  16.401  0.00  0.00    +0.000 NA
ATOM     20  C   UNL     1      48.957   6.223  15.978  0.00  0.00    +0.000 A 
ATOM     21  C   UNL     1      50.318   6.452  16.232  0.00  0.00    +0.000 A 
ATOM     22  N   UNL     1      51.126   5.604  16.921  0.00  0.00    +0.000 NA
BRANCH  17  24
ATOM     23  N   UNL     1      51.078   2.169  17.848  0.00  0.00    +0.000 N 
ATOM     24  C   UNL     1      51.324   3.490  18.116  0.00  0.00    +0.000 C 
ATOM     25  O   UNL     1      52.166   3.837  18.934  0.00  0.00    +0.000 OA
ATOM     26  H   UNL     1      51.597   1.454  18.335  0.00  0.00    +0.000 HD
ATOM     27  H   UNL     1      50.376   1.914  17.160  0.00  0.00    +0.000 HD
ENDBRANCH  17  24
ENDBRANCH  15  20
ENDBRANCH   1  15
TORSDOF 5
ENDMDL
