MODEL 1
REMARK VINA RESULT:    -8.004      0.000      0.000
REMARK INTER + INTRA:         -11.310
REMARK INTER:                 -10.578
REMARK INTRA:                  -0.732
REMARK UNBOUND:                -0.732
REMARK  Name = 
REMARK  7 active torsions:
REMARK  status: ('A' for Active; 'I' for Inactive)
REMARK    1  A    between atoms: C_1  and  C_2
REMARK    2  A    between atoms: C_2  and  C_3
REMARK    3  A    between atoms: C_2  and  C_15
REMARK    4  A    between atoms: C_3  and  N_4
REMARK    5  A    between atoms: N_4  and  C_5
REMARK    6  A    between atoms: C_8  and  C_9
REMARK    7  A    between atoms: C_19  and  O_20
REMARK                            x       y       z     vdW  Elec       q    Type
REMARK                         _______ _______ _______ _____ _____    ______ ____
ROOT
ATOM      1  N   UNL     1      43.940   5.066   9.996  0.00  0.00    +0.000 N 
ATOM      2  H   UNL     1      43.408   5.641   9.335  0.00  0.00    +0.000 HD
ENDROOT
BRANCH   1   3
ATOM      3  C   UNL     1      44.788   4.232   9.246  0.00  0.00    +0.000 A 
ATOM      4  N   UNL     1      45.595   4.790   8.313  0.00  0.00    +0.000 NA
ATOM      5  C   UNL     1      46.406   3.976   7.596  0.00  0.00    +0.000 A 
ATOM      6  C   UNL     1      46.490   2.606   7.773  0.00  0.00    +0.000 A 
ATOM      7  C   UNL     1      45.680   2.035   8.756  0.00  0.00    +0.000 A 
ATOM      8  C   UNL     1      44.817   2.848   9.493  0.00  0.00    +0.000 A 
ATOM      9 CL   UNL     1      43.811   2.110  10.689  0.00  0.00    +0.000 Cl
BRANCH   6  10
ATOM     10  C   UNL     1      47.394   1.738   6.985  0.00  0.00    +0.000 C 
ATOM     11  N   UNL     1      48.469   2.297   6.349  0.00  0.00    +0.000 N 
ATOM     12  O   UNL     1      47.184   0.534   6.888  0.00  0.00    +0.000 OA
ATOM     13  H   UNL     1      48.707   3.273   6.324  0.00  0.00    +0.000 HD
ATOM     14  H   UNL     1      49.044   1.663   5.808  0.00  0.00    +0.000 HD
ENDBRANCH   6  10
ENDBRANCH   1   3
BRANCH   1  15
ATOM     15  C   UNL     1      44.629   5.938  10.935  0.00  0.00    +0.000 C 
BRANCH  15  17
ATOM     16  C   UNL     1      43.242   4.985  12.882  0.00  0.00    +0.000 C 
ATOM     17  C   UNL     1      44.579   5.282  12.284  0.00  0.00    +0.000 C 
BRANCH  17  18
ATOM     18  C   UNL     1      45.740   5.451  13.159  0.00  0.00    +0.000 A 
ATOM     19  C   UNL     1      46.615   6.523  13.047  0.00  0.00    +0.000 A 
ATOM     20  C   UNL     1      47.724   6.568  13.892  0.00  0.00    +0.000 A 
ATOM     21  C   UNL     1      47.927   5.540  14.809  0.00  0.00    +0.000 A 
ATOM     22  C   UNL     1      47.002   4.515  14.843  0.00  0.00    +0.000 A 
ATOM     23  N   UNL     1      45.923   4.452  14.052  0.00  0.00    +0.000 NA
BRANCH  22  24
ATOM     24  O   UNL     1      47.129   3.462  15.697  0.00  0.00    +0.000 OA
ATOM     25  H   UNL     1      47.939   2.985  15.466  0.00  0.00    +0.000 HD
ENDBRANCH  22  24
ENDBRANCH  17  18
ENDBRANCH  15  17
ENDBRANCH   1  15
TORSDOF 6
ENDMDL
MODEL 2
REMARK VINA RESULT:    -7.577      2.139      2.576
REMARK INTER + INTRA:         -10.745
REMARK INTER:                 -10.441
REMARK INTRA:                  -0.304
REMARK UNBOUND:                -0.732
REMARK  Name = 
REMARK  7 active torsions:
REMARK  status: ('A' for Active; 'I' for Inactive)
REMARK    1  A    between atoms: C_1  and  C_2
REMARK    2  A    between atoms: C_2  and  C_3
REMARK    3  A    between atoms: C_2  and  C_15
REMARK    4  A    between atoms: C_3  and  N_4
REMARK    5  A    between atoms: N_4  and  C_5
REMARK    6  A    between atoms: C_8  and  C_9
REMARK    7  A    between atoms: C_19  and  O_20
REMARK                            x       y       z     vdW  Elec       q    Type
REMARK                         _______ _______ _______ _____ _____    ______ ____
ROOT
ATOM      1  N   UNL     1      44.330   5.329  10.027  0.00  0.00    +0.000 N 
ATOM      2  H   UNL     1      44.745   6.255   9.882  0.00  0.00    +0.000 HD
ENDROOT
BRANCH   1   3
ATOM      3  C   UNL     1      45.066   4.409   9.260  0.00  0.00    +0.000 A 
ATOM      4  N   UNL     1      45.966   4.878   8.364  0.00  0.00    +0.000 NA
ATOM      5  C   UNL     1      46.667   3.982   7.629  0.00  0.00    +0.000 A 
ATOM      6  C   UNL     1      46.549   2.608   7.754  0.00  0.00    +0.000 A 
ATOM      7  C   UNL     1      45.643   2.126   8.700  0.00  0.00    +0.000 A 
ATOM      8  C   UNL     1      44.890   3.028   9.453  0.00  0.00    +0.000 A 
ATOM      9 CL   UNL     1      43.762   2.400  10.602  0.00  0.00    +0.000 Cl
BRANCH   6  10
ATOM     10  C   UNL     1      47.336   1.648   6.948  0.00  0.00    +0.000 C 
ATOM     11  N   UNL     1      48.374   2.110   6.185  0.00  0.00    +0.000 N 
ATOM     12  O   UNL     1      47.063   0.453   6.949  0.00  0.00    +0.000 OA
ATOM     13  H   UNL     1      48.653   3.069   6.075  0.00  0.00    +0.000 HD
ATOM     14  H   UNL     1      48.867   1.415   5.638  0.00  0.00    +0.000 HD
ENDBRANCH   6  10
ENDBRANCH   1   3
BRANCH   1  15
ATOM     15  C   UNL     1      44.305   5.040  11.453  0.00  0.00    +0.000 C 
BRANCH  15  17
ATOM     16  C   UNL     1      46.279   4.238  12.896  0.00  0.00    +0.000 C 
ATOM     17  C   UNL     1      45.688   5.266  11.987  0.00  0.00    +0.000 C 
BRANCH  17  18
ATOM     18  C   UNL     1      46.168   6.648  12.053  0.00  0.00    +0.000 A 
ATOM     19  C   UNL     1      47.504   6.988  11.888  0.00  0.00    +0.000 A 
ATOM     20  C   UNL     1      47.871   8.327  12.021  0.00  0.00    +0.000 A 
ATOM     21  C   UNL     1      46.899   9.276  12.324  0.00  0.00    +0.000 A 
ATOM     22  C   UNL     1      45.596   8.840  12.471  0.00  0.00    +0.000 A 
ATOM     23  N   UNL     1      45.214   7.564  12.338  0.00  0.00    +0.000 NA
BRANCH  22  24
ATOM     24  O   UNL     1      44.584   9.696  12.781  0.00  0.00    +0.000 OA
ATOM     25  H   UNL     1      43.835   9.496  12.201  0.00  0.00    +0.000 HD
ENDBRANCH  22  24
ENDBRANCH  17  18
ENDBRANCH  15  17
ENDBRANCH   1  15
TORSDOF 6
ENDMDL
MODEL 3
REMARK VINA RESULT:    -7.573      1.855      6.572
REMARK INTER + INTRA:         -10.740
REMARK INTER:                 -10.279
REMARK INTRA:                  -0.461
REMARK UNBOUND:                -0.732
REMARK  Name = 
REMARK  7 active torsions:
REMARK  status: ('A' for Active; 'I' for Inactive)
REMARK    1  A    between atoms: C_1  and  C_2
REMARK    2  A    between atoms: C_2  and  C_3
REMARK    3  A    between atoms: C_2  and  C_15
REMARK    4  A    between atoms: C_3  and  N_4
REMARK    5  A    between atoms: N_4  and  C_5
REMARK    6  A    between atoms: C_8  and  C_9
REMARK    7  A    between atoms: C_19  and  O_20
REMARK                            x       y       z     vdW  Elec       q    Type
REMARK                         _______ _______ _______ _____ _____    ______ ____
ROOT
ATOM      1  N   UNL     1      44.711   5.442  10.535  0.00  0.00    +0.000 N 
ATOM      2  H   UNL     1      44.028   4.722  10.789  0.00  0.00    +0.000 HD
ENDROOT
BRANCH   1   3
ATOM      3  C   UNL     1      45.595   5.590  11.619  0.00  0.00    +0.000 A 
ATOM      4  N   UNL     1      46.719   6.325  11.450  0.00  0.00    +0.000 NA
ATOM      5  C   UNL     1      47.563   6.460  12.500  0.00  0.00    +0.000 A 
ATOM      6  C   UNL     1      47.339   5.918  13.755  0.00  0.00    +0.000 A 
ATOM      7  C   UNL     1      46.165   5.186  13.936  0.00  0.00    +0.000 A 
ATOM      8  C   UNL     1      45.290   5.012  12.863  0.00  0.00    +0.000 A 
ATOM      9 CL   UNL     1      43.854   4.083  13.114  0.00  0.00    +0.000 Cl
BRANCH   6  10
ATOM     10  C   UNL     1      48.272   6.088  14.891  0.00  0.00    +0.000 C 
ATOM     11  N   UNL     1      47.911   5.620  16.125  0.00  0.00    +0.000 N 
ATOM     12  O   UNL     1      49.351   6.649  14.741  0.00  0.00    +0.000 OA
ATOM     13  H   UNL     1      47.037   5.189  16.369  0.00  0.00    +0.000 HD
ATOM     14  H   UNL     1      48.577   5.778  16.873  0.00  0.00    +0.000 HD
ENDBRANCH   6  10
ENDBRANCH   1   3
BRANCH   1  15
ATOM     15  C   UNL     1      45.351   5.067   9.283  0.00  0.00    +0.000 C 
BRANCH  15  17
ATOM     16  C   UNL     1      44.140   2.908   9.987  0.00  0.00    +0.000 C 
ATOM     17  C   UNL     1      45.003   3.634   9.007  0.00  0.00    +0.000 C 
BRANCH  17  18
ATOM     18  C   UNL     1      45.909   2.876   8.142  0.00  0.00    +0.000 A 
ATOM     19  C   UNL     1      46.586   3.451   7.076  0.00  0.00    +0.000 A 
ATOM     20  C   UNL     1      47.385   2.634   6.276  0.00  0.00    +0.000 A 
ATOM     21  C   UNL     1      47.472   1.274   6.560  0.00  0.00    +0.000 A 
ATOM     22  C   UNL     1      46.759   0.794   7.642  0.00  0.00    +0.000 A 
ATOM     23  N   UNL     1      45.994   1.557   8.432  0.00  0.00    +0.000 NA
BRANCH  22  24
ATOM     24  O   UNL     1      46.774  -0.524   7.984  0.00  0.00    +0.000 OA
ATOM     25  H   UNL     1      47.221  -1.011   7.276  0.00  0.00    +0.000 HD
ENDBRANCH  22  24
ENDBRANCH  17  18
ENDBRANCH  15  17
ENDBRANCH   1  15
TORSDOF 6
ENDMDL
MODEL 4
REMARK VINA RESULT:    -7.174      2.300      2.650
REMARK INTER + INTRA:         -10.212
REMARK INTER:                  -9.543
REMARK INTRA:                  -0.669
REMARK UNBOUND:                -0.732
REMARK  Name = 
REMARK  7 active torsions:
REMARK  status: ('A' for Active; 'I' for Inactive)
REMARK    1  A    between atoms: C_1  and  C_2
REMARK    2  A    between atoms: C_2  and  C_3
REMARK    3  A    between atoms: C_2  and  C_15
REMARK    4  A    between atoms: C_3  and  N_4
REMARK    5  A    between atoms: N_4  and  C_5
REMARK    6  A    between atoms: C_8  and  C_9
REMARK    7  A    between atoms: C_19  and  O_20
REMARK                            x       y       z     vdW  Elec       q    Type
REMARK                         _______ _______ _______ _____ _____    ______ ____
ROOT
ATOM      1  N   UNL     1      44.293   3.185  10.815  0.00  0.00    +0.000 N 
ATOM      2  H   UNL     1      43.726   4.034  10.725  0.00  0.00    +0.000 HD
ENDROOT
BRANCH   1   3
ATOM      3  C   UNL     1      45.065   3.063   9.647  0.00  0.00    +0.000 A 
ATOM      4  N   UNL     1      45.316   1.827   9.156  0.00  0.00    +0.000 NA
ATOM      5  C   UNL     1      46.063   1.721   8.031  0.00  0.00    +0.000 A 
ATOM      6  C   UNL     1      46.565   2.801   7.324  0.00  0.00    +0.000 A 
ATOM      7  C   UNL     1      46.279   4.077   7.814  0.00  0.00    +0.000 A 
ATOM      8  C   UNL     1      45.532   4.212   8.986  0.00  0.00    +0.000 A 
ATOM      9 CL   UNL     1      45.212   5.804   9.578  0.00  0.00    +0.000 Cl
BRANCH   6  10
ATOM     10  C   UNL     1      47.369   2.662   6.089  0.00  0.00    +0.000 C 
ATOM     11  N   UNL     1      48.696   2.344   6.190  0.00  0.00    +0.000 N 
ATOM     12  O   UNL     1      46.863   2.835   4.986  0.00  0.00    +0.000 OA
ATOM     13  H   UNL     1      49.219   2.225   7.039  0.00  0.00    +0.000 HD
ATOM     14  H   UNL     1      49.205   2.279   5.316  0.00  0.00    +0.000 HD
ENDBRANCH   6  10
ENDBRANCH   1   3
BRANCH   1  15
ATOM     15  C   UNL     1      45.068   3.263  12.044  0.00  0.00    +0.000 C 
BRANCH  15  17
ATOM     16  C   UNL     1      43.100   4.639  12.968  0.00  0.00    +0.000 C 
ATOM     17  C   UNL     1      44.575   4.449  12.818  0.00  0.00    +0.000 C 
BRANCH  17  18
ATOM     18  C   UNL     1      45.466   5.606  12.920  0.00  0.00    +0.000 A 
ATOM     19  C   UNL     1      46.823   5.488  13.186  0.00  0.00    +0.000 A 
ATOM     20  C   UNL     1      47.579   6.652  13.317  0.00  0.00    +0.000 A 
ATOM     21  C   UNL     1      46.957   7.890  13.188  0.00  0.00    +0.000 A 
ATOM     22  C   UNL     1      45.601   7.906  12.925  0.00  0.00    +0.000 A 
ATOM     23  N   UNL     1      44.853   6.804  12.784  0.00  0.00    +0.000 NA
BRANCH  22  24
ATOM     24  O   UNL     1      44.908   9.071  12.798  0.00  0.00    +0.000 OA
ATOM     25  H   UNL     1      44.283   9.129  13.535  0.00  0.00    +0.000 HD
ENDBRANCH  22  24
ENDBRANCH  17  18
ENDBRANCH  15  17
ENDBRANCH   1  15
TORSDOF 6
ENDMDL
MODEL 5
REMARK VINA RESULT:    -7.055      2.388      6.798
REMARK INTER + INTRA:         -10.056
REMARK INTER:                  -9.260
REMARK INTRA:                  -0.795
REMARK UNBOUND:                -0.732
REMARK  Name = 
REMARK  7 active torsions:
REMARK  status: ('A' for Active; 'I' for Inactive)
REMARK    1  A    between atoms: C_1  and  C_2
REMARK    2  A    between atoms: C_2  and  C_3
REMARK    3  A    between atoms: C_2  and  C_15
REMARK    4  A    between atoms: C_3  and  N_4
REMARK    5  A    between atoms: N_4  and  C_5
REMARK    6  A    between atoms: C_8  and  C_9
REMARK    7  A    between atoms: C_19  and  O_20
REMARK                            x       y       z     vdW  Elec       q    Type
REMARK                         _______ _______ _______ _____ _____    ______ ____
ROOT
ATOM      1  N   UNL     1      46.241   5.867  11.125  0.00  0.00    +0.000 N 
ATOM      2  H   UNL     1      46.863   6.536  10.662  0.00  0.00    +0.000 HD
ENDROOT
BRANCH   1   3
ATOM      3  C   UNL     1      46.707   5.695  12.441  0.00  0.00    +0.000 A 
ATOM      4  N   UNL     1      46.227   4.664  13.174  0.00  0.00    +0.000 NA
ATOM      5  C   UNL     1      46.682   4.509  14.441  0.00  0.00    +0.000 A 
ATOM      6  C   UNL     1      47.635   5.321  15.031  0.00  0.00    +0.000 A 
ATOM      7  C   UNL     1      48.152   6.366  14.263  0.00  0.00    +0.000 A 
ATOM      8  C   UNL     1      47.682   6.562  12.964  0.00  0.00    +0.000 A 
ATOM      9 CL   UNL     1      48.327   7.876  12.046  0.00  0.00    +0.000 Cl
BRANCH   6  10
ATOM     10  C   UNL     1      48.125   5.125  16.414  0.00  0.00    +0.000 C 
ATOM     11  N   UNL     1      47.220   4.931  17.422  0.00  0.00    +0.000 N 
ATOM     12  O   UNL     1      49.325   5.144  16.665  0.00  0.00    +0.000 OA
ATOM     13  H   UNL     1      46.219   4.943  17.336  0.00  0.00    +0.000 HD
ATOM     14  H   UNL     1      47.607   4.821  18.351  0.00  0.00    +0.000 HD
ENDBRANCH   6  10
ENDBRANCH   1   3
BRANCH   1  15
ATOM     15  C   UNL     1      44.872   6.350  11.030  0.00  0.00    +0.000 C 
BRANCH  15  17
ATOM     16  C   UNL     1      42.857   4.813  11.480  0.00  0.00    +0.000 C 
ATOM     17  C   UNL     1      44.012   5.194  10.611  0.00  0.00    +0.000 C 
BRANCH  17  18
ATOM     18  C   UNL     1      44.612   4.192   9.729  0.00  0.00    +0.000 A 
ATOM     19  C   UNL     1      44.519   2.828   9.968  0.00  0.00    +0.000 A 
ATOM     20  C   UNL     1      45.171   1.954   9.099  0.00  0.00    +0.000 A 
ATOM     21  C   UNL     1      45.900   2.468   8.031  0.00  0.00    +0.000 A 
ATOM     22  C   UNL     1      45.935   3.841   7.876  0.00  0.00    +0.000 A 
ATOM     23  N   UNL     1      45.310   4.702   8.689  0.00  0.00    +0.000 NA
BRANCH  22  24
ATOM     24  O   UNL     1      46.635   4.432   6.869  0.00  0.00    +0.000 OA
ATOM     25  H   UNL     1      47.027   3.732   6.326  0.00  0.00    +0.000 HD
ENDBRANCH  22  24
ENDBRANCH  17  18
ENDBRANCH  15  17
ENDBRANCH   1  15
TORSDOF 6
ENDMDL
MODEL 6
REMARK VINA RESULT:    -6.972      2.011      2.169
REMARK INTER + INTRA:          -9.946
REMARK INTER:                  -9.258
REMARK INTRA:                  -0.687
REMARK UNBOUND:                -0.732
REMARK  Name = 
REMARK  7 active torsions:
REMARK  status: ('A' for Active; 'I' for Inactive)
REMARK    1  A    between atoms: C_1  and  C_2
REMARK    2  A    between atoms: C_2  and  C_3
REMARK    3  A    between atoms: C_2  and  C_15
REMARK    4  A    between atoms: C_3  and  N_4
REMARK    5  A    between atoms: N_4  and  C_5
REMARK    6  A    between atoms: C_8  and  C_9
REMARK    7  A    between atoms: C_19  and  O_20
REMARK                            x       y       z     vdW  Elec       q    Type
REMARK                         _______ _______ _______ _____ _____    ______ ____
ROOT
ATOM      1  N   UNL     1      44.365   5.315  10.001  0.00  0.00    +0.000 N 
ATOM      2  H   UNL     1      43.659   5.704   9.369  0.00  0.00    +0.000 HD
ENDROOT
BRANCH   1   3
ATOM      3  C   UNL     1      45.016   4.271   9.321  0.00  0.00    +0.000 A 
ATOM      4  N   UNL     1      45.873   4.579   8.320  0.00  0.00    +0.000 NA
ATOM      5  C   UNL     1      46.493   3.565   7.669  0.00  0.00    +0.000 A 
ATOM      6  C   UNL     1      46.333   2.226   7.982  0.00  0.00    +0.000 A 
ATOM      7  C   UNL     1      45.472   1.912   9.034  0.00  0.00    +0.000 A 
ATOM      8  C   UNL     1      44.802   2.936   9.704  0.00  0.00    +0.000 A 
ATOM      9 CL   UNL     1      43.727   2.513  10.990  0.00  0.00    +0.000 Cl
BRANCH   6  10
ATOM     10  C   UNL     1      47.031   1.135   7.264  0.00  0.00    +0.000 C 
ATOM     11  N   UNL     1      46.768  -0.163   7.606  0.00  0.00    +0.000 N 
ATOM     12  O   UNL     1      47.843   1.383   6.380  0.00  0.00    +0.000 OA
ATOM     13  H   UNL     1      46.159  -0.475   8.342  0.00  0.00    +0.000 HD
ATOM     14  H   UNL     1      47.286  -0.870   7.098  0.00  0.00    +0.000 HD
ENDBRANCH   6  10
ENDBRANCH   1   3
BRANCH   1  15
ATOM     15  C   UNL     1      45.245   6.386  10.445  0.00  0.00    +0.000 C 
BRANCH  15  17
ATOM     16  C   UNL     1      44.394   5.639  12.756  0.00  0.00    +0.000 C 
ATOM     17  C   UNL     1      45.497   6.188  11.911  0.00  0.00    +0.000 C 
BRANCH  17  18
ATOM     18  C   UNL     1      46.544   7.002  12.530  0.00  0.00    +0.000 A 
ATOM     19  C   UNL     1      46.267   8.127  13.296  0.00  0.00    +0.000 A 
ATOM     20  C   UNL     1      47.335   8.869  13.799  0.00  0.00    +0.000 A 
ATOM     21  C   UNL     1      48.638   8.471  13.514  0.00  0.00    +0.000 A 
ATOM     22  C   UNL     1      48.813   7.339  12.741  0.00  0.00    +0.000 A 
ATOM     23  N   UNL     1      47.806   6.603  12.255  0.00  0.00    +0.000 NA
BRANCH  22  24
ATOM     24  O   UNL     1      50.051   6.886  12.401  0.00  0.00    +0.000 OA
ATOM     25  H   UNL     1      50.265   7.231  11.522  0.00  0.00    +0.000 HD
ENDBRANCH  22  24
ENDBRANCH  17  18
ENDBRANCH  15  17
ENDBRANCH   1  15
TORSDOF 6
ENDMDL
MODEL 7
REMARK VINA RESULT:    -6.871      2.719      5.895
REMARK INTER + INTRA:          -9.812
REMARK INTER:                  -8.883
REMARK INTRA:                  -0.929
REMARK UNBOUND:                -0.732
REMARK  Name = 
REMARK  7 active torsions:
REMARK  status: ('A' for Active; 'I' for Inactive)
REMARK    1  A    between atoms: C_1  and  C_2
REMARK    2  A    between atoms: C_2  and  C_3
REMARK    3  A    between atoms: C_2  and  C_15
REMARK    4  A    between atoms: C_3  and  N_4
REMARK    5  A    between atoms: N_4  and  C_5
REMARK    6  A    between atoms: C_8  and  C_9
REMARK    7  A    between atoms: C_19  and  O_20
REMARK                            x       y       z     vdW  Elec       q    Type
REMARK                         _______ _______ _______ _____ _____    ______ ____
ROOT
ATOM      1  N   UNL     1      44.169   5.564  12.649  0.00  0.00    +0.000 N 
ATOM      2  H   UNL     1      44.255   4.647  13.099  0.00  0.00    +0.000 HD
ENDROOT
BRANCH   1   3
ATOM      3  C   UNL     1      45.457   6.125  12.581  0.00  0.00    +0.000 A 
ATOM      4  N   UNL     1      45.585   7.424  12.221  0.00  0.00    +0.000 NA
ATOM      5  C   UNL     1      46.830   7.953  12.157  0.00  0.00    +0.000 A 
ATOM      6  C   UNL     1      47.988   7.261  12.468  0.00  0.00    +0.000 A 
ATOM      7  C   UNL     1      47.852   5.930  12.868  0.00  0.00    +0.000 A 
ATOM      8  C   UNL     1      46.582   5.354  12.919  0.00  0.00    +0.000 A 
ATOM      9 CL   UNL     1      46.448   3.699  13.399  0.00  0.00    +0.000 Cl
BRANCH   6  10
ATOM     10  C   UNL     1      49.338   7.864  12.402  0.00  0.00    +0.000 C 
ATOM     11  N   UNL     1      50.229   7.616  13.410  0.00  0.00    +0.000 N 
ATOM     12  O   UNL     1      49.660   8.586  11.465  0.00  0.00    +0.000 OA
ATOM     13  H   UNL     1      50.057   7.080  14.242  0.00  0.00    +0.000 HD
ATOM     14  H   UNL     1      51.132   8.068  13.326  0.00  0.00    +0.000 HD
ENDBRANCH   6  10
ENDBRANCH   1   3
BRANCH   1  15
ATOM     15  C   UNL     1      43.515   5.400  11.360  0.00  0.00    +0.000 C 
BRANCH  15  17
ATOM     16  C   UNL     1      43.377   2.896  11.936  0.00  0.00    +0.000 C 
ATOM     17  C   UNL     1      43.684   3.969  10.943  0.00  0.00    +0.000 C 
BRANCH  17  18
ATOM     18  C   UNL     1      44.613   3.693   9.846  0.00  0.00    +0.000 A 
ATOM     19  C   UNL     1      45.165   4.694   9.059  0.00  0.00    +0.000 A 
ATOM     20  C   UNL     1      45.998   4.327   8.002  0.00  0.00    +0.000 A 
ATOM     21  C   UNL     1      46.243   2.978   7.761  0.00  0.00    +0.000 A 
ATOM     22  C   UNL     1      45.646   2.055   8.598  0.00  0.00    +0.000 A 
ATOM     23  N   UNL     1      44.852   2.380   9.626  0.00  0.00    +0.000 NA
BRANCH  22  24
ATOM     24  O   UNL     1      45.818   0.715   8.427  0.00  0.00    +0.000 OA
ATOM     25  H   UNL     1      46.099   0.339   9.274  0.00  0.00    +0.000 HD
ENDBRANCH  22  24
ENDBRANCH  17  18
ENDBRANCH  15  17
ENDBRANCH   1  15
TORSDOF 6
ENDMDL
MODEL 8
REMARK VINA RESULT:    -6.501      3.021      6.721
REMARK INTER + INTRA:          -9.324
REMARK INTER:                  -8.794
REMARK INTRA:                  -0.529
REMARK UNBOUND:                -0.732
REMARK  Name = 
REMARK  7 active torsions:
REMARK  status: ('A' for Active; 'I' for Inactive)
REMARK    1  A    between atoms: C_1  and  C_2
REMARK    2  A    between atoms: C_2  and  C_3
REMARK    3  A    between atoms: C_2  and  C_15
REMARK    4  A    between atoms: C_3  and  N_4
REMARK    5  A    between atoms: N_4  and  C_5
REMARK    6  A    between atoms: C_8  and  C_9
REMARK    7  A    between atoms: C_19  and  O_20
REMARK                            x       y       z     vdW  Elec       q    Type
REMARK                         _______ _______ _______ _____ _____    ______ ____
ROOT
ATOM      1  N   UNL     1      45.897   5.368  12.096  0.00  0.00    +0.000 N 
ATOM      2  H   UNL     1      46.207   4.422  11.854  0.00  0.00    +0.000 HD
ENDROOT
BRANCH   1   3
ATOM      3  C   UNL     1      47.034   6.106  12.469  0.00  0.00    +0.000 A 
ATOM      4  N   UNL     1      47.531   7.021  11.605  0.00  0.00    +0.000 NA
ATOM      5  C   UNL     1      48.628   7.725  11.974  0.00  0.00    +0.000 A 
ATOM      6  C   UNL     1      49.263   7.593  13.198  0.00  0.00    +0.000 A 
ATOM      7  C   UNL     1      48.731   6.671  14.100  0.00  0.00    +0.000 A 
ATOM      8  C   UNL     1      47.616   5.915  13.734  0.00  0.00    +0.000 A 
ATOM      9 CL   UNL     1      46.993   4.766  14.865  0.00  0.00    +0.000 Cl
BRANCH   6  10
ATOM     10  C   UNL     1      50.454   8.382  13.584  0.00  0.00    +0.000 C 
ATOM     11  N   UNL     1      51.674   8.045  13.064  0.00  0.00    +0.000 N 
ATOM     12  O   UNL     1      50.361   9.321  14.367  0.00  0.00    +0.000 OA
ATOM     13  H   UNL     1      51.871   7.272  12.455  0.00  0.00    +0.000 HD
ATOM     14  H   UNL     1      52.459   8.605  13.375  0.00  0.00    +0.000 HD
ENDBRANCH   6  10
ENDBRANCH   1   3
BRANCH   1  15
ATOM     15  C   UNL     1      45.158   5.926  10.973  0.00  0.00    +0.000 C 
BRANCH  15  17
ATOM     16  C   UNL     1      43.095   4.402  11.176  0.00  0.00    +0.000 C 
ATOM     17  C   UNL     1      44.300   4.834  10.406  0.00  0.00    +0.000 C 
BRANCH  17  18
ATOM     18  C   UNL     1      44.927   3.905   9.466  0.00  0.00    +0.000 A 
ATOM     19  C   UNL     1      44.916   2.528   9.649  0.00  0.00    +0.000 A 
ATOM     20  C   UNL     1      45.588   1.728   8.726  0.00  0.00    +0.000 A 
ATOM     21  C   UNL     1      46.255   2.326   7.660  0.00  0.00    +0.000 A 
ATOM     22  C   UNL     1      46.211   3.704   7.563  0.00  0.00    +0.000 A 
ATOM     23  N   UNL     1      45.564   4.495   8.429  0.00  0.00    +0.000 NA
BRANCH  22  24
ATOM     24  O   UNL     1      46.846   4.373   6.562  0.00  0.00    +0.000 OA
ATOM     25  H   UNL     1      46.708   5.322   6.703  0.00  0.00    +0.000 HD
ENDBRANCH  22  24
ENDBRANCH  17  18
ENDBRANCH  15  17
ENDBRANCH   1  15
TORSDOF 6
ENDMDL
MODEL 9
REMARK VINA RESULT:    -6.415      3.249      7.540
REMARK INTER + INTRA:          -9.210
REMARK INTER:                  -8.589
REMARK INTRA:                  -0.621
REMARK UNBOUND:                -0.732
REMARK  Name = 
REMARK  7 active torsions:
REMARK  status: ('A' for Active; 'I' for Inactive)
REMARK    1  A    between atoms: C_1  and  C_2
REMARK    2  A    between atoms: C_2  and  C_3
REMARK    3  A    between atoms: C_2  and  C_15
REMARK    4  A    between atoms: C_3  and  N_4
REMARK    5  A    between atoms: N_4  and  C_5
REMARK    6  A    between atoms: C_8  and  C_9
REMARK    7  A    between atoms: C_19  and  O_20
REMARK                            x       y       z     vdW  Elec       q    Type
REMARK                         _______ _______ _______ _____ _____    ______ ____
ROOT
ATOM      1  N   UNL     1      47.071   5.157  13.424  0.00  0.00    +0.000 N 
ATOM      2  H   UNL     1      47.684   5.880  13.036  0.00  0.00    +0.000 HD
ENDROOT
BRANCH   1   3
ATOM      3  C   UNL     1      47.507   4.887  14.733  0.00  0.00    +0.000 A 
ATOM      4  N   UNL     1      47.270   3.663  15.262  0.00  0.00    +0.000 NA
ATOM      5  C   UNL     1      47.693   3.415  16.524  0.00  0.00    +0.000 A 
ATOM      6  C   UNL     1      48.386   4.324  17.307  0.00  0.00    +0.000 A 
ATOM      7  C   UNL     1      48.657   5.574  16.749  0.00  0.00    +0.000 A 
ATOM      8  C   UNL     1      48.210   5.864  15.459  0.00  0.00    +0.000 A 
ATOM      9 CL   UNL     1      48.543   7.428  14.804  0.00  0.00    +0.000 Cl
BRANCH   6  10
ATOM     10  C   UNL     1      48.849   4.026  18.680  0.00  0.00    +0.000 C 
ATOM     11  N   UNL     1      48.265   3.001  19.373  0.00  0.00    +0.000 N 
ATOM     12  O   UNL     1      49.737   4.690  19.203  0.00  0.00    +0.000 OA
ATOM     13  H   UNL     1      47.503   2.426  19.061  0.00  0.00    +0.000 HD
ATOM     14  H   UNL     1      48.606   2.851  20.316  0.00  0.00    +0.000 HD
ENDBRANCH   6  10
ENDBRANCH   1   3
BRANCH   1  15
ATOM     15  C   UNL     1      45.689   5.606  13.331  0.00  0.00    +0.000 C 
BRANCH  15  17
ATOM     16  C   UNL     1      44.969   7.451  11.688  0.00  0.00    +0.000 C 
ATOM     17  C   UNL     1      45.453   6.057  11.919  0.00  0.00    +0.000 C 
BRANCH  17  18
ATOM     18  C   UNL     1      45.183   5.023  10.918  0.00  0.00    +0.000 A 
ATOM     19  C   UNL     1      45.525   5.166   9.580  0.00  0.00    +0.000 A 
ATOM     20  C   UNL     1      45.177   4.149   8.693  0.00  0.00    +0.000 A 
ATOM     21  C   UNL     1      44.494   3.032   9.165  0.00  0.00    +0.000 A 
ATOM     22  C   UNL     1      44.196   2.982  10.514  0.00  0.00    +0.000 A 
ATOM     23  N   UNL     1      44.528   3.938  11.390  0.00  0.00    +0.000 NA
BRANCH  22  24
ATOM     24  O   UNL     1      43.518   1.935  11.061  0.00  0.00    +0.000 OA
ATOM     25  H   UNL     1      42.748   2.289  11.528  0.00  0.00    +0.000 HD
ENDBRANCH  22  24
ENDBRANCH  17  18
ENDBRANCH  15  17
ENDBRANCH   1  15
TORSDOF 6
ENDMDL
