MODEL 1
REMARK VINA RESULT:    -7.957      0.000      0.000
REMARK INTER + INTRA:         -12.777
REMARK INTER:                 -11.446
REMARK INTRA:                  -1.331
REMARK UNBOUND:                -1.331
REMARK  Name = 
REMARK  8 active torsions:
REMARK  status: ('A' for Active; 'I' for Inactive)
REMARK    1  A    between atoms: C_2  and  C_3
REMARK    2  A    between atoms: N_7  and  C_8
REMARK    3  A    between atoms: C_8  and  C_9
REMARK    4  A    between atoms: C_9  and  C_10
REMARK    5  A    between atoms: C_9  and  C_12
REMARK    6  A    between atoms: C_10  and  O_11
REMARK    7  A    between atoms: C_14  and  S_15
REMARK    8  A    between atoms: S_15  and  C_16
REMARK                            x       y       z     vdW  Elec       q    Type
REMARK                         _______ _______ _______ _____ _____    ______ ____
ROOT
ATOM      1  C   UNL     1      43.751   4.500  12.411  0.00  0.00    +0.000 C 
ENDROOT
BRANCH   1   2
ATOM      2  C   UNL     1      45.108   5.185  12.531  0.00  0.00    +0.000 A 
ATOM      3  C   UNL     1      45.921   4.946  13.643  0.00  0.00    +0.000 A 
ATOM      4  C   UNL     1      47.160   5.583  13.743  0.00  0.00    +0.000 A 
ATOM      5  C   UNL     1      47.558   6.440  12.725  0.00  0.00    +0.000 A 
ATOM      6  C   UNL     1      46.703   6.618  11.650  0.00  0.00    +0.000 A 
ATOM      7  N   UNL     1      45.503   6.005  11.528  0.00  0.00    +0.000 NA
BRANCH   4   8
ATOM      8  S   UNL     1      48.105   5.442  15.249  0.00  0.00    +0.000 S 
BRANCH   8   9
ATOM      9  C   UNL     1      47.067   4.284  16.206  0.00  0.00    +0.000 C 
ATOM     10  C   UNL     1      47.019   4.555  17.722  0.00  0.00    +0.000 C 
ATOM     11  N   UNL     1      47.260   3.110  17.964  0.00  0.00    +0.000 NA
ATOM     12  C   UNL     1      47.865   3.020  16.614  0.00  0.00    +0.000 C 
ATOM     13  H   UNL     1      46.408   2.557  18.063  0.00  0.00    +0.000 HD
ENDBRANCH   8   9
ENDBRANCH   4   8
ENDBRANCH   1   2
BRANCH   1  14
ATOM     14  C   UNL     1      43.737   3.414  11.308  0.00  0.00    +0.000 C 
BRANCH  14  19
ATOM     15  C   UNL     1      46.799   2.495   7.277  0.00  0.00    +0.000 A 
ATOM     16  C   UNL     1      46.211   1.598   8.163  0.00  0.00    +0.000 A 
ATOM     17  C   UNL     1      45.304   2.072   9.112  0.00  0.00    +0.000 A 
ATOM     18  C   UNL     1      44.998   3.426   9.160  0.00  0.00    +0.000 A 
ATOM     19  N   UNL     1      44.050   3.974   9.996  0.00  0.00    +0.000 N 
ATOM     20  N   UNL     1      45.573   4.302   8.311  0.00  0.00    +0.000 NA
ATOM     21  C   UNL     1      46.454   3.826   7.395  0.00  0.00    +0.000 A 
ATOM     22  H   UNL     1      44.144   4.988   9.949  0.00  0.00    +0.000 HD
BRANCH  15  24
ATOM     23  N   UNL     1      48.461   1.697   5.464  0.00  0.00    +0.000 NA
ATOM     24  C   UNL     1      47.719   2.059   6.276  0.00  0.00    +0.000 C 
ENDBRANCH  15  24
ENDBRANCH  14  19
ENDBRANCH   1  14
BRANCH   1  25
ATOM     25  C   UNL     1      42.594   5.506  12.242  0.00  0.00    +0.000 C 
BRANCH  25  26
ATOM     26  O   UNL     1      42.592   6.158  10.977  0.00  0.00    +0.000 OA
ATOM     27  H   UNL     1      41.696   6.088  10.609  0.00  0.00    +0.000 HD
ENDBRANCH  25  26
ENDBRANCH   1  25
TORSDOF 8
ENDMDL
MODEL 2
REMARK VINA RESULT:    -7.417      1.934      3.582
REMARK INTER + INTRA:         -11.999
REMARK INTER:                 -11.086
REMARK INTRA:                  -0.913
REMARK UNBOUND:                -1.331
REMARK  Name = 
REMARK  8 active torsions:
REMARK  status: ('A' for Active; 'I' for Inactive)
REMARK    1  A    between atoms: C_2  and  C_3
REMARK    2  A    between atoms: N_7  and  C_8
REMARK    3  A    between atoms: C_8  and  C_9
REMARK    4  A    between atoms: C_9  and  C_10
REMARK    5  A    between atoms: C_9  and  C_12
REMARK    6  A    between atoms: C_10  and  O_11
REMARK    7  A    between atoms: C_14  and  S_15
REMARK    8  A    between atoms: S_15  and  C_16
REMARK                            x       y       z     vdW  Elec       q    Type
REMARK                         _______ _______ _______ _____ _____    ______ ____
ROOT
ATOM      1  C   UNL     1      43.552   4.325  12.634  0.00  0.00    +0.000 C 
ENDROOT
BRANCH   1   2
ATOM      2  C   UNL     1      44.993   4.711  12.957  0.00  0.00    +0.000 A 
ATOM      3  C   UNL     1      45.533   5.897  12.451  0.00  0.00    +0.000 A 
ATOM      4  C   UNL     1      46.855   6.236  12.750  0.00  0.00    +0.000 A 
ATOM      5  C   UNL     1      47.601   5.383  13.553  0.00  0.00    +0.000 A 
ATOM      6  C   UNL     1      46.993   4.232  14.024  0.00  0.00    +0.000 A 
ATOM      7  N   UNL     1      45.713   3.888  13.756  0.00  0.00    +0.000 NA
BRANCH   4   8
ATOM      8  S   UNL     1      47.610   7.636  11.943  0.00  0.00    +0.000 S 
BRANCH   8   9
ATOM      9  C   UNL     1      46.753   9.020  12.769  0.00  0.00    +0.000 C 
ATOM     10  C   UNL     1      45.550   9.594  11.996  0.00  0.00    +0.000 C 
ATOM     11  N   UNL     1      46.071  10.961  12.248  0.00  0.00    +0.000 NA
ATOM     12  C   UNL     1      47.420  10.377  12.429  0.00  0.00    +0.000 C 
ATOM     13  H   UNL     1      45.701  11.398  13.093  0.00  0.00    +0.000 HD
ENDBRANCH   8   9
ENDBRANCH   4   8
ENDBRANCH   1   2
BRANCH   1  14
ATOM     14  C   UNL     1      43.463   3.320  11.460  0.00  0.00    +0.000 C 
BRANCH  14  19
ATOM     15  C   UNL     1      46.604   2.586   7.452  0.00  0.00    +0.000 A 
ATOM     16  C   UNL     1      45.988   1.649   8.275  0.00  0.00    +0.000 A 
ATOM     17  C   UNL     1      45.065   2.081   9.229  0.00  0.00    +0.000 A 
ATOM     18  C   UNL     1      44.772   3.435   9.343  0.00  0.00    +0.000 A 
ATOM     19  N   UNL     1      43.810   3.947  10.187  0.00  0.00    +0.000 N 
ATOM     20  N   UNL     1      45.373   4.349   8.556  0.00  0.00    +0.000 NA
ATOM     21  C   UNL     1      46.270   3.912   7.635  0.00  0.00    +0.000 A 
ATOM     22  H   UNL     1      43.916   4.960  10.197  0.00  0.00    +0.000 HD
BRANCH  15  24
ATOM     23  N   UNL     1      48.309   1.874   5.643  0.00  0.00    +0.000 NA
ATOM     24  C   UNL     1      47.542   2.194   6.449  0.00  0.00    +0.000 C 
ENDBRANCH  15  24
ENDBRANCH  14  19
ENDBRANCH   1  14
BRANCH   1  25
ATOM     25  C   UNL     1      42.647   5.553  12.410  0.00  0.00    +0.000 C 
BRANCH  25  26
ATOM     26  O   UNL     1      41.707   5.378  11.357  0.00  0.00    +0.000 OA
ATOM     27  H   UNL     1      40.817   5.411  11.746  0.00  0.00    +0.000 HD
ENDBRANCH  25  26
ENDBRANCH   1  25
TORSDOF 8
ENDMDL
MODEL 3
REMARK VINA RESULT:    -7.417      1.875      2.207
REMARK INTER + INTRA:         -11.999
REMARK INTER:                 -10.823
REMARK INTRA:                  -1.176
REMARK UNBOUND:                -1.331
REMARK  Name = 
REMARK  8 active torsions:
REMARK  status: ('A' for Active; 'I' for Inactive)
REMARK    1  A    between atoms: C_2  and  C_3
REMARK    2  A    between atoms: N_7  and  C_8
REMARK    3  A    between atoms: C_8  and  C_9
REMARK    4  A    between atoms: C_9  and  C_10
REMARK    5  A    between atoms: C_9  and  C_12
REMARK    6  A    between atoms: C_10  and  O_11
REMARK    7  A    between atoms: C_14  and  S_15
REMARK    8  A    between atoms: S_15  and  C_16
REMARK                            x       y       z     vdW  Elec       q    Type
REMARK                         _______ _______ _______ _____ _____    ______ ____
ROOT
ATOM      1  C   UNL     1      44.218   4.517  12.016  0.00  0.00    +0.000 C 
ENDROOT
BRANCH   1   2
ATOM      2  C   UNL     1      44.985   5.835  11.978  0.00  0.00    +0.000 A 
ATOM      3  C   UNL     1      46.372   5.848  12.148  0.00  0.00    +0.000 A 
ATOM      4  C   UNL     1      47.061   7.062  12.115  0.00  0.00    +0.000 A 
ATOM      5  C   UNL     1      46.345   8.234  11.907  0.00  0.00    +0.000 A 
ATOM      6  C   UNL     1      44.975   8.140  11.737  0.00  0.00    +0.000 A 
ATOM      7  N   UNL     1      44.288   6.975  11.755  0.00  0.00    +0.000 NA
BRANCH   4   8
ATOM      8  S   UNL     1      48.794   7.104  12.535  0.00  0.00    +0.000 S 
BRANCH   8   9
ATOM      9  C   UNL     1      48.709   7.360  14.341  0.00  0.00    +0.000 C 
ATOM     10  C   UNL     1      50.048   7.191  15.085  0.00  0.00    +0.000 C 
ATOM     11  N   UNL     1      49.356   6.343  16.089  0.00  0.00    +0.000 NA
ATOM     12  C   UNL     1      48.315   6.054  15.076  0.00  0.00    +0.000 C 
ATOM     13  H   UNL     1      49.003   6.859  16.896  0.00  0.00    +0.000 HD
ENDBRANCH   8   9
ENDBRANCH   4   8
ENDBRANCH   1   2
BRANCH   1  14
ATOM     14  C   UNL     1      43.317   4.326  10.772  0.00  0.00    +0.000 C 
BRANCH  14  19
ATOM     15  C   UNL     1      46.753   2.763   7.276  0.00  0.00    +0.000 A 
ATOM     16  C   UNL     1      45.839   2.016   8.011  0.00  0.00    +0.000 A 
ATOM     17  C   UNL     1      44.908   2.676   8.814  0.00  0.00    +0.000 A 
ATOM     18  C   UNL     1      44.903   4.065   8.868  0.00  0.00    +0.000 A 
ATOM     19  N   UNL     1      43.968   4.808   9.556  0.00  0.00    +0.000 N 
ATOM     20  N   UNL     1      45.794   4.794   8.167  0.00  0.00    +0.000 NA
ATOM     21  C   UNL     1      46.694   4.137   7.392  0.00  0.00    +0.000 A 
ATOM     22  H   UNL     1      44.289   5.774   9.569  0.00  0.00    +0.000 HD
BRANCH  15  24
ATOM     23  N   UNL     1      48.497   1.622   5.744  0.00  0.00    +0.000 NA
ATOM     24  C   UNL     1      47.715   2.136   6.426  0.00  0.00    +0.000 C 
ENDBRANCH  15  24
ENDBRANCH  14  19
ENDBRANCH   1  14
BRANCH   1  25
ATOM     25  C   UNL     1      43.433   4.327  13.329  0.00  0.00    +0.000 C 
BRANCH  25  26
ATOM     26  O   UNL     1      42.557   5.409  13.626  0.00  0.00    +0.000 OA
ATOM     27  H   UNL     1      42.947   5.915  14.357  0.00  0.00    +0.000 HD
ENDBRANCH  25  26
ENDBRANCH   1  25
TORSDOF 8
ENDMDL
MODEL 4
REMARK VINA RESULT:    -7.285      2.690      3.654
REMARK INTER + INTRA:         -11.809
REMARK INTER:                 -10.618
REMARK INTRA:                  -1.191
REMARK UNBOUND:                -1.331
REMARK  Name = 
REMARK  8 active torsions:
REMARK  status: ('A' for Active; 'I' for Inactive)
REMARK    1  A    between atoms: C_2  and  C_3
REMARK    2  A    between atoms: N_7  and  C_8
REMARK    3  A    between atoms: C_8  and  C_9
REMARK    4  A    between atoms: C_9  and  C_10
REMARK    5  A    between atoms: C_9  and  C_12
REMARK    6  A    between atoms: C_10  and  O_11
REMARK    7  A    between atoms: C_14  and  S_15
REMARK    8  A    between atoms: S_15  and  C_16
REMARK                            x       y       z     vdW  Elec       q    Type
REMARK                         _______ _______ _______ _____ _____    ______ ____
ROOT
ATOM      1  C   UNL     1      44.195   4.423  12.045  0.00  0.00    +0.000 C 
ENDROOT
BRANCH   1   2
ATOM      2  C   UNL     1      44.954   5.747  12.033  0.00  0.00    +0.000 A 
ATOM      3  C   UNL     1      46.324   5.775  12.308  0.00  0.00    +0.000 A 
ATOM      4  C   UNL     1      47.007   6.993  12.297  0.00  0.00    +0.000 A 
ATOM      5  C   UNL     1      46.301   8.154  12.006  0.00  0.00    +0.000 A 
ATOM      6  C   UNL     1      44.948   8.045  11.733  0.00  0.00    +0.000 A 
ATOM      7  N   UNL     1      44.269   6.875  11.728  0.00  0.00    +0.000 NA
BRANCH   4   8
ATOM      8  S   UNL     1      48.702   7.060  12.847  0.00  0.00    +0.000 S 
BRANCH   8   9
ATOM      9  C   UNL     1      49.493   7.908  11.437  0.00  0.00    +0.000 C 
ATOM     10  C   UNL     1      51.033   7.944  11.482  0.00  0.00    +0.000 C 
ATOM     11  N   UNL     1      50.985   9.391  11.152  0.00  0.00    +0.000 NA
ATOM     12  C   UNL     1      49.605   9.433  11.690  0.00  0.00    +0.000 C 
ATOM     13  H   UNL     1      51.036   9.591  10.152  0.00  0.00    +0.000 HD
ENDBRANCH   8   9
ENDBRANCH   4   8
ENDBRANCH   1   2
BRANCH   1  14
ATOM     14  C   UNL     1      43.337   4.227  10.772  0.00  0.00    +0.000 C 
BRANCH  14  19
ATOM     15  C   UNL     1      46.774   2.748   7.240  0.00  0.00    +0.000 A 
ATOM     16  C   UNL     1      45.838   1.989   7.934  0.00  0.00    +0.000 A 
ATOM     17  C   UNL     1      44.913   2.633   8.758  0.00  0.00    +0.000 A 
ATOM     18  C   UNL     1      44.936   4.017   8.872  0.00  0.00    +0.000 A 
ATOM     19  N   UNL     1      44.009   4.748   9.584  0.00  0.00    +0.000 N 
ATOM     20  N   UNL     1      45.847   4.758   8.211  0.00  0.00    +0.000 NA
ATOM     21  C   UNL     1      46.741   4.117   7.416  0.00  0.00    +0.000 A 
ATOM     22  H   UNL     1      44.349   5.707   9.642  0.00  0.00    +0.000 HD
BRANCH  15  24
ATOM     23  N   UNL     1      48.511   1.643   5.675  0.00  0.00    +0.000 NA
ATOM     24  C   UNL     1      47.731   2.140   6.372  0.00  0.00    +0.000 C 
ENDBRANCH  15  24
ENDBRANCH  14  19
ENDBRANCH   1  14
BRANCH   1  25
ATOM     25  C   UNL     1      43.368   4.228  13.332  0.00  0.00    +0.000 C 
BRANCH  25  26
ATOM     26  O   UNL     1      42.553   5.349  13.656  0.00  0.00    +0.000 OA
ATOM     27  H   UNL     1      42.904   5.745  14.470  0.00  0.00    +0.000 HD
ENDBRANCH  25  26
ENDBRANCH   1  25
TORSDOF 8
ENDMDL
MODEL 5
REMARK VINA RESULT:    -6.175      2.948      8.060
REMARK INTER + INTRA:         -10.214
REMARK INTER:                  -9.633
REMARK INTRA:                  -0.581
REMARK UNBOUND:                -1.331
REMARK  Name = 
REMARK  8 active torsions:
REMARK  status: ('A' for Active; 'I' for Inactive)
REMARK    1  A    between atoms: C_2  and  C_3
REMARK    2  A    between atoms: N_7  and  C_8
REMARK    3  A    between atoms: C_8  and  C_9
REMARK    4  A    between atoms: C_9  and  C_10
REMARK    5  A    between atoms: C_9  and  C_12
REMARK    6  A    between atoms: C_10  and  O_11
REMARK    7  A    between atoms: C_14  and  S_15
REMARK    8  A    between atoms: S_15  and  C_16
REMARK                            x       y       z     vdW  Elec       q    Type
REMARK                         _______ _______ _______ _____ _____    ______ ____
ROOT
ATOM      1  C   UNL     1      47.028   4.639  13.989  0.00  0.00    +0.000 C 
ENDROOT
BRANCH   1   2
ATOM      2  C   UNL     1      45.723   4.516  13.210  0.00  0.00    +0.000 A 
ATOM      3  C   UNL     1      45.607   3.587  12.173  0.00  0.00    +0.000 A 
ATOM      4  C   UNL     1      44.407   3.488  11.464  0.00  0.00    +0.000 A 
ATOM      5  C   UNL     1      43.350   4.318  11.816  0.00  0.00    +0.000 A 
ATOM      6  C   UNL     1      43.537   5.206  12.862  0.00  0.00    +0.000 A 
ATOM      7  N   UNL     1      44.687   5.312  13.568  0.00  0.00    +0.000 NA
BRANCH   4   8
ATOM      8  S   UNL     1      44.322   2.455  10.013  0.00  0.00    +0.000 S 
BRANCH   8   9
ATOM      9  C   UNL     1      44.597   3.685   8.693  0.00  0.00    +0.000 C 
ATOM     10  C   UNL     1      45.638   3.278   7.632  0.00  0.00    +0.000 C 
ATOM     11  N   UNL     1      46.258   4.621   7.759  0.00  0.00    +0.000 NA
ATOM     12  C   UNL     1      45.661   4.731   9.111  0.00  0.00    +0.000 C 
ATOM     13  H   UNL     1      45.895   5.311   7.099  0.00  0.00    +0.000 HD
ENDBRANCH   8   9
ENDBRANCH   4   8
ENDBRANCH   1   2
BRANCH   1  14
ATOM     14  C   UNL     1      46.838   4.363  15.501  0.00  0.00    +0.000 C 
BRANCH  14  19
ATOM     15  C   UNL     1      51.187   2.639  17.641  0.00  0.00    +0.000 A 
ATOM     16  C   UNL     1      50.519   3.841  17.844  0.00  0.00    +0.000 A 
ATOM     17  C   UNL     1      49.274   4.040  17.245  0.00  0.00    +0.000 A 
ATOM     18  C   UNL     1      48.719   3.038  16.458  0.00  0.00    +0.000 A 
ATOM     19  N   UNL     1      47.459   3.103  15.902  0.00  0.00    +0.000 N 
ATOM     20  N   UNL     1      49.366   1.875  16.247  0.00  0.00    +0.000 NA
ATOM     21  C   UNL     1      50.576   1.698  16.836  0.00  0.00    +0.000 A 
ATOM     22  H   UNL     1      47.370   2.328  15.247  0.00  0.00    +0.000 HD
BRANCH  15  24
ATOM     23  N   UNL     1      53.486   2.164  18.727  0.00  0.00    +0.000 NA
ATOM     24  C   UNL     1      52.454   2.379  18.245  0.00  0.00    +0.000 C 
ENDBRANCH  15  24
ENDBRANCH  14  19
ENDBRANCH   1  14
BRANCH   1  25
ATOM     25  C   UNL     1      47.746   5.980  13.735  0.00  0.00    +0.000 C 
BRANCH  25  26
ATOM     26  O   UNL     1      46.921   7.115  13.967  0.00  0.00    +0.000 OA
ATOM     27  H   UNL     1      47.470   7.801  14.382  0.00  0.00    +0.000 HD
ENDBRANCH  25  26
ENDBRANCH   1  25
TORSDOF 8
ENDMDL
MODEL 6
REMARK VINA RESULT:    -5.847      2.889      4.054
REMARK INTER + INTRA:          -9.742
REMARK INTER:                  -8.855
REMARK INTRA:                  -0.887
REMARK UNBOUND:                -1.331
REMARK  Name = 
REMARK  8 active torsions:
REMARK  status: ('A' for Active; 'I' for Inactive)
REMARK    1  A    between atoms: C_2  and  C_3
REMARK    2  A    between atoms: N_7  and  C_8
REMARK    3  A    between atoms: C_8  and  C_9
REMARK    4  A    between atoms: C_9  and  C_10
REMARK    5  A    between atoms: C_9  and  C_12
REMARK    6  A    between atoms: C_10  and  O_11
REMARK    7  A    between atoms: C_14  and  S_15
REMARK    8  A    between atoms: S_15  and  C_16
REMARK                            x       y       z     vdW  Elec       q    Type
REMARK                         _______ _______ _______ _____ _____    ______ ____
ROOT
ATOM      1  C   UNL     1      45.659   5.986  12.197  0.00  0.00    +0.000 C 
ENDROOT
BRANCH   1   2
ATOM      2  C   UNL     1      45.961   7.480  12.163  0.00  0.00    +0.000 A 
ATOM      3  C   UNL     1      47.257   7.941  12.411  0.00  0.00    +0.000 A 
ATOM      4  C   UNL     1      47.521   9.313  12.381  0.00  0.00    +0.000 A 
ATOM      5  C   UNL     1      46.481  10.189  12.098  0.00  0.00    +0.000 A 
ATOM      6  C   UNL     1      45.226   9.657  11.853  0.00  0.00    +0.000 A 
ATOM      7  N   UNL     1      44.951   8.332  11.867  0.00  0.00    +0.000 NA
BRANCH   4   8
ATOM      8  S   UNL     1      49.118   9.916  12.897  0.00  0.00    +0.000 S 
BRANCH   8   9
ATOM      9  C   UNL     1      50.129   8.403  12.743  0.00  0.00    +0.000 C 
ATOM     10  C   UNL     1      51.558   8.516  13.309  0.00  0.00    +0.000 C 
ATOM     11  N   UNL     1      52.075   7.895  12.063  0.00  0.00    +0.000 NA
ATOM     12  C   UNL     1      50.845   8.344  11.370  0.00  0.00    +0.000 C 
ATOM     13  H   UNL     1      52.165   6.880  12.111  0.00  0.00    +0.000 HD
ENDBRANCH   8   9
ENDBRANCH   4   8
ENDBRANCH   1   2
BRANCH   1  14
ATOM     14  C   UNL     1      44.323   5.642  11.495  0.00  0.00    +0.000 C 
BRANCH  14  19
ATOM     15  C   UNL     1      46.133   2.347   7.983  0.00  0.00    +0.000 A 
ATOM     16  C   UNL     1      45.534   2.088   9.211  0.00  0.00    +0.000 A 
ATOM     17  C   UNL     1      44.999   3.147   9.945  0.00  0.00    +0.000 A 
ATOM     18  C   UNL     1      45.067   4.441   9.443  0.00  0.00    +0.000 A 
ATOM     19  N   UNL     1      44.487   5.535  10.047  0.00  0.00    +0.000 N 
ATOM     20  N   UNL     1      45.655   4.700   8.258  0.00  0.00    +0.000 NA
ATOM     21  C   UNL     1      46.173   3.659   7.557  0.00  0.00    +0.000 A 
ATOM     22  H   UNL     1      44.826   6.368   9.569  0.00  0.00    +0.000 HD
BRANCH  15  24
ATOM     23  N   UNL     1      47.127   0.440   6.546  0.00  0.00    +0.000 NA
ATOM     24  C   UNL     1      46.681   1.297   7.185  0.00  0.00    +0.000 C 
ENDBRANCH  15  24
ENDBRANCH  14  19
ENDBRANCH   1  14
BRANCH   1  25
ATOM     25  C   UNL     1      45.726   5.401  13.622  0.00  0.00    +0.000 C 
BRANCH  25  26
ATOM     26  O   UNL     1      45.822   3.981  13.647  0.00  0.00    +0.000 OA
ATOM     27  H   UNL     1      46.718   3.750  13.943  0.00  0.00    +0.000 HD
ENDBRANCH  25  26
ENDBRANCH   1  25
TORSDOF 8
ENDMDL
MODEL 7
REMARK VINA RESULT:    -5.566      3.916      8.425
REMARK INTER + INTRA:          -9.337
REMARK INTER:                  -8.533
REMARK INTRA:                  -0.804
REMARK UNBOUND:                -1.331
REMARK  Name = 
REMARK  8 active torsions:
REMARK  status: ('A' for Active; 'I' for Inactive)
REMARK    1  A    between atoms: C_2  and  C_3
REMARK    2  A    between atoms: N_7  and  C_8
REMARK    3  A    between atoms: C_8  and  C_9
REMARK    4  A    between atoms: C_9  and  C_10
REMARK    5  A    between atoms: C_9  and  C_12
REMARK    6  A    between atoms: C_10  and  O_11
REMARK    7  A    between atoms: C_14  and  S_15
REMARK    8  A    between atoms: S_15  and  C_16
REMARK                            x       y       z     vdW  Elec       q    Type
REMARK                         _______ _______ _______ _____ _____    ______ ____
ROOT
ATOM      1  C   UNL     1      47.700   4.937  16.143  0.00  0.00    +0.000 C 
ENDROOT
BRANCH   1   2
ATOM      2  C   UNL     1      47.777   5.606  14.775  0.00  0.00    +0.000 A 
ATOM      3  C   UNL     1      46.728   5.464  13.862  0.00  0.00    +0.000 A 
ATOM      4  C   UNL     1      46.812   6.078  12.610  0.00  0.00    +0.000 A 
ATOM      5  C   UNL     1      47.943   6.824  12.305  0.00  0.00    +0.000 A 
ATOM      6  C   UNL     1      48.936   6.928  13.265  0.00  0.00    +0.000 A 
ATOM      7  N   UNL     1      48.871   6.350  14.486  0.00  0.00    +0.000 NA
BRANCH   4   8
ATOM      8  S   UNL     1      45.577   5.731  11.372  0.00  0.00    +0.000 S 
BRANCH   8   9
ATOM      9  C   UNL     1      44.835   4.202  12.039  0.00  0.00    +0.000 C 
ATOM     10  C   UNL     1      44.400   3.173  10.976  0.00  0.00    +0.000 C 
ATOM     11  N   UNL     1      43.101   3.029  11.681  0.00  0.00    +0.000 NA
ATOM     12  C   UNL     1      43.312   4.372  12.272  0.00  0.00    +0.000 C 
ATOM     13  H   UNL     1      43.085   2.280  12.374  0.00  0.00    +0.000 HD
ENDBRANCH   8   9
ENDBRANCH   4   8
ENDBRANCH   1   2
BRANCH   1  14
ATOM     14  C   UNL     1      49.093   4.784  16.801  0.00  0.00    +0.000 C 
BRANCH  14  19
ATOM     15  C   UNL     1      53.024   1.709  18.050  0.00  0.00    +0.000 A 
ATOM     16  C   UNL     1      52.886   3.082  18.225  0.00  0.00    +0.000 A 
ATOM     17  C   UNL     1      51.666   3.689  17.924  0.00  0.00    +0.000 A 
ATOM     18  C   UNL     1      50.607   2.918  17.459  0.00  0.00    +0.000 A 
ATOM     19  N   UNL     1      49.340   3.408  17.225  0.00  0.00    +0.000 N 
ATOM     20  N   UNL     1      50.737   1.589  17.277  0.00  0.00    +0.000 NA
ATOM     21  C   UNL     1      51.932   1.014  17.572  0.00  0.00    +0.000 A 
ATOM     22  H   UNL     1      48.814   2.684  16.738  0.00  0.00    +0.000 HD
BRANCH  15  24
ATOM     23  N   UNL     1      55.234   0.486  18.603  0.00  0.00    +0.000 NA
ATOM     24  C   UNL     1      54.246   1.038  18.358  0.00  0.00    +0.000 C 
ENDBRANCH  15  24
ENDBRANCH  14  19
ENDBRANCH   1  14
BRANCH   1  25
ATOM     25  C   UNL     1      46.932   3.600  16.106  0.00  0.00    +0.000 C 
BRANCH  25  26
ATOM     26  O   UNL     1      46.494   3.163  17.388  0.00  0.00    +0.000 OA
ATOM     27  H   UNL     1      46.759   3.836  18.037  0.00  0.00    +0.000 HD
ENDBRANCH  25  26
ENDBRANCH   1  25
TORSDOF 8
ENDMDL
MODEL 8
REMARK VINA RESULT:    -5.463      3.496      7.197
REMARK INTER + INTRA:          -9.189
REMARK INTER:                  -8.389
REMARK INTRA:                  -0.799
REMARK UNBOUND:                -1.331
REMARK  Name = 
REMARK  8 active torsions:
REMARK  status: ('A' for Active; 'I' for Inactive)
REMARK    1  A    between atoms: C_2  and  C_3
REMARK    2  A    between atoms: N_7  and  C_8
REMARK    3  A    between atoms: C_8  and  C_9
REMARK    4  A    between atoms: C_9  and  C_10
REMARK    5  A    between atoms: C_9  and  C_12
REMARK    6  A    between atoms: C_10  and  O_11
REMARK    7  A    between atoms: C_14  and  S_15
REMARK    8  A    between atoms: S_15  and  C_16
REMARK                            x       y       z     vdW  Elec       q    Type
REMARK                         _______ _______ _______ _____ _____    ______ ____
ROOT
ATOM      1  C   UNL     1      45.266   7.276  11.363  0.00  0.00    +0.000 C 
ENDROOT
BRANCH   1   2
ATOM      2  C   UNL     1      44.997   5.797  11.104  0.00  0.00    +0.000 A 
ATOM      3  C   UNL     1      45.224   5.252   9.837  0.00  0.00    +0.000 A 
ATOM      4  C   UNL     1      44.969   3.897   9.612  0.00  0.00    +0.000 A 
ATOM      5  C   UNL     1      44.499   3.120  10.662  0.00  0.00    +0.000 A 
ATOM      6  C   UNL     1      44.308   3.729  11.891  0.00  0.00    +0.000 A 
ATOM      7  N   UNL     1      44.558   5.036  12.134  0.00  0.00    +0.000 NA
BRANCH   4   8
ATOM      8  S   UNL     1      45.060   3.246   7.954  0.00  0.00    +0.000 S 
BRANCH   8   9
ATOM      9  C   UNL     1      46.746   2.547   7.945  0.00  0.00    +0.000 C 
ATOM     10  C   UNL     1      47.499   2.684   6.607  0.00  0.00    +0.000 C 
ATOM     11  N   UNL     1      47.887   1.254   6.707  0.00  0.00    +0.000 NA
ATOM     12  C   UNL     1      46.725   1.036   7.599  0.00  0.00    +0.000 C 
ATOM     13  H   UNL     1      48.786   1.098   7.166  0.00  0.00    +0.000 HD
ENDBRANCH   8   9
ENDBRANCH   4   8
ENDBRANCH   1   2
BRANCH   1  14
ATOM     14  C   UNL     1      45.996   7.513  12.707  0.00  0.00    +0.000 C 
BRANCH  14  19
ATOM     15  C   UNL     1      50.923   8.788  11.958  0.00  0.00    +0.000 A 
ATOM     16  C   UNL     1      50.193   7.731  11.424  0.00  0.00    +0.000 A 
ATOM     17  C   UNL     1      48.821   7.657  11.670  0.00  0.00    +0.000 A 
ATOM     18  C   UNL     1      48.203   8.637  12.438  0.00  0.00    +0.000 A 
ATOM     19  N   UNL     1      46.844   8.701  12.658  0.00  0.00    +0.000 N 
ATOM     20  N   UNL     1      48.907   9.657  12.967  0.00  0.00    +0.000 NA
ATOM     21  C   UNL     1      50.241   9.714  12.721  0.00  0.00    +0.000 A 
ATOM     22  H   UNL     1      46.680   9.403  13.379  0.00  0.00    +0.000 HD
BRANCH  15  24
ATOM     23  N   UNL     1      53.461   9.032  11.524  0.00  0.00    +0.000 NA
ATOM     24  C   UNL     1      52.325   8.919  11.722  0.00  0.00    +0.000 C 
ENDBRANCH  15  24
ENDBRANCH  14  19
ENDBRANCH   1  14
BRANCH   1  25
ATOM     25  C   UNL     1      43.995   8.139  11.239  0.00  0.00    +0.000 C 
BRANCH  25  26
ATOM     26  O   UNL     1      42.799   7.375  11.143  0.00  0.00    +0.000 OA
ATOM     27  H   UNL     1      42.961   6.647  10.520  0.00  0.00    +0.000 HD
ENDBRANCH  25  26
ENDBRANCH   1  25
TORSDOF 8
ENDMDL
MODEL 9
REMARK VINA RESULT:    -5.335      3.845      7.962
REMARK INTER + INTRA:          -9.005
REMARK INTER:                  -8.288
REMARK INTRA:                  -0.718
REMARK UNBOUND:                -1.331
REMARK  Name = 
REMARK  8 active torsions:
REMARK  status: ('A' for Active; 'I' for Inactive)
REMARK    1  A    between atoms: C_2  and  C_3
REMARK    2  A    between atoms: N_7  and  C_8
REMARK    3  A    between atoms: C_8  and  C_9
REMARK    4  A    between atoms: C_9  and  C_10
REMARK    5  A    between atoms: C_9  and  C_12
REMARK    6  A    between atoms: C_10  and  O_11
REMARK    7  A    between atoms: C_14  and  S_15
REMARK    8  A    between atoms: S_15  and  C_16
REMARK                            x       y       z     vdW  Elec       q    Type
REMARK                         _______ _______ _______ _____ _____    ______ ____
ROOT
ATOM      1  C   UNL     1      48.780   7.021  14.163  0.00  0.00    +0.000 C 
ENDROOT
BRANCH   1   2
ATOM      2  C   UNL     1      47.486   7.247  13.388  0.00  0.00    +0.000 A 
ATOM      3  C   UNL     1      47.003   6.262  12.522  0.00  0.00    +0.000 A 
ATOM      4  C   UNL     1      45.819   6.483  11.815  0.00  0.00    +0.000 A 
ATOM      5  C   UNL     1      45.144   7.684  11.996  0.00  0.00    +0.000 A 
ATOM      6  C   UNL     1      45.680   8.607  12.878  0.00  0.00    +0.000 A 
ATOM      7  N   UNL     1      46.819   8.410  13.581  0.00  0.00    +0.000 NA
BRANCH   4   8
ATOM      8  S   UNL     1      45.310   5.322  10.561  0.00  0.00    +0.000 S 
BRANCH   8   9
ATOM      9  C   UNL     1      43.957   4.449  11.421  0.00  0.00    +0.000 C 
ATOM     10  C   UNL     1      44.330   3.867  12.798  0.00  0.00    +0.000 C 
ATOM     11  N   UNL     1      43.684   2.589  12.408  0.00  0.00    +0.000 NA
ATOM     12  C   UNL     1      43.882   2.963  10.988  0.00  0.00    +0.000 C 
ATOM     13  H   UNL     1      42.701   2.521  12.676  0.00  0.00    +0.000 HD
ENDBRANCH   8   9
ENDBRANCH   4   8
ENDBRANCH   1   2
BRANCH   1  14
ATOM     14  C   UNL     1      48.616   7.306  15.675  0.00  0.00    +0.000 C 
BRANCH  14  19
ATOM     15  C   UNL     1      51.413   3.488  17.694  0.00  0.00    +0.000 A 
ATOM     16  C   UNL     1      51.746   4.826  17.510  0.00  0.00    +0.000 A 
ATOM     17  C   UNL     1      50.771   5.716  17.057  0.00  0.00    +0.000 A 
ATOM     18  C   UNL     1      49.485   5.258  16.799  0.00  0.00    +0.000 A 
ATOM     19  N   UNL     1      48.433   6.074  16.439  0.00  0.00    +0.000 N 
ATOM     20  N   UNL     1      49.158   3.961  16.964  0.00  0.00    +0.000 NA
ATOM     21  C   UNL     1      50.118   3.108  17.403  0.00  0.00    +0.000 A 
ATOM     22  H   UNL     1      47.662   5.475  16.151  0.00  0.00    +0.000 HD
BRANCH  15  24
ATOM     23  N   UNL     1      53.139   1.765  18.554  0.00  0.00    +0.000 NA
ATOM     24  C   UNL     1      52.369   2.541  18.171  0.00  0.00    +0.000 C 
ENDBRANCH  15  24
ENDBRANCH  14  19
ENDBRANCH   1  14
BRANCH   1  25
ATOM     25  C   UNL     1      49.973   7.789  13.559  0.00  0.00    +0.000 C 
BRANCH  25  26
ATOM     26  O   UNL     1      50.344   7.332  12.264  0.00  0.00    +0.000 OA
ATOM     27  H   UNL     1      50.258   8.080  11.650  0.00  0.00    +0.000 HD
ENDBRANCH  25  26
ENDBRANCH   1  25
TORSDOF 8
ENDMDL
