MODEL 1
REMARK VINA RESULT:    -7.748      0.000      0.000
REMARK INTER + INTRA:         -10.432
REMARK INTER:                  -9.786
REMARK INTRA:                  -0.646
REMARK UNBOUND:                -0.646
REMARK  Name = 
REMARK  5 active torsions:
REMARK  status: ('A' for Active; 'I' for Inactive)
REMARK    1  A    between atoms: N_1  and  C_2
REMARK    2  A    between atoms: C_2  and  C_3
REMARK    3  A    between atoms: C_3  and  C_4
REMARK    4  A    between atoms: N_7  and  C_8
REMARK    5  A    between atoms: C_8  and  C_9
REMARK                            x       y       z     vdW  Elec       q    Type
REMARK                         _______ _______ _______ _____ _____    ______ ____
ROOT
ATOM      1  C   UNL     1      43.724   2.832  10.807  0.00  0.00    +0.000 C 
ENDROOT
BRANCH   1   2
ATOM      2  C   UNL     1      44.555   2.954   9.551  0.00  0.00    +0.000 A 
ATOM      3  C   UNL     1      44.545   4.136   8.798  0.00  0.00    +0.000 A 
ATOM      4  C   UNL     1      45.342   4.263   7.655  0.00  0.00    +0.000 A 
ATOM      5  C   UNL     1      46.173   3.210   7.239  0.00  0.00    +0.000 A 
ATOM      6  C   UNL     1      46.985   3.310   6.102  0.00  0.00    +0.000 A 
ATOM      7  C   UNL     1      47.781   2.230   5.754  0.00  0.00    +0.000 A 
ATOM      8  N   UNL     1      47.826   1.075   6.447  0.00  0.00    +0.000 NA
ATOM      9  C   UNL     1      47.034   0.997   7.543  0.00  0.00    +0.000 A 
ATOM     10  C   UNL     1      46.194   2.020   7.990  0.00  0.00    +0.000 A 
ATOM     11  C   UNL     1      45.389   1.902   9.138  0.00  0.00    +0.000 A 
ENDBRANCH   1   2
BRANCH   1  15
ATOM     12  C   UNL     1      45.310   4.993  13.087  0.00  0.00    +0.000 A 
ATOM     13  C   UNL     1      43.996   5.492  13.237  0.00  0.00    +0.000 A 
ATOM     14  C   UNL     1      43.225   4.732  12.392  0.00  0.00    +0.000 A 
ATOM     15  N   UNL     1      44.073   3.832  11.812  0.00  0.00    +0.000 N 
ATOM     16  N   UNL     1      45.360   3.998  12.191  0.00  0.00    +0.000 NA
BRANCH  12  17
ATOM     17  C   UNL     1      46.548   5.448  13.792  0.00  0.00    +0.000 C 
BRANCH  17  18
ATOM     18  C   UNL     1      46.965   4.487  14.909  0.00  0.00    +0.000 C 
BRANCH  18  19
ATOM     19  N   UNL     1      47.442   3.207  14.377  0.00  0.00    +0.000 NA
ATOM     20  H   UNL     1      47.782   2.634  15.149  0.00  0.00    +0.000 HD
ATOM     21  H   UNL     1      48.250   3.373  13.776  0.00  0.00    +0.000 HD
ENDBRANCH  18  19
ENDBRANCH  17  18
ENDBRANCH  12  17
ENDBRANCH   1  15
TORSDOF 5
ENDMDL
MODEL 2
REMARK VINA RESULT:    -7.304      1.747      6.629
REMARK INTER + INTRA:          -9.871
REMARK INTER:                  -9.465
REMARK INTRA:                  -0.406
REMARK UNBOUND:                -0.646
REMARK  Name = 
REMARK  5 active torsions:
REMARK  status: ('A' for Active; 'I' for Inactive)
REMARK    1  A    between atoms: N_1  and  C_2
REMARK    2  A    between atoms: C_2  and  C_3
REMARK    3  A    between atoms: C_3  and  C_4
REMARK    4  A    between atoms: N_7  and  C_8
REMARK    5  A    between atoms: C_8  and  C_9
REMARK                            x       y       z     vdW  Elec       q    Type
REMARK                         _______ _______ _______ _____ _____    ______ ____
ROOT
ATOM      1  C   UNL     1      44.344   4.980  10.590  0.00  0.00    +0.000 C 
ENDROOT
BRANCH   1   2
ATOM      2  C   UNL     1      45.409   5.439  11.558  0.00  0.00    +0.000 A 
ATOM      3  C   UNL     1      46.093   6.645  11.351  0.00  0.00    +0.000 A 
ATOM      4  C   UNL     1      47.053   7.089  12.267  0.00  0.00    +0.000 A 
ATOM      5  C   UNL     1      47.351   6.338  13.416  0.00  0.00    +0.000 A 
ATOM      6  C   UNL     1      48.304   6.760  14.351  0.00  0.00    +0.000 A 
ATOM      7  C   UNL     1      48.544   5.967  15.463  0.00  0.00    +0.000 A 
ATOM      8  N   UNL     1      47.910   4.802  15.706  0.00  0.00    +0.000 NA
ATOM      9  C   UNL     1      46.993   4.410  14.790  0.00  0.00    +0.000 A 
ATOM     10  C   UNL     1      46.668   5.128  13.635  0.00  0.00    +0.000 A 
ATOM     11  C   UNL     1      45.704   4.689  12.710  0.00  0.00    +0.000 A 
ENDBRANCH   1   2
BRANCH   1  15
ATOM     12  C   UNL     1      45.863   3.226   7.946  0.00  0.00    +0.000 A 
ATOM     13  C   UNL     1      45.359   2.107   8.649  0.00  0.00    +0.000 A 
ATOM     14  C   UNL     1      44.714   2.632   9.742  0.00  0.00    +0.000 A 
ATOM     15  N   UNL     1      44.836   3.989   9.639  0.00  0.00    +0.000 N 
ATOM     16  N   UNL     1      45.568   4.374   8.571  0.00  0.00    +0.000 NA
BRANCH  12  17
ATOM     17  C   UNL     1      46.633   3.229   6.665  0.00  0.00    +0.000 C 
BRANCH  17  18
ATOM     18  C   UNL     1      47.940   2.438   6.772  0.00  0.00    +0.000 C 
BRANCH  18  19
ATOM     19  N   UNL     1      48.409   1.982   5.460  0.00  0.00    +0.000 NA
ATOM     20  H   UNL     1      48.063   2.620   4.744  0.00  0.00    +0.000 HD
ATOM     21  H   UNL     1      47.990   1.075   5.250  0.00  0.00    +0.000 HD
ENDBRANCH  18  19
ENDBRANCH  17  18
ENDBRANCH  12  17
ENDBRANCH   1  15
TORSDOF 5
ENDMDL
MODEL 3
REMARK VINA RESULT:    -6.916      2.583      3.451
REMARK INTER + INTRA:          -9.381
REMARK INTER:                  -8.807
REMARK INTRA:                  -0.574
REMARK UNBOUND:                -0.646
REMARK  Name = 
REMARK  5 active torsions:
REMARK  status: ('A' for Active; 'I' for Inactive)
REMARK    1  A    between atoms: N_1  and  C_2
REMARK    2  A    between atoms: C_2  and  C_3
REMARK    3  A    between atoms: C_3  and  C_4
REMARK    4  A    between atoms: N_7  and  C_8
REMARK    5  A    between atoms: C_8  and  C_9
REMARK                            x       y       z     vdW  Elec       q    Type
REMARK                         _______ _______ _______ _____ _____    ______ ____
ROOT
ATOM      1  C   UNL     1      43.580   5.237  10.526  0.00  0.00    +0.000 C 
ENDROOT
BRANCH   1   2
ATOM      2  C   UNL     1      44.346   4.134   9.833  0.00  0.00    +0.000 A 
ATOM      3  C   UNL     1      44.081   2.788  10.119  0.00  0.00    +0.000 A 
ATOM      4  C   UNL     1      44.763   1.766   9.450  0.00  0.00    +0.000 A 
ATOM      5  C   UNL     1      45.728   2.066   8.475  0.00  0.00    +0.000 A 
ATOM      6  C   UNL     1      46.424   1.064   7.787  0.00  0.00    +0.000 A 
ATOM      7  C   UNL     1      47.362   1.436   6.836  0.00  0.00    +0.000 A 
ATOM      8  N   UNL     1      47.650   2.716   6.525  0.00  0.00    +0.000 NA
ATOM      9  C   UNL     1      46.968   3.670   7.201  0.00  0.00    +0.000 A 
ATOM     10  C   UNL     1      46.001   3.414   8.178  0.00  0.00    +0.000 A 
ATOM     11  C   UNL     1      45.309   4.435   8.854  0.00  0.00    +0.000 A 
ENDBRANCH   1   2
BRANCH   1  15
ATOM     12  C   UNL     1      45.185   7.733  12.417  0.00  0.00    +0.000 A 
ATOM     13  C   UNL     1      45.807   6.613  13.016  0.00  0.00    +0.000 A 
ATOM     14  C   UNL     1      45.278   5.522  12.371  0.00  0.00    +0.000 A 
ATOM     15  N   UNL     1      44.414   6.016  11.436  0.00  0.00    +0.000 N 
ATOM     16  N   UNL     1      44.309   7.363  11.472  0.00  0.00    +0.000 NA
BRANCH  12  17
ATOM     17  C   UNL     1      45.408   9.178  12.727  0.00  0.00    +0.000 C 
BRANCH  17  18
ATOM     18  C   UNL     1      44.784  10.099  11.674  0.00  0.00    +0.000 C 
BRANCH  18  19
ATOM     19  N   UNL     1      43.446  10.550  12.070  0.00  0.00    +0.000 NA
ATOM     20  H   UNL     1      42.754   9.902  11.693  0.00  0.00    +0.000 HD
ATOM     21  H   UNL     1      43.252  11.450  11.631  0.00  0.00    +0.000 HD
ENDBRANCH  18  19
ENDBRANCH  17  18
ENDBRANCH  12  17
ENDBRANCH   1  15
TORSDOF 5
ENDMDL
MODEL 4
REMARK VINA RESULT:    -6.816      1.986      6.599
REMARK INTER + INTRA:          -9.255
REMARK INTER:                  -8.825
REMARK INTRA:                  -0.430
REMARK UNBOUND:                -0.646
REMARK  Name = 
REMARK  5 active torsions:
REMARK  status: ('A' for Active; 'I' for Inactive)
REMARK    1  A    between atoms: N_1  and  C_2
REMARK    2  A    between atoms: C_2  and  C_3
REMARK    3  A    between atoms: C_3  and  C_4
REMARK    4  A    between atoms: N_7  and  C_8
REMARK    5  A    between atoms: C_8  and  C_9
REMARK                            x       y       z     vdW  Elec       q    Type
REMARK                         _______ _______ _______ _____ _____    ______ ____
ROOT
ATOM      1  C   UNL     1      44.265   3.437  10.859  0.00  0.00    +0.000 C 
ENDROOT
BRANCH   1   2
ATOM      2  C   UNL     1      45.197   4.169  11.797  0.00  0.00    +0.000 A 
ATOM      3  C   UNL     1      45.827   3.493  12.851  0.00  0.00    +0.000 A 
ATOM      4  C   UNL     1      46.720   4.161  13.697  0.00  0.00    +0.000 A 
ATOM      5  C   UNL     1      47.005   5.523  13.507  0.00  0.00    +0.000 A 
ATOM      6  C   UNL     1      47.896   6.216  14.336  0.00  0.00    +0.000 A 
ATOM      7  C   UNL     1      48.131   7.560  14.087  0.00  0.00    +0.000 A 
ATOM      8  N   UNL     1      47.550   8.251  13.086  0.00  0.00    +0.000 NA
ATOM      9  C   UNL     1      46.691   7.564  12.296  0.00  0.00    +0.000 A 
ATOM     10  C   UNL     1      46.380   6.210  12.450  0.00  0.00    +0.000 A 
ATOM     11  C   UNL     1      45.485   5.530  11.604  0.00  0.00    +0.000 A 
ENDBRANCH   1   2
BRANCH   1  15
ATOM     12  C   UNL     1      45.965   2.288   8.000  0.00  0.00    +0.000 A 
ATOM     13  C   UNL     1      45.325   3.401   7.405  0.00  0.00    +0.000 A 
ATOM     14  C   UNL     1      44.601   3.981   8.417  0.00  0.00    +0.000 A 
ATOM     15  N   UNL     1      44.845   3.234   9.535  0.00  0.00    +0.000 N 
ATOM     16  N   UNL     1      45.643   2.170   9.296  0.00  0.00    +0.000 NA
BRANCH  12  17
ATOM     17  C   UNL     1      46.895   1.314   7.352  0.00  0.00    +0.000 C 
BRANCH  17  18
ATOM     18  C   UNL     1      48.183   1.981   6.861  0.00  0.00    +0.000 C 
BRANCH  18  19
ATOM     19  N   UNL     1      48.349   1.842   5.411  0.00  0.00    +0.000 NA
ATOM     20  H   UNL     1      49.272   1.453   5.219  0.00  0.00    +0.000 HD
ATOM     21  H   UNL     1      48.343   2.769   4.982  0.00  0.00    +0.000 HD
ENDBRANCH  18  19
ENDBRANCH  17  18
ENDBRANCH  12  17
ENDBRANCH   1  15
TORSDOF 5
ENDMDL
MODEL 5
REMARK VINA RESULT:    -6.692      1.521      1.632
REMARK INTER + INTRA:          -9.098
REMARK INTER:                  -8.611
REMARK INTRA:                  -0.487
REMARK UNBOUND:                -0.646
REMARK  Name = 
REMARK  5 active torsions:
REMARK  status: ('A' for Active; 'I' for Inactive)
REMARK    1  A    between atoms: N_1  and  C_2
REMARK    2  A    between atoms: C_2  and  C_3
REMARK    3  A    between atoms: C_3  and  C_4
REMARK    4  A    between atoms: N_7  and  C_8
REMARK    5  A    between atoms: C_8  and  C_9
REMARK                            x       y       z     vdW  Elec       q    Type
REMARK                         _______ _______ _______ _____ _____    ______ ____
ROOT
ATOM      1  C   UNL     1      44.012   4.455  10.640  0.00  0.00    +0.000 C 
ENDROOT
BRANCH   1   2
ATOM      2  C   UNL     1      44.914   3.984   9.524  0.00  0.00    +0.000 A 
ATOM      3  C   UNL     1      45.583   4.905   8.706  0.00  0.00    +0.000 A 
ATOM      4  C   UNL     1      46.448   4.469   7.696  0.00  0.00    +0.000 A 
ATOM      5  C   UNL     1      46.667   3.099   7.481  0.00  0.00    +0.000 A 
ATOM      6  C   UNL     1      47.529   2.634   6.480  0.00  0.00    +0.000 A 
ATOM      7  C   UNL     1      47.698   1.266   6.328  0.00  0.00    +0.000 A 
ATOM      8  N   UNL     1      47.079   0.343   7.090  0.00  0.00    +0.000 NA
ATOM      9  C   UNL     1      46.249   0.811   8.052  0.00  0.00    +0.000 A 
ATOM     10  C   UNL     1      46.003   2.165   8.298  0.00  0.00    +0.000 A 
ATOM     11  C   UNL     1      45.136   2.612   9.311  0.00  0.00    +0.000 A 
ENDBRANCH   1   2
BRANCH   1  15
ATOM     12  C   UNL     1      46.155   5.731  13.123  0.00  0.00    +0.000 A 
ATOM     13  C   UNL     1      45.434   6.920  12.867  0.00  0.00    +0.000 A 
ATOM     14  C   UNL     1      44.525   6.586  11.893  0.00  0.00    +0.000 A 
ATOM     15  N   UNL     1      44.718   5.258  11.633  0.00  0.00    +0.000 N 
ATOM     16  N   UNL     1      45.736   4.724  12.344  0.00  0.00    +0.000 NA
BRANCH  12  17
ATOM     17  C   UNL     1      47.256   5.524  14.112  0.00  0.00    +0.000 C 
BRANCH  17  18
ATOM     18  C   UNL     1      48.204   6.724  14.185  0.00  0.00    +0.000 C 
BRANCH  18  19
ATOM     19  N   UNL     1      49.306   6.606  13.225  0.00  0.00    +0.000 NA
ATOM     20  H   UNL     1      49.313   7.431  12.626  0.00  0.00    +0.000 HD
ATOM     21  H   UNL     1      49.129   5.813  12.607  0.00  0.00    +0.000 HD
ENDBRANCH  18  19
ENDBRANCH  17  18
ENDBRANCH  12  17
ENDBRANCH   1  15
TORSDOF 5
ENDMDL
MODEL 6
REMARK VINA RESULT:    -6.522      1.541      2.116
REMARK INTER + INTRA:          -8.884
REMARK INTER:                  -8.415
REMARK INTRA:                  -0.469
REMARK UNBOUND:                -0.646
REMARK  Name = 
REMARK  5 active torsions:
REMARK  status: ('A' for Active; 'I' for Inactive)
REMARK    1  A    between atoms: N_1  and  C_2
REMARK    2  A    between atoms: C_2  and  C_3
REMARK    3  A    between atoms: C_3  and  C_4
REMARK    4  A    between atoms: N_7  and  C_8
REMARK    5  A    between atoms: C_8  and  C_9
REMARK                            x       y       z     vdW  Elec       q    Type
REMARK                         _______ _______ _______ _____ _____    ______ ____
ROOT
ATOM      1  C   UNL     1      43.786   4.700  10.455  0.00  0.00    +0.000 C 
ENDROOT
BRANCH   1   2
ATOM      2  C   UNL     1      44.609   3.756   9.610  0.00  0.00    +0.000 A 
ATOM      3  C   UNL     1      44.488   2.368   9.762  0.00  0.00    +0.000 A 
ATOM      4  C   UNL     1      45.222   1.493   8.954  0.00  0.00    +0.000 A 
ATOM      5  C   UNL     1      46.094   1.986   7.970  0.00  0.00    +0.000 A 
ATOM      6  C   UNL     1      46.839   1.135   7.144  0.00  0.00    +0.000 A 
ATOM      7  C   UNL     1      47.679   1.694   6.193  0.00  0.00    +0.000 A 
ATOM      8  N   UNL     1      47.826   3.021   6.008  0.00  0.00    +0.000 NA
ATOM      9  C   UNL     1      47.099   3.829   6.816  0.00  0.00    +0.000 A 
ATOM     10  C   UNL     1      46.221   3.378   7.806  0.00  0.00    +0.000 A 
ATOM     11  C   UNL     1      45.478   4.250   8.623  0.00  0.00    +0.000 A 
ENDBRANCH   1   2
BRANCH   1  15
ATOM     12  C   UNL     1      46.056   5.782  12.916  0.00  0.00    +0.000 A 
ATOM     13  C   UNL     1      45.543   7.051  12.561  0.00  0.00    +0.000 A 
ATOM     14  C   UNL     1      44.613   6.801  11.582  0.00  0.00    +0.000 A 
ATOM     15  N   UNL     1      44.592   5.445  11.416  0.00  0.00    +0.000 N 
ATOM     16  N   UNL     1      45.494   4.804  12.192  0.00  0.00    +0.000 NA
BRANCH  12  17
ATOM     17  C   UNL     1      47.087   5.469  13.952  0.00  0.00    +0.000 C 
BRANCH  17  18
ATOM     18  C   UNL     1      48.095   6.608  14.129  0.00  0.00    +0.000 C 
BRANCH  18  19
ATOM     19  N   UNL     1      49.254   6.452  13.246  0.00  0.00    +0.000 NA
ATOM     20  H   UNL     1      49.351   7.292  12.675  0.00  0.00    +0.000 HD
ATOM     21  H   UNL     1      49.077   5.689  12.591  0.00  0.00    +0.000 HD
ENDBRANCH  18  19
ENDBRANCH  17  18
ENDBRANCH  12  17
ENDBRANCH   1  15
TORSDOF 5
ENDMDL
MODEL 7
REMARK VINA RESULT:    -5.993      3.078      6.571
REMARK INTER + INTRA:          -8.216
REMARK INTER:                  -7.497
REMARK INTRA:                  -0.719
REMARK UNBOUND:                -0.646
REMARK  Name = 
REMARK  5 active torsions:
REMARK  status: ('A' for Active; 'I' for Inactive)
REMARK    1  A    between atoms: N_1  and  C_2
REMARK    2  A    between atoms: C_2  and  C_3
REMARK    3  A    between atoms: C_3  and  C_4
REMARK    4  A    between atoms: N_7  and  C_8
REMARK    5  A    between atoms: C_8  and  C_9
REMARK                            x       y       z     vdW  Elec       q    Type
REMARK                         _______ _______ _______ _____ _____    ______ ____
ROOT
ATOM      1  C   UNL     1      45.857   4.705  13.513  0.00  0.00    +0.000 C 
ENDROOT
BRANCH   1   2
ATOM      2  C   UNL     1      46.404   6.051  13.099  0.00  0.00    +0.000 A 
ATOM      3  C   UNL     1      47.777   6.229  12.878  0.00  0.00    +0.000 A 
ATOM      4  C   UNL     1      48.281   7.465  12.459  0.00  0.00    +0.000 A 
ATOM      5  C   UNL     1      47.422   8.555  12.247  0.00  0.00    +0.000 A 
ATOM      6  C   UNL     1      47.896   9.802  11.823  0.00  0.00    +0.000 A 
ATOM      7  C   UNL     1      46.988  10.833  11.633  0.00  0.00    +0.000 A 
ATOM      8  N   UNL     1      45.660  10.709  11.830  0.00  0.00    +0.000 NA
ATOM      9  C   UNL     1      45.220   9.496  12.240  0.00  0.00    +0.000 A 
ATOM     10  C   UNL     1      46.041   8.387  12.462  0.00  0.00    +0.000 A 
ATOM     11  C   UNL     1      45.544   7.141  12.883  0.00  0.00    +0.000 A 
ENDBRANCH   1   2
BRANCH   1  15
ATOM     12  C   UNL     1      44.375   3.196  10.701  0.00  0.00    +0.000 A 
ATOM     13  C   UNL     1      43.205   3.325  11.484  0.00  0.00    +0.000 A 
ATOM     14  C   UNL     1      43.619   3.918  12.652  0.00  0.00    +0.000 A 
ATOM     15  N   UNL     1      44.961   4.130  12.514  0.00  0.00    +0.000 N 
ATOM     16  N   UNL     1      45.454   3.661  11.346  0.00  0.00    +0.000 NA
BRANCH  12  17
ATOM     17  C   UNL     1      44.496   2.630   9.323  0.00  0.00    +0.000 C 
BRANCH  17  18
ATOM     18  C   UNL     1      45.258   3.563   8.377  0.00  0.00    +0.000 C 
BRANCH  18  19
ATOM     19  N   UNL     1      45.124   4.968   8.774  0.00  0.00    +0.000 NA
ATOM     20  H   UNL     1      45.015   5.016   9.787  0.00  0.00    +0.000 HD
ATOM     21  H   UNL     1      44.261   5.346   8.383  0.00  0.00    +0.000 HD
ENDBRANCH  18  19
ENDBRANCH  17  18
ENDBRANCH  12  17
ENDBRANCH   1  15
TORSDOF 5
ENDMDL
MODEL 8
REMARK VINA RESULT:    -5.952      3.030      6.148
REMARK INTER + INTRA:          -8.163
REMARK INTER:                  -7.532
REMARK INTRA:                  -0.631
REMARK UNBOUND:                -0.646
REMARK  Name = 
REMARK  5 active torsions:
REMARK  status: ('A' for Active; 'I' for Inactive)
REMARK    1  A    between atoms: N_1  and  C_2
REMARK    2  A    between atoms: C_2  and  C_3
REMARK    3  A    between atoms: C_3  and  C_4
REMARK    4  A    between atoms: N_7  and  C_8
REMARK    5  A    between atoms: C_8  and  C_9
REMARK                            x       y       z     vdW  Elec       q    Type
REMARK                         _______ _______ _______ _____ _____    ______ ____
ROOT
ATOM      1  C   UNL     1      45.638   4.811  13.611  0.00  0.00    +0.000 C 
ENDROOT
BRANCH   1   2
ATOM      2  C   UNL     1      46.266   6.080  13.085  0.00  0.00    +0.000 A 
ATOM      3  C   UNL     1      45.486   7.219  12.841  0.00  0.00    +0.000 A 
ATOM      4  C   UNL     1      46.073   8.406  12.389  0.00  0.00    +0.000 A 
ATOM      5  C   UNL     1      47.458   8.484  12.173  0.00  0.00    +0.000 A 
ATOM      6  C   UNL     1      48.073   9.659  11.724  0.00  0.00    +0.000 A 
ATOM      7  C   UNL     1      49.447   9.663  11.534  0.00  0.00    +0.000 A 
ATOM      8  N   UNL     1      50.239   8.595  11.757  0.00  0.00    +0.000 NA
ATOM      9  C   UNL     1      49.626   7.468  12.190  0.00  0.00    +0.000 A 
ATOM     10  C   UNL     1      48.252   7.348  12.417  0.00  0.00    +0.000 A 
ATOM     11  C   UNL     1      47.653   6.159  12.872  0.00  0.00    +0.000 A 
ENDBRANCH   1   2
BRANCH   1  15
ATOM     12  C   UNL     1      44.472   3.156  10.733  0.00  0.00    +0.000 A 
ATOM     13  C   UNL     1      43.332   2.949  11.545  0.00  0.00    +0.000 A 
ATOM     14  C   UNL     1      43.629   3.555  12.741  0.00  0.00    +0.000 A 
ATOM     15  N   UNL     1      44.875   4.096  12.593  0.00  0.00    +0.000 N 
ATOM     16  N   UNL     1      45.427   3.831  11.388  0.00  0.00    +0.000 NA
BRANCH  12  17
ATOM     17  C   UNL     1      44.679   2.720   9.319  0.00  0.00    +0.000 C 
BRANCH  17  18
ATOM     18  C   UNL     1      44.618   3.893   8.336  0.00  0.00    +0.000 C 
BRANCH  18  19
ATOM     19  N   UNL     1      45.612   4.923   8.654  0.00  0.00    +0.000 NA
ATOM     20  H   UNL     1      45.165   5.654   9.207  0.00  0.00    +0.000 HD
ATOM     21  H   UNL     1      45.917   5.373   7.791  0.00  0.00    +0.000 HD
ENDBRANCH  18  19
ENDBRANCH  17  18
ENDBRANCH  12  17
ENDBRANCH   1  15
TORSDOF 5
ENDMDL
MODEL 9
REMARK VINA RESULT:    -5.656      3.694      5.618
REMARK INTER + INTRA:          -7.789
REMARK INTER:                  -7.196
REMARK INTRA:                  -0.593
REMARK UNBOUND:                -0.646
REMARK  Name = 
REMARK  5 active torsions:
REMARK  status: ('A' for Active; 'I' for Inactive)
REMARK    1  A    between atoms: N_1  and  C_2
REMARK    2  A    between atoms: C_2  and  C_3
REMARK    3  A    between atoms: C_3  and  C_4
REMARK    4  A    between atoms: N_7  and  C_8
REMARK    5  A    between atoms: C_8  and  C_9
REMARK                            x       y       z     vdW  Elec       q    Type
REMARK                         _______ _______ _______ _____ _____    ______ ____
ROOT
ATOM      1  C   UNL     1      46.734   7.522  13.233  0.00  0.00    +0.000 C 
ENDROOT
BRANCH   1   2
ATOM      2  C   UNL     1      46.168   6.297  12.555  0.00  0.00    +0.000 A 
ATOM      3  C   UNL     1      45.636   5.241  13.309  0.00  0.00    +0.000 A 
ATOM      4  C   UNL     1      45.078   4.123  12.681  0.00  0.00    +0.000 A 
ATOM      5  C   UNL     1      45.035   4.033  11.280  0.00  0.00    +0.000 A 
ATOM      6  C   UNL     1      44.479   2.928  10.624  0.00  0.00    +0.000 A 
ATOM      7  C   UNL     1      44.471   2.910   9.238  0.00  0.00    +0.000 A 
ATOM      8  N   UNL     1      44.967   3.900   8.470  0.00  0.00    +0.000 NA
ATOM      9  C   UNL     1      45.501   4.961   9.122  0.00  0.00    +0.000 A 
ATOM     10  C   UNL     1      45.563   5.088  10.513  0.00  0.00    +0.000 A 
ATOM     11  C   UNL     1      46.122   6.209  11.153  0.00  0.00    +0.000 A 
ENDBRANCH   1   2
BRANCH   1  15
ATOM     12  C   UNL     1      45.007  10.259  11.853  0.00  0.00    +0.000 A 
ATOM     13  C   UNL     1      46.320  10.744  11.652  0.00  0.00    +0.000 A 
ATOM     14  C   UNL     1      47.144   9.763  12.148  0.00  0.00    +0.000 A 
ATOM     15  N   UNL     1      46.322   8.764  12.587  0.00  0.00    +0.000 N 
ATOM     16  N   UNL     1      45.010   9.061  12.454  0.00  0.00    +0.000 NA
BRANCH  12  17
ATOM     17  C   UNL     1      43.720  10.921  11.477  0.00  0.00    +0.000 C 
BRANCH  17  18
ATOM     18  C   UNL     1      42.998  10.184  10.345  0.00  0.00    +0.000 C 
BRANCH  18  19
ATOM     19  N   UNL     1      42.514   8.868  10.773  0.00  0.00    +0.000 NA
ATOM     20  H   UNL     1      41.604   8.979  11.220  0.00  0.00    +0.000 HD
ATOM     21  H   UNL     1      43.135   8.501  11.496  0.00  0.00    +0.000 HD
ENDBRANCH  18  19
ENDBRANCH  17  18
ENDBRANCH  12  17
ENDBRANCH   1  15
TORSDOF 5
ENDMDL
