MODEL 1
REMARK VINA RESULT:    -8.923      0.000      0.000
REMARK INTER + INTRA:         -13.551
REMARK INTER:                 -12.314
REMARK INTRA:                  -1.237
REMARK UNBOUND:                -1.237
REMARK  Name = 
REMARK  7 active torsions:
REMARK  status: ('A' for Active; 'I' for Inactive)
REMARK    1  A    between atoms: C_2  and  C_4
REMARK    2  A    between atoms: C_7  and  O_8
REMARK    3  A    between atoms: O_8  and  C_9
REMARK    4  A    between atoms: C_9  and  C_10
REMARK    5  A    between atoms: C_10  and  C_13
REMARK    6  A    between atoms: C_18  and  N_19
REMARK    7  A    between atoms: C_22  and  O_23
REMARK                            x       y       z     vdW  Elec       q    Type
REMARK                         _______ _______ _______ _____ _____    ______ ____
ROOT
ATOM      1  C   UNL     1      43.951   4.415  12.538  0.00  0.00    +0.000 C 
ATOM      2  F   UNL     1      42.964   5.013  13.270  0.00  0.00    +0.000 F 
ATOM      3  F   UNL     1      43.885   3.088  12.857  0.00  0.00    +0.000 F 
ENDROOT
BRANCH   1   4
ATOM      4  C   UNL     1      45.317   4.999  12.851  0.00  0.00    +0.000 A 
ATOM      5  C   UNL     1      45.885   5.969  12.023  0.00  0.00    +0.000 A 
ATOM      6  C   UNL     1      47.126   6.497  12.345  0.00  0.00    +0.000 A 
ATOM      7  F   UNL     1      47.668   7.430  11.550  0.00  0.00    +0.000 F 
ATOM      8  C   UNL     1      47.817   6.086  13.483  0.00  0.00    +0.000 A 
ATOM      9  C   UNL     1      47.284   5.122  14.348  0.00  0.00    +0.000 A 
ATOM     10  C   UNL     1      46.027   4.588  13.998  0.00  0.00    +0.000 A 
BRANCH   9  11
ATOM     11  N   UNL     1      47.951   4.694  15.483  0.00  0.00    +0.000 N 
ATOM     12  C   UNL     1      48.598   5.630  16.407  0.00  0.00    +0.000 C 
ATOM     13  C   UNL     1      47.878   5.627  17.752  0.00  0.00    +0.000 C 
ATOM     14  C   UNL     1      47.731   4.211  18.310  0.00  0.00    +0.000 C 
ATOM     15  C   UNL     1      47.120   3.257  17.286  0.00  0.00    +0.000 C 
ATOM     16  C   UNL     1      47.845   3.306  15.941  0.00  0.00    +0.000 C 
BRANCH  14  17
ATOM     17  O   UNL     1      48.988   3.716  18.771  0.00  0.00    +0.000 OA
ATOM     18  H   UNL     1      48.864   2.825  19.141  0.00  0.00    +0.000 HD
ENDBRANCH  14  17
ENDBRANCH   9  11
ENDBRANCH   1   4
BRANCH   1  19
ATOM     19  C   UNL     1      43.628   4.584  11.047  0.00  0.00    +0.000 C 
BRANCH  19  20
ATOM     20  O   UNL     1      43.468   3.306  10.404  0.00  0.00    +0.000 OA
BRANCH  20  24
ATOM     21  C   UNL     1      46.419   2.678   7.600  0.00  0.00    +0.000 A 
ATOM     22  C   UNL     1      45.938   3.972   7.816  0.00  0.00    +0.000 A 
ATOM     23  C   UNL     1      44.931   4.172   8.763  0.00  0.00    +0.000 A 
ATOM     24  C   UNL     1      44.448   3.074   9.458  0.00  0.00    +0.000 A 
ATOM     25  N   UNL     1      44.886   1.812   9.258  0.00  0.00    +0.000 NA
ATOM     26  C   UNL     1      45.853   1.640   8.325  0.00  0.00    +0.000 A 
BRANCH  21  28
ATOM     27  N   UNL     1      47.569   3.116   5.504  0.00  0.00    +0.000 N 
ATOM     28  C   UNL     1      47.491   2.354   6.635  0.00  0.00    +0.000 C 
ATOM     29  O   UNL     1      48.304   1.469   6.861  0.00  0.00    +0.000 OA
ATOM     30  H   UNL     1      48.382   2.959   4.919  0.00  0.00    +0.000 HD
ATOM     31  H   UNL     1      47.092   4.001   5.408  0.00  0.00    +0.000 HD
ENDBRANCH  21  28
ENDBRANCH  20  24
ENDBRANCH  19  20
ENDBRANCH   1  19
TORSDOF 7
ENDMDL
MODEL 2
REMARK VINA RESULT:    -8.804      0.706      1.238
REMARK INTER + INTRA:         -13.386
REMARK INTER:                 -12.196
REMARK INTRA:                  -1.190
REMARK UNBOUND:                -1.237
REMARK  Name = 
REMARK  7 active torsions:
REMARK  status: ('A' for Active; 'I' for Inactive)
REMARK    1  A    between atoms: C_2  and  C_4
REMARK    2  A    between atoms: C_7  and  O_8
REMARK    3  A    between atoms: O_8  and  C_9
REMARK    4  A    between atoms: C_9  and  C_10
REMARK    5  A    between atoms: C_10  and  C_13
REMARK    6  A    between atoms: C_18  and  N_19
REMARK    7  A    between atoms: C_22  and  O_23
REMARK                            x       y       z     vdW  Elec       q    Type
REMARK                         _______ _______ _______ _____ _____    ______ ____
ROOT
ATOM      1  C   UNL     1      44.134   4.566  12.536  0.00  0.00    +0.000 C 
ATOM      2  F   UNL     1      43.124   5.152  13.247  0.00  0.00    +0.000 F 
ATOM      3  F   UNL     1      43.972   3.221  12.718  0.00  0.00    +0.000 F 
ENDROOT
BRANCH   1   4
ATOM      4  C   UNL     1      45.499   5.035  13.005  0.00  0.00    +0.000 A 
ATOM      5  C   UNL     1      46.298   5.835  12.185  0.00  0.00    +0.000 A 
ATOM      6  C   UNL     1      47.534   6.263  12.649  0.00  0.00    +0.000 A 
ATOM      7  F   UNL     1      48.298   7.033  11.862  0.00  0.00    +0.000 F 
ATOM      8  C   UNL     1      47.992   5.919  13.919  0.00  0.00    +0.000 A 
ATOM      9  C   UNL     1      47.221   5.127  14.779  0.00  0.00    +0.000 A 
ATOM     10  C   UNL     1      45.975   4.691  14.287  0.00  0.00    +0.000 A 
BRANCH   9  11
ATOM     11  N   UNL     1      47.654   4.769  16.045  0.00  0.00    +0.000 N 
ATOM     12  C   UNL     1      47.470   3.416  16.578  0.00  0.00    +0.000 C 
ATOM     13  C   UNL     1      48.821   2.728  16.750  0.00  0.00    +0.000 C 
ATOM     14  C   UNL     1      49.792   3.586  17.561  0.00  0.00    +0.000 C 
ATOM     15  C   UNL     1      49.894   5.006  17.010  0.00  0.00    +0.000 C 
ATOM     16  C   UNL     1      48.524   5.657  16.822  0.00  0.00    +0.000 C 
BRANCH  14  17
ATOM     17  O   UNL     1      49.419   3.606  18.939  0.00  0.00    +0.000 OA
ATOM     18  H   UNL     1      49.597   4.489  19.306  0.00  0.00    +0.000 HD
ENDBRANCH  14  17
ENDBRANCH   9  11
ENDBRANCH   1   4
BRANCH   1  19
ATOM     19  C   UNL     1      43.940   4.891  11.048  0.00  0.00    +0.000 C 
BRANCH  19  20
ATOM     20  O   UNL     1      43.565   3.716  10.305  0.00  0.00    +0.000 OA
BRANCH  20  24
ATOM     21  C   UNL     1      46.518   2.639   7.645  0.00  0.00    +0.000 A 
ATOM     22  C   UNL     1      46.171   3.984   7.780  0.00  0.00    +0.000 A 
ATOM     23  C   UNL     1      45.162   4.338   8.679  0.00  0.00    +0.000 A 
ATOM     24  C   UNL     1      44.543   3.334   9.409  0.00  0.00    +0.000 A 
ATOM     25  N   UNL     1      44.850   2.025   9.287  0.00  0.00    +0.000 NA
ATOM     26  C   UNL     1      45.823   1.704   8.398  0.00  0.00    +0.000 A 
BRANCH  21  28
ATOM     27  N   UNL     1      47.925   2.959   5.689  0.00  0.00    +0.000 N 
ATOM     28  C   UNL     1      47.579   2.154   6.736  0.00  0.00    +0.000 C 
ATOM     29  O   UNL     1      48.157   1.096   6.941  0.00  0.00    +0.000 OA
ATOM     30  H   UNL     1      48.735   2.668   5.154  0.00  0.00    +0.000 HD
ATOM     31  H   UNL     1      47.660   3.933   5.639  0.00  0.00    +0.000 HD
ENDBRANCH  21  28
ENDBRANCH  20  24
ENDBRANCH  19  20
ENDBRANCH   1  19
TORSDOF 7
ENDMDL
MODEL 3
REMARK VINA RESULT:    -8.188      2.437      3.108
REMARK INTER + INTRA:         -12.536
REMARK INTER:                 -12.065
REMARK INTRA:                  -0.471
REMARK UNBOUND:                -1.237
REMARK  Name = 
REMARK  7 active torsions:
REMARK  status: ('A' for Active; 'I' for Inactive)
REMARK    1  A    between atoms: C_2  and  C_4
REMARK    2  A    between atoms: C_7  and  O_8
REMARK    3  A    between atoms: O_8  and  C_9
REMARK    4  A    between atoms: C_9  and  C_10
REMARK    5  A    between atoms: C_10  and  C_13
REMARK    6  A    between atoms: C_18  and  N_19
REMARK    7  A    between atoms: C_22  and  O_23
REMARK                            x       y       z     vdW  Elec       q    Type
REMARK                         _______ _______ _______ _____ _____    ______ ____
ROOT
ATOM      1  C   UNL     1      44.088   4.152  12.395  0.00  0.00    +0.000 C 
ATOM      2  F   UNL     1      43.201   4.129  13.436  0.00  0.00    +0.000 F 
ATOM      3  F   UNL     1      44.926   3.094  12.610  0.00  0.00    +0.000 F 
ENDROOT
BRANCH   1   4
ATOM      4  C   UNL     1      44.848   5.464  12.332  0.00  0.00    +0.000 A 
ATOM      5  C   UNL     1      44.220   6.630  11.887  0.00  0.00    +0.000 A 
ATOM      6  C   UNL     1      44.936   7.818  11.858  0.00  0.00    +0.000 A 
ATOM      7  F   UNL     1      44.332   8.937  11.433  0.00  0.00    +0.000 F 
ATOM      8  C   UNL     1      46.265   7.876  12.270  0.00  0.00    +0.000 A 
ATOM      9  C   UNL     1      46.933   6.735  12.733  0.00  0.00    +0.000 A 
ATOM     10  C   UNL     1      46.194   5.535  12.744  0.00  0.00    +0.000 A 
BRANCH   9  11
ATOM     11  N   UNL     1      48.254   6.765  13.145  0.00  0.00    +0.000 N 
ATOM     12  C   UNL     1      49.349   7.104  12.232  0.00  0.00    +0.000 C 
ATOM     13  C   UNL     1      49.985   8.428  12.640  0.00  0.00    +0.000 C 
ATOM     14  C   UNL     1      50.388   8.431  14.114  0.00  0.00    +0.000 C 
ATOM     15  C   UNL     1      49.235   8.002  15.020  0.00  0.00    +0.000 C 
ATOM     16  C   UNL     1      48.601   6.686  14.568  0.00  0.00    +0.000 C 
BRANCH  14  17
ATOM     17  O   UNL     1      51.531   7.604  14.328  0.00  0.00    +0.000 OA
ATOM     18  H   UNL     1      52.283   8.160  14.594  0.00  0.00    +0.000 HD
ENDBRANCH  14  17
ENDBRANCH   9  11
ENDBRANCH   1   4
BRANCH   1  19
ATOM     19  C   UNL     1      43.319   3.917  11.088  0.00  0.00    +0.000 C 
BRANCH  19  20
ATOM     20  O   UNL     1      43.872   4.699  10.013  0.00  0.00    +0.000 OA
BRANCH  20  24
ATOM     21  C   UNL     1      46.440   2.465   7.694  0.00  0.00    +0.000 A 
ATOM     22  C   UNL     1      45.591   1.822   8.597  0.00  0.00    +0.000 A 
ATOM     23  C   UNL     1      44.730   2.589   9.385  0.00  0.00    +0.000 A 
ATOM     24  C   UNL     1      44.750   3.968   9.237  0.00  0.00    +0.000 A 
ATOM     25  N   UNL     1      45.571   4.616   8.382  0.00  0.00    +0.000 NA
ATOM     26  C   UNL     1      46.406   3.851   7.639  0.00  0.00    +0.000 A 
BRANCH  21  28
ATOM     27  N   UNL     1      48.419   2.470   6.285  0.00  0.00    +0.000 N 
ATOM     28  C   UNL     1      47.379   1.753   6.803  0.00  0.00    +0.000 C 
ATOM     29  O   UNL     1      47.257   0.557   6.576  0.00  0.00    +0.000 OA
ATOM     30  H   UNL     1      49.118   1.937   5.780  0.00  0.00    +0.000 HD
ATOM     31  H   UNL     1      48.696   3.371   6.648  0.00  0.00    +0.000 HD
ENDBRANCH  21  28
ENDBRANCH  20  24
ENDBRANCH  19  20
ENDBRANCH   1  19
TORSDOF 7
ENDMDL
MODEL 4
REMARK VINA RESULT:    -7.976      2.624      3.799
REMARK INTER + INTRA:         -12.243
REMARK INTER:                 -11.081
REMARK INTRA:                  -1.163
REMARK UNBOUND:                -1.237
REMARK  Name = 
REMARK  7 active torsions:
REMARK  status: ('A' for Active; 'I' for Inactive)
REMARK    1  A    between atoms: C_2  and  C_4
REMARK    2  A    between atoms: C_7  and  O_8
REMARK    3  A    between atoms: O_8  and  C_9
REMARK    4  A    between atoms: C_9  and  C_10
REMARK    5  A    between atoms: C_10  and  C_13
REMARK    6  A    between atoms: C_18  and  N_19
REMARK    7  A    between atoms: C_22  and  O_23
REMARK                            x       y       z     vdW  Elec       q    Type
REMARK                         _______ _______ _______ _____ _____    ______ ____
ROOT
ATOM      1  C   UNL     1      44.061   5.262  12.160  0.00  0.00    +0.000 C 
ATOM      2  F   UNL     1      43.991   6.170  11.141  0.00  0.00    +0.000 F 
ATOM      3  F   UNL     1      42.982   5.528  12.956  0.00  0.00    +0.000 F 
ENDROOT
BRANCH   1   4
ATOM      4  C   UNL     1      45.365   5.376  12.927  0.00  0.00    +0.000 A 
ATOM      5  C   UNL     1      45.733   4.400  13.856  0.00  0.00    +0.000 A 
ATOM      6  C   UNL     1      46.941   4.522  14.528  0.00  0.00    +0.000 A 
ATOM      7  F   UNL     1      47.293   3.584  15.418  0.00  0.00    +0.000 F 
ATOM      8  C   UNL     1      47.799   5.593  14.291  0.00  0.00    +0.000 A 
ATOM      9  C   UNL     1      47.477   6.590  13.362  0.00  0.00    +0.000 A 
ATOM     10  C   UNL     1      46.241   6.457  12.698  0.00  0.00    +0.000 A 
BRANCH   9  11
ATOM     11  N   UNL     1      48.311   7.666  13.109  0.00  0.00    +0.000 N 
ATOM     12  C   UNL     1      48.321   8.359  11.817  0.00  0.00    +0.000 C 
ATOM     13  C   UNL     1      47.793   9.780  11.976  0.00  0.00    +0.000 C 
ATOM     14  C   UNL     1      48.525  10.534  13.087  0.00  0.00    +0.000 C 
ATOM     15  C   UNL     1      48.550   9.741  14.392  0.00  0.00    +0.000 C 
ATOM     16  C   UNL     1      49.057   8.312  14.194  0.00  0.00    +0.000 C 
BRANCH  14  17
ATOM     17  O   UNL     1      49.849  10.875  12.679  0.00  0.00    +0.000 OA
ATOM     18  H   UNL     1      50.044  10.444  11.830  0.00  0.00    +0.000 HD
ENDBRANCH  14  17
ENDBRANCH   9  11
ENDBRANCH   1   4
BRANCH   1  19
ATOM     19  C   UNL     1      43.908   3.852  11.574  0.00  0.00    +0.000 C 
BRANCH  19  20
ATOM     20  O   UNL     1      43.513   3.906  10.190  0.00  0.00    +0.000 OA
BRANCH  20  24
ATOM     21  C   UNL     1      46.516   2.608   7.689  0.00  0.00    +0.000 A 
ATOM     22  C   UNL     1      46.190   3.965   7.727  0.00  0.00    +0.000 A 
ATOM     23  C   UNL     1      45.164   4.394   8.572  0.00  0.00    +0.000 A 
ATOM     24  C   UNL     1      44.507   3.450   9.348  0.00  0.00    +0.000 A 
ATOM     25  N   UNL     1      44.793   2.130   9.319  0.00  0.00    +0.000 NA
ATOM     26  C   UNL     1      45.783   1.736   8.481  0.00  0.00    +0.000 A 
BRANCH  21  28
ATOM     27  N   UNL     1      48.113   2.854   5.874  0.00  0.00    +0.000 N 
ATOM     28  C   UNL     1      47.591   2.047   6.843  0.00  0.00    +0.000 C 
ATOM     29  O   UNL     1      48.029   0.921   7.035  0.00  0.00    +0.000 OA
ATOM     30  H   UNL     1      48.930   2.497   5.391  0.00  0.00    +0.000 HD
ATOM     31  H   UNL     1      47.964   3.853   5.857  0.00  0.00    +0.000 HD
ENDBRANCH  21  28
ENDBRANCH  20  24
ENDBRANCH  19  20
ENDBRANCH   1  19
TORSDOF 7
ENDMDL
MODEL 5
REMARK VINA RESULT:    -7.730      2.403      3.241
REMARK INTER + INTRA:         -11.905
REMARK INTER:                 -10.968
REMARK INTRA:                  -0.937
REMARK UNBOUND:                -1.237
REMARK  Name = 
REMARK  7 active torsions:
REMARK  status: ('A' for Active; 'I' for Inactive)
REMARK    1  A    between atoms: C_2  and  C_4
REMARK    2  A    between atoms: C_7  and  O_8
REMARK    3  A    between atoms: O_8  and  C_9
REMARK    4  A    between atoms: C_9  and  C_10
REMARK    5  A    between atoms: C_10  and  C_13
REMARK    6  A    between atoms: C_18  and  N_19
REMARK    7  A    between atoms: C_22  and  O_23
REMARK                            x       y       z     vdW  Elec       q    Type
REMARK                         _______ _______ _______ _____ _____    ______ ____
ROOT
ATOM      1  C   UNL     1      44.893   6.105  11.561  0.00  0.00    +0.000 C 
ATOM      2  F   UNL     1      45.487   6.586  10.427  0.00  0.00    +0.000 F 
ATOM      3  F   UNL     1      43.996   7.066  11.935  0.00  0.00    +0.000 F 
ENDROOT
BRANCH   1   4
ATOM      4  C   UNL     1      45.908   5.830  12.655  0.00  0.00    +0.000 A 
ATOM      5  C   UNL     1      46.023   4.557  13.217  0.00  0.00    +0.000 A 
ATOM      6  C   UNL     1      46.973   4.331  14.203  0.00  0.00    +0.000 A 
ATOM      7  F   UNL     1      47.083   3.109  14.740  0.00  0.00    +0.000 F 
ATOM      8  C   UNL     1      47.822   5.346  14.639  0.00  0.00    +0.000 A 
ATOM      9  C   UNL     1      47.751   6.636  14.097  0.00  0.00    +0.000 A 
ATOM     10  C   UNL     1      46.772   6.849  13.106  0.00  0.00    +0.000 A 
BRANCH   9  11
ATOM     11  N   UNL     1      48.581   7.663  14.514  0.00  0.00    +0.000 N 
ATOM     12  C   UNL     1      48.067   8.994  14.849  0.00  0.00    +0.000 C 
ATOM     13  C   UNL     1      48.242   9.268  16.339  0.00  0.00    +0.000 C 
ATOM     14  C   UNL     1      49.683   9.030  16.791  0.00  0.00    +0.000 C 
ATOM     15  C   UNL     1      50.198   7.659  16.356  0.00  0.00    +0.000 C 
ATOM     16  C   UNL     1      49.980   7.404  14.865  0.00  0.00    +0.000 C 
BRANCH  14  17
ATOM     17  O   UNL     1      50.541  10.065  16.311  0.00  0.00    +0.000 OA
ATOM     18  H   UNL     1      50.353  10.227  15.371  0.00  0.00    +0.000 HD
ENDBRANCH  14  17
ENDBRANCH   9  11
ENDBRANCH   1   4
BRANCH   1  19
ATOM     19  C   UNL     1      44.128   4.822  11.209  0.00  0.00    +0.000 C 
BRANCH  19  20
ATOM     20  O   UNL     1      43.825   4.768   9.802  0.00  0.00    +0.000 OA
BRANCH  20  24
ATOM     21  C   UNL     1      46.361   2.250   7.755  0.00  0.00    +0.000 A 
ATOM     22  C   UNL     1      45.495   1.724   8.715  0.00  0.00    +0.000 A 
ATOM     23  C   UNL     1      44.645   2.587   9.410  0.00  0.00    +0.000 A 
ATOM     24  C   UNL     1      44.692   3.941   9.115  0.00  0.00    +0.000 A 
ATOM     25  N   UNL     1      45.530   4.478   8.202  0.00  0.00    +0.000 NA
ATOM     26  C   UNL     1      46.355   3.623   7.551  0.00  0.00    +0.000 A 
BRANCH  21  28
ATOM     27  N   UNL     1      48.376   2.057   6.411  0.00  0.00    +0.000 N 
ATOM     28  C   UNL     1      47.291   1.429   6.952  0.00  0.00    +0.000 C 
ATOM     29  O   UNL     1      47.122   0.225   6.818  0.00  0.00    +0.000 OA
ATOM     30  H   UNL     1      49.064   1.455   5.972  0.00  0.00    +0.000 HD
ATOM     31  H   UNL     1      48.683   2.971   6.711  0.00  0.00    +0.000 HD
ENDBRANCH  21  28
ENDBRANCH  20  24
ENDBRANCH  19  20
ENDBRANCH   1  19
TORSDOF 7
ENDMDL
MODEL 6
REMARK VINA RESULT:    -7.500      3.504      7.571
REMARK INTER + INTRA:         -11.587
REMARK INTER:                 -10.275
REMARK INTRA:                  -1.312
REMARK UNBOUND:                -1.237
REMARK  Name = 
REMARK  7 active torsions:
REMARK  status: ('A' for Active; 'I' for Inactive)
REMARK    1  A    between atoms: C_2  and  C_4
REMARK    2  A    between atoms: C_7  and  O_8
REMARK    3  A    between atoms: O_8  and  C_9
REMARK    4  A    between atoms: C_9  and  C_10
REMARK    5  A    between atoms: C_10  and  C_13
REMARK    6  A    between atoms: C_18  and  N_19
REMARK    7  A    between atoms: C_22  and  O_23
REMARK                            x       y       z     vdW  Elec       q    Type
REMARK                         _______ _______ _______ _____ _____    ______ ____
ROOT
ATOM      1  C   UNL     1      49.020   8.100  12.119  0.00  0.00    +0.000 C 
ATOM      2  F   UNL     1      49.578   9.323  12.367  0.00  0.00    +0.000 F 
ATOM      3  F   UNL     1      49.589   7.673  10.952  0.00  0.00    +0.000 F 
ENDROOT
BRANCH   1   4
ATOM      4  C   UNL     1      47.509   8.181  12.009  0.00  0.00    +0.000 A 
ATOM      5  C   UNL     1      46.851   9.408  12.119  0.00  0.00    +0.000 A 
ATOM      6  C   UNL     1      45.470   9.452  11.996  0.00  0.00    +0.000 A 
ATOM      7  F   UNL     1      44.840  10.631  12.100  0.00  0.00    +0.000 F 
ATOM      8  C   UNL     1      44.724   8.300  11.757  0.00  0.00    +0.000 A 
ATOM      9  C   UNL     1      45.341   7.049  11.629  0.00  0.00    +0.000 A 
ATOM     10  C   UNL     1      46.743   7.021  11.770  0.00  0.00    +0.000 A 
BRANCH   9  11
ATOM     11  N   UNL     1      44.623   5.888  11.394  0.00  0.00    +0.000 N 
ATOM     12  C   UNL     1      45.277   4.625  11.041  0.00  0.00    +0.000 C 
ATOM     13  C   UNL     1      45.097   3.606  12.161  0.00  0.00    +0.000 C 
ATOM     14  C   UNL     1      43.627   3.453  12.553  0.00  0.00    +0.000 C 
ATOM     15  C   UNL     1      42.971   4.801  12.841  0.00  0.00    +0.000 C 
ATOM     16  C   UNL     1      43.195   5.809  11.713  0.00  0.00    +0.000 C 
BRANCH  14  17
ATOM     17  O   UNL     1      42.905   2.747  11.544  0.00  0.00    +0.000 OA
ATOM     18  H   UNL     1      42.249   3.342  11.145  0.00  0.00    +0.000 HD
ENDBRANCH  14  17
ENDBRANCH   9  11
ENDBRANCH   1   4
BRANCH   1  19
ATOM     19  C   UNL     1      49.422   7.139  13.246  0.00  0.00    +0.000 C 
BRANCH  19  20
ATOM     20  O   UNL     1      48.896   7.577  14.513  0.00  0.00    +0.000 OA
BRANCH  20  24
ATOM     21  C   UNL     1      47.953   4.460  17.034  0.00  0.00    +0.000 A 
ATOM     22  C   UNL     1      48.675   5.550  17.526  0.00  0.00    +0.000 A 
ATOM     23  C   UNL     1      48.997   6.597  16.661  0.00  0.00    +0.000 A 
ATOM     24  C   UNL     1      48.583   6.517  15.340  0.00  0.00    +0.000 A 
ATOM     25  N   UNL     1      47.896   5.468  14.836  0.00  0.00    +0.000 NA
ATOM     26  C   UNL     1      47.608   4.458  15.691  0.00  0.00    +0.000 A 
BRANCH  21  28
ATOM     27  N   UNL     1      48.276   3.054  18.990  0.00  0.00    +0.000 N 
ATOM     28  C   UNL     1      47.546   3.306  17.863  0.00  0.00    +0.000 C 
ATOM     29  O   UNL     1      46.567   2.632  17.577  0.00  0.00    +0.000 OA
ATOM     30  H   UNL     1      47.907   2.339  19.606  0.00  0.00    +0.000 HD
ATOM     31  H   UNL     1      48.913   3.727  19.389  0.00  0.00    +0.000 HD
ENDBRANCH  21  28
ENDBRANCH  20  24
ENDBRANCH  19  20
ENDBRANCH   1  19
TORSDOF 7
ENDMDL
MODEL 7
REMARK VINA RESULT:    -6.911      3.960      8.610
REMARK INTER + INTRA:         -10.774
REMARK INTER:                  -9.797
REMARK INTRA:                  -0.976
REMARK UNBOUND:                -1.237
REMARK  Name = 
REMARK  7 active torsions:
REMARK  status: ('A' for Active; 'I' for Inactive)
REMARK    1  A    between atoms: C_2  and  C_4
REMARK    2  A    between atoms: C_7  and  O_8
REMARK    3  A    between atoms: O_8  and  C_9
REMARK    4  A    between atoms: C_9  and  C_10
REMARK    5  A    between atoms: C_10  and  C_13
REMARK    6  A    between atoms: C_18  and  N_19
REMARK    7  A    between atoms: C_22  and  O_23
REMARK                            x       y       z     vdW  Elec       q    Type
REMARK                         _______ _______ _______ _____ _____    ______ ____
ROOT
ATOM      1  C   UNL     1      47.450   4.101  17.209  0.00  0.00    +0.000 C 
ATOM      2  F   UNL     1      46.702   2.978  16.988  0.00  0.00    +0.000 F 
ATOM      3  F   UNL     1      46.787   4.791  18.186  0.00  0.00    +0.000 F 
ENDROOT
BRANCH   1   4
ATOM      4  C   UNL     1      47.609   4.930  15.948  0.00  0.00    +0.000 A 
ATOM      5  C   UNL     1      48.595   5.915  15.861  0.00  0.00    +0.000 A 
ATOM      6  C   UNL     1      48.728   6.643  14.688  0.00  0.00    +0.000 A 
ATOM      7  F   UNL     1      49.676   7.586  14.606  0.00  0.00    +0.000 F 
ATOM      8  C   UNL     1      47.903   6.408  13.590  0.00  0.00    +0.000 A 
ATOM      9  C   UNL     1      46.907   5.424  13.627  0.00  0.00    +0.000 A 
ATOM     10  C   UNL     1      46.778   4.703  14.831  0.00  0.00    +0.000 A 
BRANCH   9  11
ATOM     11  N   UNL     1      46.072   5.173  12.551  0.00  0.00    +0.000 N 
ATOM     12  C   UNL     1      45.030   4.143  12.596  0.00  0.00    +0.000 C 
ATOM     13  C   UNL     1      43.649   4.788  12.542  0.00  0.00    +0.000 C 
ATOM     14  C   UNL     1      43.520   5.747  11.358  0.00  0.00    +0.000 C 
ATOM     15  C   UNL     1      44.667   6.753  11.312  0.00  0.00    +0.000 C 
ATOM     16  C   UNL     1      46.036   6.078  11.398  0.00  0.00    +0.000 C 
BRANCH  14  17
ATOM     17  O   UNL     1      43.434   5.025  10.130  0.00  0.00    +0.000 OA
ATOM     18  H   UNL     1      42.559   5.171   9.732  0.00  0.00    +0.000 HD
ENDBRANCH  14  17
ENDBRANCH   9  11
ENDBRANCH   1   4
BRANCH   1  19
ATOM     19  C   UNL     1      48.824   3.679  17.747  0.00  0.00    +0.000 C 
BRANCH  19  20
ATOM     20  O   UNL     1      49.481   2.776  16.838  0.00  0.00    +0.000 OA
BRANCH  20  24
ATOM     21  C   UNL     1      53.237   1.773  18.198  0.00  0.00    +0.000 A 
ATOM     22  C   UNL     1      52.839   3.111  18.198  0.00  0.00    +0.000 A 
ATOM     23  C   UNL     1      51.566   3.442  17.727  0.00  0.00    +0.000 A 
ATOM     24  C   UNL     1      50.741   2.422  17.277  0.00  0.00    +0.000 A 
ATOM     25  N   UNL     1      51.107   1.122  17.253  0.00  0.00    +0.000 NA
ATOM     26  C   UNL     1      52.351   0.827  17.702  0.00  0.00    +0.000 A 
BRANCH  21  28
ATOM     27  N   UNL     1      54.581   0.150  19.408  0.00  0.00    +0.000 N 
ATOM     28  C   UNL     1      54.552   1.309  18.686  0.00  0.00    +0.000 C 
ATOM     29  O   UNL     1      55.581   1.914  18.414  0.00  0.00    +0.000 OA
ATOM     30  H   UNL     1      55.502  -0.215  19.625  0.00  0.00    +0.000 HD
ATOM     31  H   UNL     1      53.808  -0.499  19.429  0.00  0.00    +0.000 HD
ENDBRANCH  21  28
ENDBRANCH  20  24
ENDBRANCH  19  20
ENDBRANCH   1  19
TORSDOF 7
ENDMDL
MODEL 8
REMARK VINA RESULT:    -6.635      3.127      4.741
REMARK INTER + INTRA:         -10.394
REMARK INTER:                  -9.052
REMARK INTRA:                  -1.342
REMARK UNBOUND:                -1.237
REMARK  Name = 
REMARK  7 active torsions:
REMARK  status: ('A' for Active; 'I' for Inactive)
REMARK    1  A    between atoms: C_2  and  C_4
REMARK    2  A    between atoms: C_7  and  O_8
REMARK    3  A    between atoms: O_8  and  C_9
REMARK    4  A    between atoms: C_9  and  C_10
REMARK    5  A    between atoms: C_10  and  C_13
REMARK    6  A    between atoms: C_18  and  N_19
REMARK    7  A    between atoms: C_22  and  O_23
REMARK                            x       y       z     vdW  Elec       q    Type
REMARK                         _______ _______ _______ _____ _____    ______ ____
ROOT
ATOM      1  C   UNL     1      48.823   7.404  12.836  0.00  0.00    +0.000 C 
ATOM      2  F   UNL     1      48.934   6.056  12.638  0.00  0.00    +0.000 F 
ATOM      3  F   UNL     1      49.906   7.953  12.207  0.00  0.00    +0.000 F 
ENDROOT
BRANCH   1   4
ATOM      4  C   UNL     1      48.795   7.757  14.312  0.00  0.00    +0.000 A 
ATOM      5  C   UNL     1      48.812   9.090  14.727  0.00  0.00    +0.000 A 
ATOM      6  C   UNL     1      48.766   9.381  16.083  0.00  0.00    +0.000 A 
ATOM      7  F   UNL     1      48.780  10.661  16.479  0.00  0.00    +0.000 F 
ATOM      8  C   UNL     1      48.697   8.371  17.040  0.00  0.00    +0.000 A 
ATOM      9  C   UNL     1      48.668   7.021  16.671  0.00  0.00    +0.000 A 
ATOM     10  C   UNL     1      48.727   6.744  15.291  0.00  0.00    +0.000 A 
BRANCH   9  11
ATOM     11  N   UNL     1      48.602   5.998  17.603  0.00  0.00    +0.000 N 
ATOM     12  C   UNL     1      47.325   5.456  18.076  0.00  0.00    +0.000 C 
ATOM     13  C   UNL     1      47.158   4.014  17.607  0.00  0.00    +0.000 C 
ATOM     14  C   UNL     1      48.369   3.157  17.977  0.00  0.00    +0.000 C 
ATOM     15  C   UNL     1      49.680   3.798  17.527  0.00  0.00    +0.000 C 
ATOM     16  C   UNL     1      49.803   5.251  17.988  0.00  0.00    +0.000 C 
BRANCH  14  17
ATOM     17  O   UNL     1      48.392   2.893  19.379  0.00  0.00    +0.000 OA
ATOM     18  H   UNL     1      49.216   3.246  19.758  0.00  0.00    +0.000 HD
ENDBRANCH  14  17
ENDBRANCH   9  11
ENDBRANCH   1   4
BRANCH   1  19
ATOM     19  C   UNL     1      47.545   7.900  12.145  0.00  0.00    +0.000 C 
BRANCH  19  20
ATOM     20  O   UNL     1      46.375   7.548  12.907  0.00  0.00    +0.000 OA
BRANCH  20  24
ATOM     21  C   UNL     1      44.572   4.091  11.583  0.00  0.00    +0.000 A 
ATOM     22  C   UNL     1      45.077   4.149  12.883  0.00  0.00    +0.000 A 
ATOM     23  C   UNL     1      45.695   5.323  13.320  0.00  0.00    +0.000 A 
ATOM     24  C   UNL     1      45.779   6.393  12.441  0.00  0.00    +0.000 A 
ATOM     25  N   UNL     1      45.312   6.358  11.174  0.00  0.00    +0.000 NA
ATOM     26  C   UNL     1      44.730   5.203  10.769  0.00  0.00    +0.000 A 
BRANCH  21  28
ATOM     27  N   UNL     1      44.454   2.313   9.930  0.00  0.00    +0.000 N 
ATOM     28  C   UNL     1      43.888   2.906  11.022  0.00  0.00    +0.000 C 
ATOM     29  O   UNL     1      42.882   2.447  11.544  0.00  0.00    +0.000 OA
ATOM     30  H   UNL     1      44.042   1.434   9.639  0.00  0.00    +0.000 HD
ATOM     31  H   UNL     1      45.403   2.500   9.638  0.00  0.00    +0.000 HD
ENDBRANCH  21  28
ENDBRANCH  20  24
ENDBRANCH  19  20
ENDBRANCH   1  19
TORSDOF 7
ENDMDL
MODEL 9
REMARK VINA RESULT:    -6.332      3.662      7.810
REMARK INTER + INTRA:          -9.975
REMARK INTER:                  -8.849
REMARK INTRA:                  -1.127
REMARK UNBOUND:                -1.237
REMARK  Name = 
REMARK  7 active torsions:
REMARK  status: ('A' for Active; 'I' for Inactive)
REMARK    1  A    between atoms: C_2  and  C_4
REMARK    2  A    between atoms: C_7  and  O_8
REMARK    3  A    between atoms: O_8  and  C_9
REMARK    4  A    between atoms: C_9  and  C_10
REMARK    5  A    between atoms: C_10  and  C_13
REMARK    6  A    between atoms: C_18  and  N_19
REMARK    7  A    between atoms: C_22  and  O_23
REMARK                            x       y       z     vdW  Elec       q    Type
REMARK                         _______ _______ _______ _____ _____    ______ ____
ROOT
ATOM      1  C   UNL     1      49.205   7.889  12.398  0.00  0.00    +0.000 C 
ATOM      2  F   UNL     1      49.617   8.741  11.411  0.00  0.00    +0.000 F 
ATOM      3  F   UNL     1      49.727   6.671  12.067  0.00  0.00    +0.000 F 
ENDROOT
BRANCH   1   4
ATOM      4  C   UNL     1      47.692   7.840  12.505  0.00  0.00    +0.000 A 
ATOM      5  C   UNL     1      46.933   9.010  12.422  0.00  0.00    +0.000 A 
ATOM      6  C   UNL     1      45.550   8.931  12.504  0.00  0.00    +0.000 A 
ATOM      7  F   UNL     1      44.824  10.054  12.422  0.00  0.00    +0.000 F 
ATOM      8  C   UNL     1      44.901   7.708  12.659  0.00  0.00    +0.000 A 
ATOM      9  C   UNL     1      45.619   6.509  12.738  0.00  0.00    +0.000 A 
ATOM     10  C   UNL     1      47.023   6.609  12.665  0.00  0.00    +0.000 A 
BRANCH   9  11
ATOM     11  N   UNL     1      44.998   5.281  12.895  0.00  0.00    +0.000 N 
ATOM     12  C   UNL     1      43.541   5.150  12.981  0.00  0.00    +0.000 C 
ATOM     13  C   UNL     1      43.005   4.411  11.760  0.00  0.00    +0.000 C 
ATOM     14  C   UNL     1      43.732   3.085  11.538  0.00  0.00    +0.000 C 
ATOM     15  C   UNL     1      45.249   3.262  11.529  0.00  0.00    +0.000 C 
ATOM     16  C   UNL     1      45.751   4.032  12.751  0.00  0.00    +0.000 C 
BRANCH  14  17
ATOM     17  O   UNL     1      43.344   2.124  12.520  0.00  0.00    +0.000 OA
ATOM     18  H   UNL     1      42.425   2.295  12.789  0.00  0.00    +0.000 HD
ENDBRANCH  14  17
ENDBRANCH   9  11
ENDBRANCH   1   4
BRANCH   1  19
ATOM     19  C   UNL     1      49.818   8.346  13.729  0.00  0.00    +0.000 C 
BRANCH  19  20
ATOM     20  O   UNL     1      48.927   8.081  14.829  0.00  0.00    +0.000 OA
BRANCH  20  24
ATOM     21  C   UNL     1      50.259   4.997  17.211  0.00  0.00    +0.000 A 
ATOM     22  C   UNL     1      48.914   5.047  16.836  0.00  0.00    +0.000 A 
ATOM     23  C   UNL     1      48.471   6.101  16.035  0.00  0.00    +0.000 A 
ATOM     24  C   UNL     1      49.389   7.062  15.638  0.00  0.00    +0.000 A 
ATOM     25  N   UNL     1      50.690   7.046  15.998  0.00  0.00    +0.000 NA
ATOM     26  C   UNL     1      51.094   6.020  16.787  0.00  0.00    +0.000 A 
BRANCH  21  28
ATOM     27  N   UNL     1      51.152   4.228  19.336  0.00  0.00    +0.000 N 
ATOM     28  C   UNL     1      50.838   3.921  18.043  0.00  0.00    +0.000 C 
ATOM     29  O   UNL     1      50.985   2.789  17.605  0.00  0.00    +0.000 OA
ATOM     30  H   UNL     1      51.429   3.448  19.922  0.00  0.00    +0.000 HD
ATOM     31  H   UNL     1      50.810   5.058  19.799  0.00  0.00    +0.000 HD
ENDBRANCH  21  28
ENDBRANCH  20  24
ENDBRANCH  19  20
ENDBRANCH   1  19
TORSDOF 7
ENDMDL
