MODEL 1
REMARK VINA RESULT:    -8.630      0.000      0.000
REMARK INTER + INTRA:         -11.017
REMARK INTER:                 -11.152
REMARK INTRA:                   0.136
REMARK UNBOUND:                 0.136
REMARK  Name = 
REMARK  7 active torsions:
REMARK  status: ('A' for Active; 'I' for Inactive)
REMARK    1  A    between atoms: C_1  and  N_2
REMARK    2  A    between atoms: C_3  and  C_5
REMARK    3  A    between atoms: C_8  and  C_9
REMARK    4  A    between atoms: C_9  and  C_10
REMARK    5  A    between atoms: C_9  and  N_11
REMARK    6  A    between atoms: N_11  and  C_12
REMARK    7  A    between atoms: C_16  and  C_17
REMARK                            x       y       z     vdW  Elec       q    Type
REMARK                         _______ _______ _______ _____ _____    ______ ____
ROOT
ATOM      1  C   UNL     1      43.613   3.504  12.021  0.00  0.00    +0.000 C 
ATOM      2  C   UNL     1      42.668   4.527  11.378  0.00  0.00    +0.000 C 
ENDROOT
BRANCH   1   6
ATOM      3  C   UNL     1      46.988   5.457  13.734  0.00  0.00    +0.000 A 
ATOM      4  C   UNL     1      45.903   6.148  13.242  0.00  0.00    +0.000 A 
ATOM      5  N   UNL     1      44.812   5.550  12.714  0.00  0.00    +0.000 NA
ATOM      6  C   UNL     1      44.812   4.199  12.678  0.00  0.00    +0.000 A 
ATOM      7  N   UNL     1      45.819   3.435  13.163  0.00  0.00    +0.000 NA
ATOM      8  C   UNL     1      46.899   4.086  13.654  0.00  0.00    +0.000 A 
BRANCH   3  11
ATOM      9  C   UNL     1      49.454   6.805  16.245  0.00  0.00    +0.000 C 
ATOM     10  N   UNL     1      48.287   6.216  15.637  0.00  0.00    +0.000 N 
ATOM     11  C   UNL     1      48.200   6.097  14.262  0.00  0.00    +0.000 C 
ATOM     12  O   UNL     1      49.071   6.479  13.490  0.00  0.00    +0.000 OA
ATOM     13  H   UNL     1      47.649   5.710  16.238  0.00  0.00    +0.000 HD
ENDBRANCH   3  11
ENDBRANCH   1   6
BRANCH   1  14
ATOM     14  N   UNL     1      44.027   2.536  10.981  0.00  0.00    +0.000 N 
ATOM     15  H   UNL     1      43.268   1.892  10.771  0.00  0.00    +0.000 HD
BRANCH  14  16
ATOM     16  C   UNL     1      44.719   2.947   9.839  0.00  0.00    +0.000 A 
ATOM     17  C   UNL     1      44.901   4.287   9.483  0.00  0.00    +0.000 A 
ATOM     18  C   UNL     1      45.678   4.652   8.378  0.00  0.00    +0.000 A 
ATOM     19  C   UNL     1      46.327   3.680   7.626  0.00  0.00    +0.000 A 
ATOM     20  C   UNL     1      46.217   2.331   7.983  0.00  0.00    +0.000 A 
ATOM     21  C   UNL     1      45.414   1.983   9.089  0.00  0.00    +0.000 A 
BRANCH  20  22
ATOM     22  C   UNL     1      46.957   1.266   7.216  0.00  0.00    +0.000 C 
ATOM     23  F   UNL     1      46.710   0.001   7.664  0.00  0.00    +0.000 F 
ATOM     24  F   UNL     1      46.639   1.257   5.893  0.00  0.00    +0.000 F 
ATOM     25  F   UNL     1      48.309   1.420   7.276  0.00  0.00    +0.000 F 
ENDBRANCH  20  22
ENDBRANCH  14  16
ENDBRANCH   1  14
TORSDOF 5
ENDMDL
MODEL 2
REMARK VINA RESULT:    -8.329      1.313      2.151
REMARK INTER + INTRA:         -10.628
REMARK INTER:                  -9.902
REMARK INTRA:                  -0.725
REMARK UNBOUND:                 0.136
REMARK  Name = 
REMARK  7 active torsions:
REMARK  status: ('A' for Active; 'I' for Inactive)
REMARK    1  A    between atoms: C_1  and  N_2
REMARK    2  A    between atoms: C_3  and  C_5
REMARK    3  A    between atoms: C_8  and  C_9
REMARK    4  A    between atoms: C_9  and  C_10
REMARK    5  A    between atoms: C_9  and  N_11
REMARK    6  A    between atoms: N_11  and  C_12
REMARK    7  A    between atoms: C_16  and  C_17
REMARK                            x       y       z     vdW  Elec       q    Type
REMARK                         _______ _______ _______ _____ _____    ______ ____
ROOT
ATOM      1  C   UNL     1      43.647   5.125  11.253  0.00  0.00    +0.000 C 
ATOM      2  C   UNL     1      42.625   6.255  11.425  0.00  0.00    +0.000 C 
ENDROOT
BRANCH   1   6
ATOM      3  C   UNL     1      47.079   5.896  13.654  0.00  0.00    +0.000 A 
ATOM      4  C   UNL     1      46.374   4.715  13.727  0.00  0.00    +0.000 A 
ATOM      5  N   UNL     1      45.295   4.439  12.961  0.00  0.00    +0.000 NA
ATOM      6  C   UNL     1      44.909   5.392  12.084  0.00  0.00    +0.000 A 
ATOM      7  N   UNL     1      45.556   6.570  11.921  0.00  0.00    +0.000 NA
ATOM      8  C   UNL     1      46.611   6.806  12.735  0.00  0.00    +0.000 A 
BRANCH   3  11
ATOM      9  C   UNL     1      49.140   6.259  16.789  0.00  0.00    +0.000 C 
ATOM     10  N   UNL     1      48.061   5.991  15.870  0.00  0.00    +0.000 N 
ATOM     11  C   UNL     1      48.221   6.226  14.518  0.00  0.00    +0.000 C 
ATOM     12  O   UNL     1      49.248   6.672  14.022  0.00  0.00    +0.000 OA
ATOM     13  H   UNL     1      47.283   5.438  16.207  0.00  0.00    +0.000 HD
ENDBRANCH   3  11
ENDBRANCH   1   6
BRANCH   1  14
ATOM     14  N   UNL     1      43.946   4.985   9.810  0.00  0.00    +0.000 N 
ATOM     15  H   UNL     1      44.325   5.853   9.438  0.00  0.00    +0.000 HD
BRANCH  14  16
ATOM     16  C   UNL     1      44.593   3.854   9.308  0.00  0.00    +0.000 A 
ATOM     17  C   UNL     1      44.340   2.553   9.754  0.00  0.00    +0.000 A 
ATOM     18  C   UNL     1      44.948   1.442   9.159  0.00  0.00    +0.000 A 
ATOM     19  C   UNL     1      45.796   1.608   8.071  0.00  0.00    +0.000 A 
ATOM     20  C   UNL     1      46.031   2.888   7.557  0.00  0.00    +0.000 A 
ATOM     21  C   UNL     1      45.423   3.996   8.183  0.00  0.00    +0.000 A 
BRANCH  20  22
ATOM     22  C   UNL     1      46.902   3.085   6.343  0.00  0.00    +0.000 C 
ATOM     23  F   UNL     1      47.091   4.396   6.015  0.00  0.00    +0.000 F 
ATOM     24  F   UNL     1      48.149   2.562   6.501  0.00  0.00    +0.000 F 
ATOM     25  F   UNL     1      46.388   2.497   5.227  0.00  0.00    +0.000 F 
ENDBRANCH  20  22
ENDBRANCH  14  16
ENDBRANCH   1  14
TORSDOF 5
ENDMDL
MODEL 3
REMARK VINA RESULT:    -8.091      1.648      2.070
REMARK INTER + INTRA:         -10.321
REMARK INTER:                  -9.588
REMARK INTRA:                  -0.733
REMARK UNBOUND:                 0.136
REMARK  Name = 
REMARK  7 active torsions:
REMARK  status: ('A' for Active; 'I' for Inactive)
REMARK    1  A    between atoms: C_1  and  N_2
REMARK    2  A    between atoms: C_3  and  C_5
REMARK    3  A    between atoms: C_8  and  C_9
REMARK    4  A    between atoms: C_9  and  C_10
REMARK    5  A    between atoms: C_9  and  N_11
REMARK    6  A    between atoms: N_11  and  C_12
REMARK    7  A    between atoms: C_16  and  C_17
REMARK                            x       y       z     vdW  Elec       q    Type
REMARK                         _______ _______ _______ _____ _____    ______ ____
ROOT
ATOM      1  C   UNL     1      43.832   5.177  11.228  0.00  0.00    +0.000 C 
ATOM      2  C   UNL     1      42.688   6.187  11.386  0.00  0.00    +0.000 C 
ENDROOT
BRANCH   1   6
ATOM      3  C   UNL     1      47.394   6.428  13.199  0.00  0.00    +0.000 A 
ATOM      4  C   UNL     1      46.910   7.057  12.074  0.00  0.00    +0.000 A 
ATOM      5  N   UNL     1      45.772   6.692  11.443  0.00  0.00    +0.000 NA
ATOM      6  C   UNL     1      45.090   5.649  11.968  0.00  0.00    +0.000 A 
ATOM      7  N   UNL     1      45.472   4.989  13.085  0.00  0.00    +0.000 NA
ATOM      8  C   UNL     1      46.635   5.377  13.659  0.00  0.00    +0.000 A 
BRANCH   3  11
ATOM      9  C   UNL     1      50.692   8.146  13.812  0.00  0.00    +0.000 C 
ATOM     10  N   UNL     1      49.449   7.716  13.220  0.00  0.00    +0.000 N 
ATOM     11  C   UNL     1      48.656   6.783  13.861  0.00  0.00    +0.000 C 
ATOM     12  O   UNL     1      48.946   6.266  14.934  0.00  0.00    +0.000 OA
ATOM     13  H   UNL     1      49.081   8.262  12.452  0.00  0.00    +0.000 HD
ENDBRANCH   3  11
ENDBRANCH   1   6
BRANCH   1  14
ATOM     14  N   UNL     1      44.075   4.974   9.782  0.00  0.00    +0.000 N 
ATOM     15  H   UNL     1      44.461   5.817   9.363  0.00  0.00    +0.000 HD
BRANCH  14  16
ATOM     16  C   UNL     1      44.677   3.809   9.302  0.00  0.00    +0.000 A 
ATOM     17  C   UNL     1      44.307   2.522   9.706  0.00  0.00    +0.000 A 
ATOM     18  C   UNL     1      44.877   1.381   9.131  0.00  0.00    +0.000 A 
ATOM     19  C   UNL     1      45.805   1.503   8.105  0.00  0.00    +0.000 A 
ATOM     20  C   UNL     1      46.160   2.772   7.632  0.00  0.00    +0.000 A 
ATOM     21  C   UNL     1      45.588   3.909   8.237  0.00  0.00    +0.000 A 
BRANCH  20  22
ATOM     22  C   UNL     1      47.122   2.926   6.481  0.00  0.00    +0.000 C 
ATOM     23  F   UNL     1      47.209   1.818   5.692  0.00  0.00    +0.000 F 
ATOM     24  F   UNL     1      46.781   3.947   5.647  0.00  0.00    +0.000 F 
ATOM     25  F   UNL     1      48.394   3.188   6.892  0.00  0.00    +0.000 F 
ENDBRANCH  20  22
ENDBRANCH  14  16
ENDBRANCH   1  14
TORSDOF 5
ENDMDL
MODEL 4
REMARK VINA RESULT:    -7.685      2.340      2.859
REMARK INTER + INTRA:          -9.796
REMARK INTER:                  -9.174
REMARK INTRA:                  -0.622
REMARK UNBOUND:                 0.136
REMARK  Name = 
REMARK  7 active torsions:
REMARK  status: ('A' for Active; 'I' for Inactive)
REMARK    1  A    between atoms: C_1  and  N_2
REMARK    2  A    between atoms: C_3  and  C_5
REMARK    3  A    between atoms: C_8  and  C_9
REMARK    4  A    between atoms: C_9  and  C_10
REMARK    5  A    between atoms: C_9  and  N_11
REMARK    6  A    between atoms: N_11  and  C_12
REMARK    7  A    between atoms: C_16  and  C_17
REMARK                            x       y       z     vdW  Elec       q    Type
REMARK                         _______ _______ _______ _____ _____    ______ ____
ROOT
ATOM      1  C   UNL     1      44.455   5.777  11.276  0.00  0.00    +0.000 C 
ATOM      2  C   UNL     1      43.026   6.324  11.379  0.00  0.00    +0.000 C 
ENDROOT
BRANCH   1   6
ATOM      3  C   UNL     1      47.254   8.598  12.809  0.00  0.00    +0.000 A 
ATOM      4  C   UNL     1      45.892   8.785  12.893  0.00  0.00    +0.000 A 
ATOM      5  N   UNL     1      44.985   7.895  12.433  0.00  0.00    +0.000 NA
ATOM      6  C   UNL     1      45.468   6.768  11.864  0.00  0.00    +0.000 A 
ATOM      7  N   UNL     1      46.788   6.485  11.762  0.00  0.00    +0.000 NA
ATOM      8  C   UNL     1      47.652   7.423  12.213  0.00  0.00    +0.000 A 
BRANCH   3  11
ATOM      9  C   UNL     1      49.206  10.826  15.139  0.00  0.00    +0.000 C 
ATOM     10  N   UNL     1      48.246   9.892  14.605  0.00  0.00    +0.000 N 
ATOM     11  C   UNL     1      48.249   9.581  13.258  0.00  0.00    +0.000 C 
ATOM     12  O   UNL     1      49.032  10.066  12.450  0.00  0.00    +0.000 OA
ATOM     13  H   UNL     1      47.726   9.324  15.262  0.00  0.00    +0.000 HD
ENDBRANCH   3  11
ENDBRANCH   1   6
BRANCH   1  14
ATOM     14  N   UNL     1      44.733   5.469   9.855  0.00  0.00    +0.000 N 
ATOM     15  H   UNL     1      45.379   6.150   9.462  0.00  0.00    +0.000 HD
BRANCH  14  16
ATOM     16  C   UNL     1      45.000   4.165   9.432  0.00  0.00    +0.000 A 
ATOM     17  C   UNL     1      44.323   3.040   9.914  0.00  0.00    +0.000 A 
ATOM     18  C   UNL     1      44.563   1.763   9.395  0.00  0.00    +0.000 A 
ATOM     19  C   UNL     1      45.459   1.589   8.349  0.00  0.00    +0.000 A 
ATOM     20  C   UNL     1      46.115   2.697   7.799  0.00  0.00    +0.000 A 
ATOM     21  C   UNL     1      45.873   3.973   8.348  0.00  0.00    +0.000 A 
BRANCH  20  22
ATOM     22  C   UNL     1      47.048   2.539   6.626  0.00  0.00    +0.000 C 
ATOM     23  F   UNL     1      46.697   3.293   5.545  0.00  0.00    +0.000 F 
ATOM     24  F   UNL     1      48.328   2.895   6.924  0.00  0.00    +0.000 F 
ATOM     25  F   UNL     1      47.112   1.256   6.175  0.00  0.00    +0.000 F 
ENDBRANCH  20  22
ENDBRANCH  14  16
ENDBRANCH   1  14
TORSDOF 5
ENDMDL
MODEL 5
REMARK VINA RESULT:    -7.539      3.889      6.623
REMARK INTER + INTRA:          -9.607
REMARK INTER:                  -9.541
REMARK INTRA:                  -0.066
REMARK UNBOUND:                 0.136
REMARK  Name = 
REMARK  7 active torsions:
REMARK  status: ('A' for Active; 'I' for Inactive)
REMARK    1  A    between atoms: C_1  and  N_2
REMARK    2  A    between atoms: C_3  and  C_5
REMARK    3  A    between atoms: C_8  and  C_9
REMARK    4  A    between atoms: C_9  and  C_10
REMARK    5  A    between atoms: C_9  and  N_11
REMARK    6  A    between atoms: N_11  and  C_12
REMARK    7  A    between atoms: C_16  and  C_17
REMARK                            x       y       z     vdW  Elec       q    Type
REMARK                         _______ _______ _______ _____ _____    ______ ____
ROOT
ATOM      1  C   UNL     1      43.153   5.642  11.499  0.00  0.00    +0.000 C 
ATOM      2  C   UNL     1      42.669   4.927  12.766  0.00  0.00    +0.000 C 
ENDROOT
BRANCH   1   6
ATOM      3  C   UNL     1      45.276   2.928   8.996  0.00  0.00    +0.000 A 
ATOM      4  C   UNL     1      44.401   2.506   9.972  0.00  0.00    +0.000 A 
ATOM      5  N   UNL     1      43.700   3.347  10.763  0.00  0.00    +0.000 NA
ATOM      6  C   UNL     1      43.888   4.671  10.565  0.00  0.00    +0.000 A 
ATOM      7  N   UNL     1      44.705   5.180   9.613  0.00  0.00    +0.000 NA
ATOM      8  C   UNL     1      45.404   4.292   8.868  0.00  0.00    +0.000 A 
BRANCH   3  11
ATOM      9  C   UNL     1      47.778   1.802   6.411  0.00  0.00    +0.000 C 
ATOM     10  N   UNL     1      46.929   2.614   7.248  0.00  0.00    +0.000 N 
ATOM     11  C   UNL     1      46.081   2.022   8.165  0.00  0.00    +0.000 C 
ATOM     12  O   UNL     1      45.986   0.810   8.320  0.00  0.00    +0.000 OA
ATOM     13  H   UNL     1      47.125   3.605   7.295  0.00  0.00    +0.000 HD
ENDBRANCH   3  11
ENDBRANCH   1   6
BRANCH   1  14
ATOM     14  N   UNL     1      44.006   6.781  11.906  0.00  0.00    +0.000 N 
ATOM     15  H   UNL     1      43.460   7.470  12.419  0.00  0.00    +0.000 HD
BRANCH  14  16
ATOM     16  C   UNL     1      45.275   6.582  12.452  0.00  0.00    +0.000 A 
ATOM     17  C   UNL     1      45.602   5.503  13.281  0.00  0.00    +0.000 A 
ATOM     18  C   UNL     1      46.910   5.296  13.733  0.00  0.00    +0.000 A 
ATOM     19  C   UNL     1      47.933   6.145  13.328  0.00  0.00    +0.000 A 
ATOM     20  C   UNL     1      47.659   7.202  12.454  0.00  0.00    +0.000 A 
ATOM     21  C   UNL     1      46.331   7.405  12.025  0.00  0.00    +0.000 A 
BRANCH  20  22
ATOM     22  C   UNL     1      48.763   8.101  11.958  0.00  0.00    +0.000 C 
ATOM     23  F   UNL     1      48.311   9.253  11.385  0.00  0.00    +0.000 F 
ATOM     24  F   UNL     1      49.608   8.490  12.952  0.00  0.00    +0.000 F 
ATOM     25  F   UNL     1      49.543   7.502  11.016  0.00  0.00    +0.000 F 
ENDBRANCH  20  22
ENDBRANCH  14  16
ENDBRANCH   1  14
TORSDOF 5
ENDMDL
MODEL 6
REMARK VINA RESULT:    -7.448      3.933      6.561
REMARK INTER + INTRA:          -9.490
REMARK INTER:                  -9.169
REMARK INTRA:                  -0.321
REMARK UNBOUND:                 0.136
REMARK  Name = 
REMARK  7 active torsions:
REMARK  status: ('A' for Active; 'I' for Inactive)
REMARK    1  A    between atoms: C_1  and  N_2
REMARK    2  A    between atoms: C_3  and  C_5
REMARK    3  A    between atoms: C_8  and  C_9
REMARK    4  A    between atoms: C_9  and  C_10
REMARK    5  A    between atoms: C_9  and  N_11
REMARK    6  A    between atoms: N_11  and  C_12
REMARK    7  A    between atoms: C_16  and  C_17
REMARK                            x       y       z     vdW  Elec       q    Type
REMARK                         _______ _______ _______ _____ _____    ______ ____
ROOT
ATOM      1  C   UNL     1      43.247   5.613  11.358  0.00  0.00    +0.000 C 
ATOM      2  C   UNL     1      42.661   4.854  12.555  0.00  0.00    +0.000 C 
ENDROOT
BRANCH   1   6
ATOM      3  C   UNL     1      45.429   2.963   8.836  0.00  0.00    +0.000 A 
ATOM      4  C   UNL     1      44.623   2.516   9.860  0.00  0.00    +0.000 A 
ATOM      5  N   UNL     1      43.905   3.335  10.660  0.00  0.00    +0.000 NA
ATOM      6  C   UNL     1      44.002   4.662  10.419  0.00  0.00    +0.000 A 
ATOM      7  N   UNL     1      44.744   5.192   9.419  0.00  0.00    +0.000 NA
ATOM      8  C   UNL     1      45.465   4.327   8.668  0.00  0.00    +0.000 A 
BRANCH   3  11
ATOM      9  C   UNL     1      47.873   1.917   6.165  0.00  0.00    +0.000 C 
ATOM     10  N   UNL     1      47.012   2.699   7.018  0.00  0.00    +0.000 N 
ATOM     11  C   UNL     1      46.253   2.084   7.996  0.00  0.00    +0.000 C 
ATOM     12  O   UNL     1      46.249   0.875   8.194  0.00  0.00    +0.000 OA
ATOM     13  H   UNL     1      47.141   3.703   7.023  0.00  0.00    +0.000 HD
ENDBRANCH   3  11
ENDBRANCH   1   6
BRANCH   1  14
ATOM     14  N   UNL     1      44.114   6.695  11.874  0.00  0.00    +0.000 N 
ATOM     15  H   UNL     1      43.612   7.260  12.555  0.00  0.00    +0.000 HD
BRANCH  14  16
ATOM     16  C   UNL     1      45.439   6.452  12.244  0.00  0.00    +0.000 A 
ATOM     17  C   UNL     1      46.532   7.141  11.709  0.00  0.00    +0.000 A 
ATOM     18  C   UNL     1      47.834   6.926  12.176  0.00  0.00    +0.000 A 
ATOM     19  C   UNL     1      48.065   6.043  13.223  0.00  0.00    +0.000 A 
ATOM     20  C   UNL     1      46.991   5.377  13.825  0.00  0.00    +0.000 A 
ATOM     21  C   UNL     1      45.689   5.594  13.328  0.00  0.00    +0.000 A 
BRANCH  20  22
ATOM     22  C   UNL     1      47.212   4.458  15.000  0.00  0.00    +0.000 C 
ATOM     23  F   UNL     1      48.217   4.865  15.828  0.00  0.00    +0.000 F 
ATOM     24  F   UNL     1      46.109   4.343  15.789  0.00  0.00    +0.000 F 
ATOM     25  F   UNL     1      47.536   3.191  14.621  0.00  0.00    +0.000 F 
ENDBRANCH  20  22
ENDBRANCH  14  16
ENDBRANCH   1  14
TORSDOF 5
ENDMDL
MODEL 7
REMARK VINA RESULT:    -7.171      4.911      7.417
REMARK INTER + INTRA:          -9.132
REMARK INTER:                  -8.417
REMARK INTRA:                  -0.715
REMARK UNBOUND:                 0.136
REMARK  Name = 
REMARK  7 active torsions:
REMARK  status: ('A' for Active; 'I' for Inactive)
REMARK    1  A    between atoms: C_1  and  N_2
REMARK    2  A    between atoms: C_3  and  C_5
REMARK    3  A    between atoms: C_8  and  C_9
REMARK    4  A    between atoms: C_9  and  C_10
REMARK    5  A    between atoms: C_9  and  N_11
REMARK    6  A    between atoms: N_11  and  C_12
REMARK    7  A    between atoms: C_16  and  C_17
REMARK                            x       y       z     vdW  Elec       q    Type
REMARK                         _______ _______ _______ _____ _____    ______ ____
ROOT
ATOM      1  C   UNL     1      44.029   4.865  11.043  0.00  0.00    +0.000 C 
ATOM      2  C   UNL     1      43.081   3.926  11.799  0.00  0.00    +0.000 C 
ENDROOT
BRANCH   1   6
ATOM      3  C   UNL     1      46.095   2.794   7.947  0.00  0.00    +0.000 A 
ATOM      4  C   UNL     1      45.368   2.141   8.918  0.00  0.00    +0.000 A 
ATOM      5  N   UNL     1      44.687   2.777   9.897  0.00  0.00    +0.000 NA
ATOM      6  C   UNL     1      44.740   4.128   9.900  0.00  0.00    +0.000 A 
ATOM      7  N   UNL     1      45.404   4.855   8.972  0.00  0.00    +0.000 NA
ATOM      8  C   UNL     1      46.092   4.167   8.032  0.00  0.00    +0.000 A 
BRANCH   3  11
ATOM      9  C   UNL     1      48.107   2.306   4.797  0.00  0.00    +0.000 C 
ATOM     10  N   UNL     1      47.306   2.886   5.847  0.00  0.00    +0.000 N 
ATOM     11  C   UNL     1      46.880   2.112   6.910  0.00  0.00    +0.000 C 
ATOM     12  O   UNL     1      47.135   0.919   7.027  0.00  0.00    +0.000 OA
ATOM     13  H   UNL     1      47.249   3.896   5.892  0.00  0.00    +0.000 HD
ENDBRANCH   3  11
ENDBRANCH   1   6
BRANCH   1  14
ATOM     14  N   UNL     1      44.983   5.443  12.015  0.00  0.00    +0.000 N 
ATOM     15  H   UNL     1      45.874   4.952  11.977  0.00  0.00    +0.000 HD
BRANCH  14  16
ATOM     16  C   UNL     1      45.134   6.825  12.153  0.00  0.00    +0.000 A 
ATOM     17  C   UNL     1      46.191   7.424  12.846  0.00  0.00    +0.000 A 
ATOM     18  C   UNL     1      46.349   8.813  12.882  0.00  0.00    +0.000 A 
ATOM     19  C   UNL     1      45.473   9.636  12.186  0.00  0.00    +0.000 A 
ATOM     20  C   UNL     1      44.437   9.074  11.432  0.00  0.00    +0.000 A 
ATOM     21  C   UNL     1      44.283   7.672  11.424  0.00  0.00    +0.000 A 
BRANCH  20  22
ATOM     22  C   UNL     1      43.509   9.944  10.623  0.00  0.00    +0.000 C 
ATOM     23  F   UNL     1      42.288   9.379  10.400  0.00  0.00    +0.000 F 
ATOM     24  F   UNL     1      43.257  11.141  11.223  0.00  0.00    +0.000 F 
ATOM     25  F   UNL     1      44.008  10.241   9.392  0.00  0.00    +0.000 F 
ENDBRANCH  20  22
ENDBRANCH  14  16
ENDBRANCH   1  14
TORSDOF 5
ENDMDL
MODEL 8
REMARK VINA RESULT:    -7.127      2.883      4.381
REMARK INTER + INTRA:          -9.075
REMARK INTER:                  -8.437
REMARK INTRA:                  -0.638
REMARK UNBOUND:                 0.136
REMARK  Name = 
REMARK  7 active torsions:
REMARK  status: ('A' for Active; 'I' for Inactive)
REMARK    1  A    between atoms: C_1  and  N_2
REMARK    2  A    between atoms: C_3  and  C_5
REMARK    3  A    between atoms: C_8  and  C_9
REMARK    4  A    between atoms: C_9  and  C_10
REMARK    5  A    between atoms: C_9  and  N_11
REMARK    6  A    between atoms: N_11  and  C_12
REMARK    7  A    between atoms: C_16  and  C_17
REMARK                            x       y       z     vdW  Elec       q    Type
REMARK                         _______ _______ _______ _____ _____    ______ ____
ROOT
ATOM      1  C   UNL     1      46.769   5.162  14.217  0.00  0.00    +0.000 C 
ATOM      2  C   UNL     1      47.759   5.669  13.161  0.00  0.00    +0.000 C 
ENDROOT
BRANCH   1   6
ATOM      3  C   UNL     1      48.629   4.587  18.005  0.00  0.00    +0.000 A 
ATOM      4  C   UNL     1      47.506   3.890  17.618  0.00  0.00    +0.000 A 
ATOM      5  N   UNL     1      46.911   4.040  16.413  0.00  0.00    +0.000 NA
ATOM      6  C   UNL     1      47.469   4.929  15.562  0.00  0.00    +0.000 A 
ATOM      7  N   UNL     1      48.587   5.637  15.843  0.00  0.00    +0.000 NA
ATOM      8  C   UNL     1      49.125   5.470  17.074  0.00  0.00    +0.000 A 
BRANCH   3  11
ATOM      9  C   UNL     1      51.216   4.921  20.726  0.00  0.00    +0.000 C 
ATOM     10  N   UNL     1      50.536   4.967  19.454  0.00  0.00    +0.000 N 
ATOM     11  C   UNL     1      49.253   4.470  19.329  0.00  0.00    +0.000 C 
ATOM     12  O   UNL     1      48.628   3.963  20.253  0.00  0.00    +0.000 OA
ATOM     13  H   UNL     1      50.933   5.554  18.731  0.00  0.00    +0.000 HD
ENDBRANCH   3  11
ENDBRANCH   1   6
BRANCH   1  14
ATOM     14  N   UNL     1      46.127   3.934  13.699  0.00  0.00    +0.000 N 
ATOM     15  H   UNL     1      45.850   3.325  14.467  0.00  0.00    +0.000 HD
BRANCH  14  16
ATOM     16  C   UNL     1      45.173   3.984  12.680  0.00  0.00    +0.000 A 
ATOM     17  C   UNL     1      44.094   4.873  12.672  0.00  0.00    +0.000 A 
ATOM     18  C   UNL     1      43.214   4.949  11.586  0.00  0.00    +0.000 A 
ATOM     19  C   UNL     1      43.423   4.161  10.461  0.00  0.00    +0.000 A 
ATOM     20  C   UNL     1      44.525   3.300  10.405  0.00  0.00    +0.000 A 
ATOM     21  C   UNL     1      45.388   3.226  11.517  0.00  0.00    +0.000 A 
BRANCH  20  22
ATOM     22  C   UNL     1      44.802   2.479   9.171  0.00  0.00    +0.000 C 
ATOM     23  F   UNL     1      44.349   3.054   8.021  0.00  0.00    +0.000 F 
ATOM     24  F   UNL     1      46.132   2.262   8.975  0.00  0.00    +0.000 F 
ATOM     25  F   UNL     1      44.225   1.247   9.220  0.00  0.00    +0.000 F 
ENDBRANCH  20  22
ENDBRANCH  14  16
ENDBRANCH   1  14
TORSDOF 5
ENDMDL
MODEL 9
REMARK VINA RESULT:    -6.966      2.369      3.739
REMARK INTER + INTRA:          -8.867
REMARK INTER:                  -8.370
REMARK INTRA:                  -0.497
REMARK UNBOUND:                 0.136
REMARK  Name = 
REMARK  7 active torsions:
REMARK  status: ('A' for Active; 'I' for Inactive)
REMARK    1  A    between atoms: C_1  and  N_2
REMARK    2  A    between atoms: C_3  and  C_5
REMARK    3  A    between atoms: C_8  and  C_9
REMARK    4  A    between atoms: C_9  and  C_10
REMARK    5  A    between atoms: C_9  and  N_11
REMARK    6  A    between atoms: N_11  and  C_12
REMARK    7  A    between atoms: C_16  and  C_17
REMARK                            x       y       z     vdW  Elec       q    Type
REMARK                         _______ _______ _______ _____ _____    ______ ____
ROOT
ATOM      1  C   UNL     1      45.171   7.799  12.106  0.00  0.00    +0.000 C 
ATOM      2  C   UNL     1      44.863   9.233  11.659  0.00  0.00    +0.000 C 
ENDROOT
BRANCH   1   6
ATOM      3  C   UNL     1      48.986   7.456  13.968  0.00  0.00    +0.000 A 
ATOM      4  C   UNL     1      48.581   6.621  12.951  0.00  0.00    +0.000 A 
ATOM      5  N   UNL     1      47.385   6.724  12.330  0.00  0.00    +0.000 NA
ATOM      6  C   UNL     1      46.560   7.708  12.751  0.00  0.00    +0.000 A 
ATOM      7  N   UNL     1      46.883   8.594  13.723  0.00  0.00    +0.000 NA
ATOM      8  C   UNL     1      48.081   8.427  14.330  0.00  0.00    +0.000 A 
BRANCH   3  11
ATOM      9  C   UNL     1      52.622   7.970  14.822  0.00  0.00    +0.000 C 
ATOM     10  N   UNL     1      51.337   8.021  14.168  0.00  0.00    +0.000 N 
ATOM     11  C   UNL     1      50.262   7.321  14.683  0.00  0.00    +0.000 C 
ATOM     12  O   UNL     1      50.323   6.626  15.690  0.00  0.00    +0.000 OA
ATOM     13  H   UNL     1      51.196   8.735  13.465  0.00  0.00    +0.000 HD
ENDBRANCH   3  11
ENDBRANCH   1   6
BRANCH   1  14
ATOM     14  N   UNL     1      45.042   6.909  10.931  0.00  0.00    +0.000 N 
ATOM     15  H   UNL     1      45.846   7.011  10.315  0.00  0.00    +0.000 HD
BRANCH  14  16
ATOM     16  C   UNL     1      44.630   5.581  11.065  0.00  0.00    +0.000 A 
ATOM     17  C   UNL     1      43.771   5.134  12.074  0.00  0.00    +0.000 A 
ATOM     18  C   UNL     1      43.315   3.811  12.116  0.00  0.00    +0.000 A 
ATOM     19  C   UNL     1      43.678   2.914  11.120  0.00  0.00    +0.000 A 
ATOM     20  C   UNL     1      44.490   3.336  10.061  0.00  0.00    +0.000 A 
ATOM     21  C   UNL     1      44.954   4.668  10.047  0.00  0.00    +0.000 A 
BRANCH  20  22
ATOM     22  C   UNL     1      44.851   2.395   8.940  0.00  0.00    +0.000 C 
ATOM     23  F   UNL     1      44.491   2.853   7.707  0.00  0.00    +0.000 F 
ATOM     24  F   UNL     1      46.189   2.154   8.868  0.00  0.00    +0.000 F 
ATOM     25  F   UNL     1      44.258   1.176   9.068  0.00  0.00    +0.000 F 
ENDBRANCH  20  22
ENDBRANCH  14  16
ENDBRANCH   1  14
TORSDOF 5
ENDMDL
