MODEL 1
REMARK VINA RESULT:    -6.771      0.000      0.000
REMARK INTER + INTRA:          -9.908
REMARK INTER:                  -8.751
REMARK INTRA:                  -1.157
REMARK UNBOUND:                -1.157
REMARK  Name = 
REMARK  5 active torsions:
REMARK  status: ('A' for Active; 'I' for Inactive)
REMARK    1  A    between atoms: C_2  and  C_3
REMARK    2  A    between atoms: C_6  and  C_7
REMARK    3  A    between atoms: C_11  and  C_12
REMARK    4  A    between atoms: C_12  and  N_13
REMARK    5  A    between atoms: C_16  and  C_17
REMARK                            x       y       z     vdW  Elec       q    Type
REMARK                         _______ _______ _______ _____ _____    ______ ____
ROOT
ATOM      1  C   UNL     1      49.269   6.817  17.844  0.00  0.00    +0.000 C 
ATOM      2  C   UNL     1      47.986   6.426  18.546  0.00  0.00    +0.000 C 
ATOM      3  C   UNL     1      48.453   7.841  18.632  0.00  0.00    +0.000 C 
ENDROOT
BRANCH   1   4
ATOM      4  N   UNL     1      50.575   6.504  18.421  0.00  0.00    +0.000 N 
ATOM      5  C   UNL     1      51.308   5.333  18.266  0.00  0.00    +0.000 A 
ATOM      6  C   UNL     1      50.788   4.161  17.744  0.00  0.00    +0.000 A 
ATOM      7  C   UNL     1      51.581   3.008  17.717  0.00  0.00    +0.000 A 
ATOM      8  C   UNL     1      52.886   3.068  18.197  0.00  0.00    +0.000 A 
ATOM      9  C   UNL     1      53.333   4.283  18.677  0.00  0.00    +0.000 A 
ATOM     10  N   UNL     1      52.575   5.398  18.724  0.00  0.00    +0.000 NA
ATOM     11  H   UNL     1      51.172   7.239  18.778  0.00  0.00    +0.000 HD
BRANCH   7  12
ATOM     12  C   UNL     1      50.966   1.758  17.193  0.00  0.00    +0.000 C 
ATOM     13  N   UNL     1      51.307   0.564  17.765  0.00  0.00    +0.000 N 
ATOM     14  O   UNL     1      50.159   1.783  16.269  0.00  0.00    +0.000 OA
ATOM     15  H   UNL     1      51.948   0.438  18.530  0.00  0.00    +0.000 HD
ATOM     16  H   UNL     1      50.852  -0.260  17.392  0.00  0.00    +0.000 HD
ENDBRANCH   7  12
ENDBRANCH   1   4
BRANCH   1  21
ATOM     17  C   UNL     1      48.245   6.366  14.139  0.00  0.00    +0.000 A 
ATOM     18  C   UNL     1      49.191   7.184  13.505  0.00  0.00    +0.000 A 
ATOM     19  C   UNL     1      50.155   7.873  14.243  0.00  0.00    +0.000 A 
ATOM     20  C   UNL     1      50.190   7.755  15.634  0.00  0.00    +0.000 A 
ATOM     21  C   UNL     1      49.268   6.953  16.323  0.00  0.00    +0.000 A 
ATOM     22  C   UNL     1      48.312   6.272  15.546  0.00  0.00    +0.000 A 
BRANCH  17  26
ATOM     23  C   UNL     1      45.268   4.135  12.110  0.00  0.00    +0.000 A 
ATOM     24  C   UNL     1      45.434   5.472  11.767  0.00  0.00    +0.000 A 
ATOM     25  C   UNL     1      46.434   6.216  12.394  0.00  0.00    +0.000 A 
ATOM     26  C   UNL     1      47.232   5.614  13.371  0.00  0.00    +0.000 A 
ATOM     27  N   UNL     1      47.089   4.302  13.691  0.00  0.00    +0.000 NA
ATOM     28  C   UNL     1      46.117   3.597  13.061  0.00  0.00    +0.000 A 
BRANCH  23  30
ATOM     29  N   UNL     1      43.424   2.697  11.015  0.00  0.00    +0.000 NA
ATOM     30  C   UNL     1      44.249   3.341  11.510  0.00  0.00    +0.000 C 
ENDBRANCH  23  30
ENDBRANCH  17  26
ENDBRANCH   1  21
TORSDOF 5
ENDMDL
MODEL 2
REMARK VINA RESULT:    -6.767      1.899      2.833
REMARK INTER + INTRA:          -9.902
REMARK INTER:                  -9.130
REMARK INTRA:                  -0.772
REMARK UNBOUND:                -1.157
REMARK  Name = 
REMARK  5 active torsions:
REMARK  status: ('A' for Active; 'I' for Inactive)
REMARK    1  A    between atoms: C_2  and  C_3
REMARK    2  A    between atoms: C_6  and  C_7
REMARK    3  A    between atoms: C_11  and  C_12
REMARK    4  A    between atoms: C_12  and  N_13
REMARK    5  A    between atoms: C_16  and  C_17
REMARK                            x       y       z     vdW  Elec       q    Type
REMARK                         _______ _______ _______ _____ _____    ______ ____
ROOT
ATOM      1  C   UNL     1      50.372   8.254  15.710  0.00  0.00    +0.000 C 
ATOM      2  C   UNL     1      49.637   9.260  16.570  0.00  0.00    +0.000 C 
ATOM      3  C   UNL     1      50.973   9.625  16.014  0.00  0.00    +0.000 C 
ENDROOT
BRANCH   1   4
ATOM      4  N   UNL     1      51.090   7.128  16.305  0.00  0.00    +0.000 N 
ATOM      5  C   UNL     1      50.553   5.929  16.759  0.00  0.00    +0.000 A 
ATOM      6  C   UNL     1      49.200   5.717  16.961  0.00  0.00    +0.000 A 
ATOM      7  C   UNL     1      48.768   4.504  17.512  0.00  0.00    +0.000 A 
ATOM      8  C   UNL     1      49.707   3.527  17.827  0.00  0.00    +0.000 A 
ATOM      9  C   UNL     1      51.033   3.811  17.571  0.00  0.00    +0.000 A 
ATOM     10  N   UNL     1      51.466   4.981  17.055  0.00  0.00    +0.000 NA
ATOM     11  H   UNL     1      52.092   7.036  16.191  0.00  0.00    +0.000 HD
BRANCH   7  12
ATOM     12  C   UNL     1      47.309   4.338  17.756  0.00  0.00    +0.000 C 
ATOM     13  N   UNL     1      46.656   5.274  18.509  0.00  0.00    +0.000 N 
ATOM     14  O   UNL     1      46.689   3.388  17.292  0.00  0.00    +0.000 OA
ATOM     15  H   UNL     1      47.069   6.091  18.924  0.00  0.00    +0.000 HD
ATOM     16  H   UNL     1      45.661   5.135  18.636  0.00  0.00    +0.000 HD
ENDBRANCH   7  12
ENDBRANCH   1   4
BRANCH   1  21
ATOM     17  C   UNL     1      48.267   6.931  12.744  0.00  0.00    +0.000 A 
ATOM     18  C   UNL     1      48.925   7.539  11.665  0.00  0.00    +0.000 A 
ATOM     19  C   UNL     1      50.035   8.360  11.871  0.00  0.00    +0.000 A 
ATOM     20  C   UNL     1      50.508   8.588  13.164  0.00  0.00    +0.000 A 
ATOM     21  C   UNL     1      49.889   8.010  14.282  0.00  0.00    +0.000 A 
ATOM     22  C   UNL     1      48.774   7.186  14.036  0.00  0.00    +0.000 A 
BRANCH  17  26
ATOM     23  C   UNL     1      45.000   4.343  11.978  0.00  0.00    +0.000 A 
ATOM     24  C   UNL     1      45.678   4.205  13.184  0.00  0.00    +0.000 A 
ATOM     25  C   UNL     1      46.733   5.070  13.474  0.00  0.00    +0.000 A 
ATOM     26  C   UNL     1      47.104   6.043  12.541  0.00  0.00    +0.000 A 
ATOM     27  N   UNL     1      46.428   6.197  11.374  0.00  0.00    +0.000 NA
ATOM     28  C   UNL     1      45.401   5.350  11.118  0.00  0.00    +0.000 A 
BRANCH  23  30
ATOM     29  N   UNL     1      43.059   2.759  11.355  0.00  0.00    +0.000 NA
ATOM     30  C   UNL     1      43.930   3.470  11.630  0.00  0.00    +0.000 C 
ENDBRANCH  23  30
ENDBRANCH  17  26
ENDBRANCH   1  21
TORSDOF 5
ENDMDL
MODEL 3
REMARK VINA RESULT:    -6.679      2.951      8.060
REMARK INTER + INTRA:          -9.789
REMARK INTER:                  -8.697
REMARK INTRA:                  -1.092
REMARK UNBOUND:                -1.157
REMARK  Name = 
REMARK  5 active torsions:
REMARK  status: ('A' for Active; 'I' for Inactive)
REMARK    1  A    between atoms: C_2  and  C_3
REMARK    2  A    between atoms: C_6  and  C_7
REMARK    3  A    between atoms: C_11  and  C_12
REMARK    4  A    between atoms: C_12  and  N_13
REMARK    5  A    between atoms: C_16  and  C_17
REMARK                            x       y       z     vdW  Elec       q    Type
REMARK                         _______ _______ _______ _____ _____    ______ ____
ROOT
ATOM      1  C   UNL     1      45.438   8.140  12.254  0.00  0.00    +0.000 C 
ATOM      2  C   UNL     1      45.038   9.086  11.142  0.00  0.00    +0.000 C 
ATOM      3  C   UNL     1      44.924   9.547  12.556  0.00  0.00    +0.000 C 
ENDROOT
BRANCH   1   4
ATOM      4  N   UNL     1      44.551   7.062  12.687  0.00  0.00    +0.000 N 
ATOM      5  C   UNL     1      44.356   5.831  12.072  0.00  0.00    +0.000 A 
ATOM      6  C   UNL     1      44.783   5.533  10.789  0.00  0.00    +0.000 A 
ATOM      7  C   UNL     1      44.454   4.295  10.225  0.00  0.00    +0.000 A 
ATOM      8  C   UNL     1      43.721   3.379  10.972  0.00  0.00    +0.000 A 
ATOM      9  C   UNL     1      43.356   3.747  12.252  0.00  0.00    +0.000 A 
ATOM     10  N   UNL     1      43.653   4.941  12.803  0.00  0.00    +0.000 NA
ATOM     11  H   UNL     1      44.196   7.033  13.635  0.00  0.00    +0.000 HD
BRANCH   7  12
ATOM     12  C   UNL     1      44.892   4.036   8.825  0.00  0.00    +0.000 C 
ATOM     13  N   UNL     1      44.389   2.949   8.167  0.00  0.00    +0.000 N 
ATOM     14  O   UNL     1      45.684   4.781   8.257  0.00  0.00    +0.000 OA
ATOM     15  H   UNL     1      43.730   2.286   8.540  0.00  0.00    +0.000 HD
ATOM     16  H   UNL     1      44.697   2.818   7.211  0.00  0.00    +0.000 HD
ENDBRANCH   7  12
ENDBRANCH   1   4
BRANCH   1  21
ATOM     17  C   UNL     1      48.720   7.185  14.066  0.00  0.00    +0.000 A 
ATOM     18  C   UNL     1      49.648   7.341  13.027  0.00  0.00    +0.000 A 
ATOM     19  C   UNL     1      49.241   7.753  11.757  0.00  0.00    +0.000 A 
ATOM     20  C   UNL     1      47.894   8.018  11.504  0.00  0.00    +0.000 A 
ATOM     21  C   UNL     1      46.921   7.876  12.504  0.00  0.00    +0.000 A 
ATOM     22  C   UNL     1      47.368   7.461  13.772  0.00  0.00    +0.000 A 
BRANCH  17  26
ATOM     23  C   UNL     1      49.955   5.807  17.879  0.00  0.00    +0.000 A 
ATOM     24  C   UNL     1      50.468   7.015  17.420  0.00  0.00    +0.000 A 
ATOM     25  C   UNL     1      50.047   7.508  16.184  0.00  0.00    +0.000 A 
ATOM     26  C   UNL     1      49.138   6.769  15.421  0.00  0.00    +0.000 A 
ATOM     27  N   UNL     1      48.616   5.601  15.877  0.00  0.00    +0.000 NA
ATOM     28  C   UNL     1      49.034   5.147  17.085  0.00  0.00    +0.000 A 
BRANCH  23  30
ATOM     29  N   UNL     1      50.701   4.801  20.138  0.00  0.00    +0.000 NA
ATOM     30  C   UNL     1      50.370   5.256  19.125  0.00  0.00    +0.000 C 
ENDBRANCH  23  30
ENDBRANCH  17  26
ENDBRANCH   1  21
TORSDOF 5
ENDMDL
MODEL 4
REMARK VINA RESULT:    -6.488      2.066      7.353
REMARK INTER + INTRA:          -9.542
REMARK INTER:                  -8.389
REMARK INTRA:                  -1.153
REMARK UNBOUND:                -1.157
REMARK  Name = 
REMARK  5 active torsions:
REMARK  status: ('A' for Active; 'I' for Inactive)
REMARK    1  A    between atoms: C_2  and  C_3
REMARK    2  A    between atoms: C_6  and  C_7
REMARK    3  A    between atoms: C_11  and  C_12
REMARK    4  A    between atoms: C_12  and  N_13
REMARK    5  A    between atoms: C_16  and  C_17
REMARK                            x       y       z     vdW  Elec       q    Type
REMARK                         _______ _______ _______ _____ _____    ______ ____
ROOT
ATOM      1  C   UNL     1      48.701   8.196  12.629  0.00  0.00    +0.000 C 
ATOM      2  C   UNL     1      49.838   7.652  11.791  0.00  0.00    +0.000 C 
ATOM      3  C   UNL     1      49.673   9.130  11.912  0.00  0.00    +0.000 C 
ENDROOT
BRANCH   1   4
ATOM      4  N   UNL     1      47.332   8.232  12.117  0.00  0.00    +0.000 N 
ATOM      5  C   UNL     1      46.365   7.239  12.222  0.00  0.00    +0.000 A 
ATOM      6  C   UNL     1      46.634   5.937  12.606  0.00  0.00    +0.000 A 
ATOM      7  C   UNL     1      45.606   4.987  12.589  0.00  0.00    +0.000 A 
ATOM      8  C   UNL     1      44.326   5.377  12.205  0.00  0.00    +0.000 A 
ATOM      9  C   UNL     1      44.139   6.700  11.861  0.00  0.00    +0.000 A 
ATOM     10  N   UNL     1      45.123   7.622  11.858  0.00  0.00    +0.000 NA
ATOM     11  H   UNL     1      46.897   9.111  11.865  0.00  0.00    +0.000 HD
BRANCH   7  12
ATOM     12  C   UNL     1      45.951   3.588  12.963  0.00  0.00    +0.000 C 
ATOM     13  N   UNL     1      45.158   2.570  12.513  0.00  0.00    +0.000 N 
ATOM     14  O   UNL     1      46.932   3.337  13.655  0.00  0.00    +0.000 OA
ATOM     15  H   UNL     1      44.341   2.670  11.934  0.00  0.00    +0.000 HD
ATOM     16  H   UNL     1      45.437   1.632  12.773  0.00  0.00    +0.000 HD
ENDBRANCH   7  12
ENDBRANCH   1   4
BRANCH   1  21
ATOM     17  C   UNL     1      49.718   7.002  16.167  0.00  0.00    +0.000 A 
ATOM     18  C   UNL     1      49.059   7.950  16.962  0.00  0.00    +0.000 A 
ATOM     19  C   UNL     1      48.289   8.962  16.385  0.00  0.00    +0.000 A 
ATOM     20  C   UNL     1      48.164   9.042  14.997  0.00  0.00    +0.000 A 
ATOM     21  C   UNL     1      48.803   8.124  14.151  0.00  0.00    +0.000 A 
ATOM     22  C   UNL     1      49.569   7.117  14.768  0.00  0.00    +0.000 A 
BRANCH  17  26
ATOM     23  C   UNL     1      51.938   3.754  17.740  0.00  0.00    +0.000 A 
ATOM     24  C   UNL     1      52.609   4.945  17.486  0.00  0.00    +0.000 A 
ATOM     25  C   UNL     1      51.892   6.040  17.003  0.00  0.00    +0.000 A 
ATOM     26  C   UNL     1      50.520   5.914  16.763  0.00  0.00    +0.000 A 
ATOM     27  N   UNL     1      49.858   4.760  17.033  0.00  0.00    +0.000 NA
ATOM     28  C   UNL     1      50.575   3.713  17.510  0.00  0.00    +0.000 A 
BRANCH  23  30
ATOM     29  N   UNL     1      53.199   1.667  18.592  0.00  0.00    +0.000 NA
ATOM     30  C   UNL     1      52.633   2.604  18.215  0.00  0.00    +0.000 C 
ENDBRANCH  23  30
ENDBRANCH  17  26
ENDBRANCH   1  21
TORSDOF 5
ENDMDL
MODEL 5
REMARK VINA RESULT:    -6.281      4.407      6.938
REMARK INTER + INTRA:          -9.274
REMARK INTER:                  -9.245
REMARK INTRA:                  -0.029
REMARK UNBOUND:                -1.157
REMARK  Name = 
REMARK  5 active torsions:
REMARK  status: ('A' for Active; 'I' for Inactive)
REMARK    1  A    between atoms: C_2  and  C_3
REMARK    2  A    between atoms: C_6  and  C_7
REMARK    3  A    between atoms: C_11  and  C_12
REMARK    4  A    between atoms: C_12  and  N_13
REMARK    5  A    between atoms: C_16  and  C_17
REMARK                            x       y       z     vdW  Elec       q    Type
REMARK                         _______ _______ _______ _____ _____    ______ ____
ROOT
ATOM      1  C   UNL     1      44.493   8.555  11.471  0.00  0.00    +0.000 C 
ATOM      2  C   UNL     1      43.427   9.584  11.782  0.00  0.00    +0.000 C 
ATOM      3  C   UNL     1      44.020   9.550  10.413  0.00  0.00    +0.000 C 
ENDROOT
BRANCH   1   4
ATOM      4  N   UNL     1      45.876   8.740  11.906  0.00  0.00    +0.000 N 
ATOM      5  C   UNL     1      46.711   7.796  12.491  0.00  0.00    +0.000 A 
ATOM      6  C   UNL     1      46.270   6.586  13.000  0.00  0.00    +0.000 A 
ATOM      7  C   UNL     1      47.176   5.743  13.655  0.00  0.00    +0.000 A 
ATOM      8  C   UNL     1      48.508   6.130  13.764  0.00  0.00    +0.000 A 
ATOM      9  C   UNL     1      48.868   7.341  13.208  0.00  0.00    +0.000 A 
ATOM     10  N   UNL     1      48.004   8.170  12.587  0.00  0.00    +0.000 NA
ATOM     11  H   UNL     1      46.424   9.522  11.569  0.00  0.00    +0.000 HD
BRANCH   7  12
ATOM     12  C   UNL     1      46.649   4.475  14.228  0.00  0.00    +0.000 C 
ATOM     13  N   UNL     1      46.020   3.587  13.400  0.00  0.00    +0.000 N 
ATOM     14  O   UNL     1      46.775   4.213  15.420  0.00  0.00    +0.000 OA
ATOM     15  H   UNL     1      45.876   3.703  12.411  0.00  0.00    +0.000 HD
ATOM     16  H   UNL     1      45.693   2.728  13.825  0.00  0.00    +0.000 HD
ENDBRANCH   7  12
ENDBRANCH   1   4
BRANCH   1  21
ATOM     17  C   UNL     1      44.450   4.912  10.165  0.00  0.00    +0.000 A 
ATOM     18  C   UNL     1      43.388   4.380  10.909  0.00  0.00    +0.000 A 
ATOM     19  C   UNL     1      42.681   5.170  11.819  0.00  0.00    +0.000 A 
ATOM     20  C   UNL     1      43.025   6.511  11.998  0.00  0.00    +0.000 A 
ATOM     21  C   UNL     1      44.080   7.097  11.284  0.00  0.00    +0.000 A 
ATOM     22  C   UNL     1      44.769   6.271  10.375  0.00  0.00    +0.000 A 
BRANCH  17  26
ATOM     23  C   UNL     1      46.748   2.686   7.387  0.00  0.00    +0.000 A 
ATOM     24  C   UNL     1      46.003   1.988   8.330  0.00  0.00    +0.000 A 
ATOM     25  C   UNL     1      45.209   2.699   9.231  0.00  0.00    +0.000 A 
ATOM     26  C   UNL     1      45.195   4.096   9.185  0.00  0.00    +0.000 A 
ATOM     27  N   UNL     1      45.902   4.780   8.249  0.00  0.00    +0.000 NA
ATOM     28  C   UNL     1      46.659   4.067   7.379  0.00  0.00    +0.000 A 
BRANCH  23  30
ATOM     29  N   UNL     1      48.271   1.458   5.701  0.00  0.00    +0.000 NA
ATOM     30  C   UNL     1      47.588   2.005   6.460  0.00  0.00    +0.000 C 
ENDBRANCH  23  30
ENDBRANCH  17  26
ENDBRANCH   1  21
TORSDOF 5
ENDMDL
MODEL 6
REMARK VINA RESULT:    -5.905      3.934      6.541
REMARK INTER + INTRA:          -8.789
REMARK INTER:                  -8.574
REMARK INTRA:                  -0.215
REMARK UNBOUND:                -1.157
REMARK  Name = 
REMARK  5 active torsions:
REMARK  status: ('A' for Active; 'I' for Inactive)
REMARK    1  A    between atoms: C_2  and  C_3
REMARK    2  A    between atoms: C_6  and  C_7
REMARK    3  A    between atoms: C_11  and  C_12
REMARK    4  A    between atoms: C_12  and  N_13
REMARK    5  A    between atoms: C_16  and  C_17
REMARK                            x       y       z     vdW  Elec       q    Type
REMARK                         _______ _______ _______ _____ _____    ______ ____
ROOT
ATOM      1  C   UNL     1      46.198   7.927  12.476  0.00  0.00    +0.000 C 
ATOM      2  C   UNL     1      45.532   9.066  13.220  0.00  0.00    +0.000 C 
ATOM      3  C   UNL     1      46.094   9.322  11.861  0.00  0.00    +0.000 C 
ENDROOT
BRANCH   1   4
ATOM      4  N   UNL     1      47.560   7.504  12.800  0.00  0.00    +0.000 N 
ATOM      5  C   UNL     1      48.226   7.657  14.010  0.00  0.00    +0.000 A 
ATOM      6  C   UNL     1      47.789   8.480  15.034  0.00  0.00    +0.000 A 
ATOM      7  C   UNL     1      48.581   8.638  16.177  0.00  0.00    +0.000 A 
ATOM      8  C   UNL     1      49.785   7.947  16.271  0.00  0.00    +0.000 A 
ATOM      9  C   UNL     1      50.134   7.128  15.216  0.00  0.00    +0.000 A 
ATOM     10  N   UNL     1      49.388   6.978  14.102  0.00  0.00    +0.000 NA
ATOM     11  H   UNL     1      48.039   6.821  12.227  0.00  0.00    +0.000 HD
BRANCH   7  12
ATOM     12  C   UNL     1      48.095   9.570  17.231  0.00  0.00    +0.000 C 
ATOM     13  N   UNL     1      47.899  10.884  16.909  0.00  0.00    +0.000 N 
ATOM     14  O   UNL     1      47.864   9.180  18.370  0.00  0.00    +0.000 OA
ATOM     15  H   UNL     1      48.049  11.300  16.005  0.00  0.00    +0.000 HD
ATOM     16  H   UNL     1      47.550  11.482  17.649  0.00  0.00    +0.000 HD
ENDBRANCH   7  12
ENDBRANCH   1   4
BRANCH   1  21
ATOM     17  C   UNL     1      45.070   4.997  10.215  0.00  0.00    +0.000 A 
ATOM     18  C   UNL     1      43.776   4.771  10.705  0.00  0.00    +0.000 A 
ATOM     19  C   UNL     1      43.256   5.546  11.745  0.00  0.00    +0.000 A 
ATOM     20  C   UNL     1      44.025   6.564  12.312  0.00  0.00    +0.000 A 
ATOM     21  C   UNL     1      45.326   6.833  11.864  0.00  0.00    +0.000 A 
ATOM     22  C   UNL     1      45.816   6.034  10.814  0.00  0.00    +0.000 A 
BRANCH  17  26
ATOM     23  C   UNL     1      46.841   2.810   7.048  0.00  0.00    +0.000 A 
ATOM     24  C   UNL     1      46.137   2.106   8.017  0.00  0.00    +0.000 A 
ATOM     25  C   UNL     1      45.513   2.808   9.049  0.00  0.00    +0.000 A 
ATOM     26  C   UNL     1      45.626   4.200   9.103  0.00  0.00    +0.000 A 
ATOM     27  N   UNL     1      46.293   4.893   8.144  0.00  0.00    +0.000 NA
ATOM     28  C   UNL     1      46.884   4.189   7.146  0.00  0.00    +0.000 A 
BRANCH  23  30
ATOM     29  N   UNL     1      48.048   1.585   5.120  0.00  0.00    +0.000 NA
ATOM     30  C   UNL     1      47.511   2.134   5.987  0.00  0.00    +0.000 C 
ENDBRANCH  23  30
ENDBRANCH  17  26
ENDBRANCH   1  21
TORSDOF 5
ENDMDL
MODEL 7
REMARK VINA RESULT:    -5.064      1.784      2.328
REMARK INTER + INTRA:          -7.702
REMARK INTER:                  -7.201
REMARK INTRA:                  -0.500
REMARK UNBOUND:                -1.157
REMARK  Name = 
REMARK  5 active torsions:
REMARK  status: ('A' for Active; 'I' for Inactive)
REMARK    1  A    between atoms: C_2  and  C_3
REMARK    2  A    between atoms: C_6  and  C_7
REMARK    3  A    between atoms: C_11  and  C_12
REMARK    4  A    between atoms: C_12  and  N_13
REMARK    5  A    between atoms: C_16  and  C_17
REMARK                            x       y       z     vdW  Elec       q    Type
REMARK                         _______ _______ _______ _____ _____    ______ ____
ROOT
ATOM      1  C   UNL     1      49.021   4.038  17.611  0.00  0.00    +0.000 C 
ATOM      2  C   UNL     1      48.732   2.586  17.291  0.00  0.00    +0.000 C 
ATOM      3  C   UNL     1      47.785   3.334  18.169  0.00  0.00    +0.000 C 
ENDROOT
BRANCH   1   4
ATOM      4  N   UNL     1      50.016   4.409  18.617  0.00  0.00    +0.000 N 
ATOM      5  C   UNL     1      51.341   3.995  18.686  0.00  0.00    +0.000 A 
ATOM      6  C   UNL     1      51.861   2.944  17.949  0.00  0.00    +0.000 A 
ATOM      7  C   UNL     1      53.186   2.545  18.160  0.00  0.00    +0.000 A 
ATOM      8  C   UNL     1      53.962   3.226  19.093  0.00  0.00    +0.000 A 
ATOM      9  C   UNL     1      53.373   4.277  19.767  0.00  0.00    +0.000 A 
ATOM     10  N   UNL     1      52.093   4.663  19.584  0.00  0.00    +0.000 NA
ATOM     11  H   UNL     1      49.877   5.219  19.207  0.00  0.00    +0.000 HD
BRANCH   7  12
ATOM     12  C   UNL     1      53.688   1.380  17.381  0.00  0.00    +0.000 C 
ATOM     13  N   UNL     1      52.903   0.266  17.280  0.00  0.00    +0.000 N 
ATOM     14  O   UNL     1      54.783   1.406  16.828  0.00  0.00    +0.000 OA
ATOM     15  H   UNL     1      51.990   0.148  17.686  0.00  0.00    +0.000 HD
ATOM     16  H   UNL     1      53.272  -0.498  16.726  0.00  0.00    +0.000 HD
ENDBRANCH   7  12
ENDBRANCH   1   4
BRANCH   1  21
ATOM     17  C   UNL     1      47.664   5.766  14.426  0.00  0.00    +0.000 A 
ATOM     18  C   UNL     1      48.296   7.013  14.516  0.00  0.00    +0.000 A 
ATOM     19  C   UNL     1      49.155   7.309  15.576  0.00  0.00    +0.000 A 
ATOM     20  C   UNL     1      49.398   6.357  16.568  0.00  0.00    +0.000 A 
ATOM     21  C   UNL     1      48.791   5.093  16.533  0.00  0.00    +0.000 A 
ATOM     22  C   UNL     1      47.933   4.830  15.448  0.00  0.00    +0.000 A 
BRANCH  17  26
ATOM     23  C   UNL     1      45.247   4.842  11.070  0.00  0.00    +0.000 A 
ATOM     24  C   UNL     1      45.245   3.958  12.143  0.00  0.00    +0.000 A 
ATOM     25  C   UNL     1      46.004   4.260  13.275  0.00  0.00    +0.000 A 
ATOM     26  C   UNL     1      46.768   5.430  13.300  0.00  0.00    +0.000 A 
ATOM     27  N   UNL     1      46.753   6.308  12.264  0.00  0.00    +0.000 NA
ATOM     28  C   UNL     1      46.001   5.997  11.179  0.00  0.00    +0.000 A 
BRANCH  23  30
ATOM     29  N   UNL     1      43.907   4.339   8.920  0.00  0.00    +0.000 NA
ATOM     30  C   UNL     1      44.504   4.566   9.886  0.00  0.00    +0.000 C 
ENDBRANCH  23  30
ENDBRANCH  17  26
ENDBRANCH   1  21
TORSDOF 5
ENDMDL
MODEL 8
REMARK VINA RESULT:    -4.963      2.993      4.349
REMARK INTER + INTRA:          -7.571
REMARK INTER:                  -6.461
REMARK INTRA:                  -1.110
REMARK UNBOUND:                -1.157
REMARK  Name = 
REMARK  5 active torsions:
REMARK  status: ('A' for Active; 'I' for Inactive)
REMARK    1  A    between atoms: C_2  and  C_3
REMARK    2  A    between atoms: C_6  and  C_7
REMARK    3  A    between atoms: C_11  and  C_12
REMARK    4  A    between atoms: C_12  and  N_13
REMARK    5  A    between atoms: C_16  and  C_17
REMARK                            x       y       z     vdW  Elec       q    Type
REMARK                         _______ _______ _______ _____ _____    ______ ____
ROOT
ATOM      1  C   UNL     1      50.568   7.073  16.661  0.00  0.00    +0.000 C 
ATOM      2  C   UNL     1      51.772   7.884  17.091  0.00  0.00    +0.000 C 
ATOM      3  C   UNL     1      51.981   6.682  16.233  0.00  0.00    +0.000 C 
ENDROOT
BRANCH   1   4
ATOM      4  N   UNL     1      49.925   6.129  17.574  0.00  0.00    +0.000 N 
ATOM      5  C   UNL     1      49.060   6.424  18.621  0.00  0.00    +0.000 A 
ATOM      6  C   UNL     1      48.875   7.696  19.135  0.00  0.00    +0.000 A 
ATOM      7  C   UNL     1      48.051   7.873  20.253  0.00  0.00    +0.000 A 
ATOM      8  C   UNL     1      47.418   6.769  20.814  0.00  0.00    +0.000 A 
ATOM      9  C   UNL     1      47.638   5.540  20.225  0.00  0.00    +0.000 A 
ATOM     10  N   UNL     1      48.440   5.352  19.157  0.00  0.00    +0.000 NA
ATOM     11  H   UNL     1      49.861   5.146  17.340  0.00  0.00    +0.000 HD
BRANCH   7  12
ATOM     12  C   UNL     1      47.920   9.251  20.802  0.00  0.00    +0.000 C 
ATOM     13  N   UNL     1      49.041  10.024  20.921  0.00  0.00    +0.000 N 
ATOM     14  O   UNL     1      46.830   9.702  21.139  0.00  0.00    +0.000 OA
ATOM     15  H   UNL     1      49.975   9.752  20.664  0.00  0.00    +0.000 HD
ATOM     16  H   UNL     1      48.907  10.961  21.280  0.00  0.00    +0.000 HD
ENDBRANCH   7  12
ENDBRANCH   1   4
BRANCH   1  21
ATOM     17  C   UNL     1      47.877   7.241  13.887  0.00  0.00    +0.000 A 
ATOM     18  C   UNL     1      47.893   8.611  13.589  0.00  0.00    +0.000 A 
ATOM     19  C   UNL     1      48.756   9.481  14.257  0.00  0.00    +0.000 A 
ATOM     20  C   UNL     1      49.621   8.994  15.239  0.00  0.00    +0.000 A 
ATOM     21  C   UNL     1      49.647   7.634  15.581  0.00  0.00    +0.000 A 
ATOM     22  C   UNL     1      48.765   6.786  14.884  0.00  0.00    +0.000 A 
BRANCH  17  26
ATOM     23  C   UNL     1      45.203   4.543  12.009  0.00  0.00    +0.000 A 
ATOM     24  C   UNL     1      45.574   5.688  11.315  0.00  0.00    +0.000 A 
ATOM     25  C   UNL     1      46.483   6.572  11.897  0.00  0.00    +0.000 A 
ATOM     26  C   UNL     1      46.984   6.304  13.174  0.00  0.00    +0.000 A 
ATOM     27  N   UNL     1      46.642   5.174  13.845  0.00  0.00    +0.000 NA
ATOM     28  C   UNL     1      45.765   4.325  13.255  0.00  0.00    +0.000 A 
BRANCH  23  30
ATOM     29  N   UNL     1      43.502   2.874  11.012  0.00  0.00    +0.000 NA
ATOM     30  C   UNL     1      44.263   3.621  11.463  0.00  0.00    +0.000 C 
ENDBRANCH  23  30
ENDBRANCH  17  26
ENDBRANCH   1  21
TORSDOF 5
ENDMDL
MODEL 9
REMARK VINA RESULT:    -4.741      2.528      7.483
REMARK INTER + INTRA:          -7.284
REMARK INTER:                  -6.155
REMARK INTRA:                  -1.129
REMARK UNBOUND:                -1.157
REMARK  Name = 
REMARK  5 active torsions:
REMARK  status: ('A' for Active; 'I' for Inactive)
REMARK    1  A    between atoms: C_2  and  C_3
REMARK    2  A    between atoms: C_6  and  C_7
REMARK    3  A    between atoms: C_11  and  C_12
REMARK    4  A    between atoms: C_12  and  N_13
REMARK    5  A    between atoms: C_16  and  C_17
REMARK                            x       y       z     vdW  Elec       q    Type
REMARK                         _______ _______ _______ _____ _____    ______ ____
ROOT
ATOM      1  C   UNL     1      49.006   8.555  12.420  0.00  0.00    +0.000 C 
ATOM      2  C   UNL     1      50.091   7.730  11.761  0.00  0.00    +0.000 C 
ATOM      3  C   UNL     1      49.937   9.162  11.372  0.00  0.00    +0.000 C 
ENDROOT
BRANCH   1   4
ATOM      4  N   UNL     1      47.609   8.443  12.002  0.00  0.00    +0.000 N 
ATOM      5  C   UNL     1      46.692   7.467  12.374  0.00  0.00    +0.000 A 
ATOM      6  C   UNL     1      47.037   6.284  13.004  0.00  0.00    +0.000 A 
ATOM      7  C   UNL     1      46.050   5.323  13.253  0.00  0.00    +0.000 A 
ATOM      8  C   UNL     1      44.735   5.586  12.880  0.00  0.00    +0.000 A 
ATOM      9  C   UNL     1      44.474   6.801  12.280  0.00  0.00    +0.000 A 
ATOM     10  N   UNL     1      45.417   7.729  12.020  0.00  0.00    +0.000 NA
ATOM     11  H   UNL     1      47.124   9.236  11.600  0.00  0.00    +0.000 HD
BRANCH   7  12
ATOM     12  C   UNL     1      46.475   4.045  13.887  0.00  0.00    +0.000 C 
ATOM     13  N   UNL     1      46.957   4.071  15.166  0.00  0.00    +0.000 N 
ATOM     14  O   UNL     1      46.393   2.978  13.288  0.00  0.00    +0.000 OA
ATOM     15  H   UNL     1      47.054   4.889  15.744  0.00  0.00    +0.000 HD
ATOM     16  H   UNL     1      47.217   3.179  15.568  0.00  0.00    +0.000 HD
ENDBRANCH   7  12
ENDBRANCH   1   4
BRANCH   1  21
ATOM     17  C   UNL     1      49.900   8.478  16.184  0.00  0.00    +0.000 A 
ATOM     18  C   UNL     1      49.602   9.797  16.551  0.00  0.00    +0.000 A 
ATOM     19  C   UNL     1      49.115  10.711  15.614  0.00  0.00    +0.000 A 
ATOM     20  C   UNL     1      48.914  10.318  14.289  0.00  0.00    +0.000 A 
ATOM     21  C   UNL     1      49.197   9.011  13.864  0.00  0.00    +0.000 A 
ATOM     22  C   UNL     1      49.685   8.118  14.836  0.00  0.00    +0.000 A 
BRANCH  17  26
ATOM     23  C   UNL     1      51.461   5.793  19.067  0.00  0.00    +0.000 A 
ATOM     24  C   UNL     1      50.081   5.938  18.985  0.00  0.00    +0.000 A 
ATOM     25  C   UNL     1      49.542   6.788  18.018  0.00  0.00    +0.000 A 
ATOM     26  C   UNL     1      50.397   7.494  17.167  0.00  0.00    +0.000 A 
ATOM     27  N   UNL     1      51.745   7.336  17.228  0.00  0.00    +0.000 NA
ATOM     28  C   UNL     1      52.244   6.498  18.170  0.00  0.00    +0.000 A 
BRANCH  23  30
ATOM     29  N   UNL     1      52.542   4.263  20.845  0.00  0.00    +0.000 NA
ATOM     30  C   UNL     1      52.057   4.953  20.051  0.00  0.00    +0.000 C 
ENDBRANCH  23  30
ENDBRANCH  17  26
ENDBRANCH   1  21
TORSDOF 5
ENDMDL
