MODEL 1
REMARK VINA RESULT:    -6.109      0.000      0.000
REMARK INTER + INTRA:         -10.506
REMARK INTER:                  -8.788
REMARK INTRA:                  -1.719
REMARK UNBOUND:                -1.719
REMARK  Name = 
REMARK  10 active torsions:
REMARK  status: ('A' for Active; 'I' for Inactive)
REMARK    1  A    between atoms: C_1  and  C_2
REMARK    2  A    between atoms: C_2  and  C_3
REMARK    3  A    between atoms: C_2  and  C_4
REMARK    4  A    between atoms: C_2  and  C_19
REMARK    5  A    between atoms: C_4  and  O_5
REMARK    6  A    between atoms: O_5  and  C_6
REMARK    7  A    between atoms: C_10  and  C_11
REMARK    8  A    between atoms: C_12  and  C_13
REMARK    9  A    between atoms: C_13  and  O_14
REMARK   10  A    between atoms: C_23  and  C_24
REMARK                            x       y       z     vdW  Elec       q    Type
REMARK                         _______ _______ _______ _____ _____    ______ ____
ROOT
ATOM      1  O   UNL     1      49.743   8.526  15.970  0.00  0.00    +0.000 OA
ENDROOT
BRANCH   1   2
ATOM      2  C   UNL     1      49.516   8.147  14.673  0.00  0.00    +0.000 A 
ATOM      3  C   UNL     1      50.207   8.587  13.547  0.00  0.00    +0.000 A 
ATOM      4  N   UNL     1      49.957   8.171  12.282  0.00  0.00    +0.000 NA
ATOM      5  C   UNL     1      48.960   7.271  12.130  0.00  0.00    +0.000 A 
ATOM      6  C   UNL     1      48.205   6.769  13.183  0.00  0.00    +0.000 A 
ATOM      7  C   UNL     1      48.492   7.220  14.472  0.00  0.00    +0.000 A 
BRANCH   6   8
ATOM      8  C   UNL     1      47.165   5.818  12.939  0.00  0.00    +0.000 C 
ATOM      9  C   UNL     1      46.297   5.010  12.738  0.00  0.00    +0.000 C 
BRANCH   9  10
ATOM     10  C   UNL     1      45.247   4.050  12.463  0.00  0.00    +0.000 C 
ATOM     11  C   UNL     1      44.602   4.148  11.051  0.00  0.00    +0.000 C 
ATOM     12  C   UNL     1      43.240   3.871  11.718  0.00  0.00    +0.000 C 
ATOM     13  C   UNL     1      43.844   4.411  13.029  0.00  0.00    +0.000 C 
BRANCH  10  14
ATOM     14  O   UNL     1      45.726   2.737  12.826  0.00  0.00    +0.000 OA
ATOM     15  H   UNL     1      45.398   2.595  13.730  0.00  0.00    +0.000 HD
ENDBRANCH  10  14
ENDBRANCH   9  10
ENDBRANCH   6   8
ENDBRANCH   1   2
BRANCH   1  16
ATOM     16  C   UNL     1      48.621   8.428  16.856  0.00  0.00    +0.000 C 
BRANCH  16  18
ATOM     17  C   UNL     1      49.981   8.456  19.012  0.00  0.00    +0.000 C 
ATOM     18  C   UNL     1      48.951   7.663  18.174  0.00  0.00    +0.000 C 
ATOM     19  C   UNL     1      47.635   7.634  18.994  0.00  0.00    +0.000 C 
BRANCH  18  20
ATOM     20  C   UNL     1      49.509   6.252  17.902  0.00  0.00    +0.000 A 
ATOM     21  C   UNL     1      50.873   5.945  17.960  0.00  0.00    +0.000 A 
ATOM     22  C   UNL     1      51.308   4.675  17.602  0.00  0.00    +0.000 A 
ATOM     23  N   UNL     1      50.491   3.690  17.179  0.00  0.00    +0.000 NA
ATOM     24  C   UNL     1      49.161   3.967  17.122  0.00  0.00    +0.000 A 
ATOM     25  C   UNL     1      48.650   5.214  17.500  0.00  0.00    +0.000 A 
BRANCH  24  26
ATOM     26  C   UNL     1      48.193   2.925  16.575  0.00  0.00    +0.000 C 
ATOM     27  F   UNL     1      48.781   1.770  16.153  0.00  0.00    +0.000 F 
ATOM     28  F   UNL     1      47.247   2.552  17.486  0.00  0.00    +0.000 F 
ATOM     29  F   UNL     1      47.491   3.392  15.498  0.00  0.00    +0.000 F 
ENDBRANCH  24  26
ENDBRANCH  18  20
ENDBRANCH  16  18
ENDBRANCH   1  16
TORSDOF 8
ENDMDL
MODEL 2
REMARK VINA RESULT:    -5.725      2.117      2.696
REMARK INTER + INTRA:          -9.953
REMARK INTER:                  -8.776
REMARK INTRA:                  -1.177
REMARK UNBOUND:                -1.719
REMARK  Name = 
REMARK  10 active torsions:
REMARK  status: ('A' for Active; 'I' for Inactive)
REMARK    1  A    between atoms: C_1  and  C_2
REMARK    2  A    between atoms: C_2  and  C_3
REMARK    3  A    between atoms: C_2  and  C_4
REMARK    4  A    between atoms: C_2  and  C_19
REMARK    5  A    between atoms: C_4  and  O_5
REMARK    6  A    between atoms: O_5  and  C_6
REMARK    7  A    between atoms: C_10  and  C_11
REMARK    8  A    between atoms: C_12  and  C_13
REMARK    9  A    between atoms: C_13  and  O_14
REMARK   10  A    between atoms: C_23  and  C_24
REMARK                            x       y       z     vdW  Elec       q    Type
REMARK                         _______ _______ _______ _____ _____    ______ ____
ROOT
ATOM      1  O   UNL     1      49.641   7.501  16.556  0.00  0.00    +0.000 OA
ENDROOT
BRANCH   1   2
ATOM      2  C   UNL     1      49.413   7.370  15.212  0.00  0.00    +0.000 A 
ATOM      3  C   UNL     1      50.143   7.964  14.185  0.00  0.00    +0.000 A 
ATOM      4  N   UNL     1      49.889   7.793  12.865  0.00  0.00    +0.000 NA
ATOM      5  C   UNL     1      48.850   6.988  12.551  0.00  0.00    +0.000 A 
ATOM      6  C   UNL     1      48.055   6.348  13.493  0.00  0.00    +0.000 A 
ATOM      7  C   UNL     1      48.346   6.548  14.843  0.00  0.00    +0.000 A 
BRANCH   6   8
ATOM      8  C   UNL     1      46.971   5.512  13.080  0.00  0.00    +0.000 C 
ATOM      9  C   UNL     1      46.054   4.811  12.743  0.00  0.00    +0.000 C 
BRANCH   9  10
ATOM     10  C   UNL     1      44.971   3.941  12.330  0.00  0.00    +0.000 C 
ATOM     11  C   UNL     1      44.429   4.181  10.892  0.00  0.00    +0.000 C 
ATOM     12  C   UNL     1      43.012   3.942  11.449  0.00  0.00    +0.000 C 
ATOM     13  C   UNL     1      43.556   4.346  12.833  0.00  0.00    +0.000 C 
BRANCH  10  14
ATOM     14  O   UNL     1      45.348   2.578  12.620  0.00  0.00    +0.000 OA
ATOM     15  H   UNL     1      44.791   2.037  12.034  0.00  0.00    +0.000 HD
ENDBRANCH  10  14
ENDBRANCH   9  10
ENDBRANCH   6   8
ENDBRANCH   1   2
BRANCH   1  16
ATOM     16  C   UNL     1      50.633   6.628  17.111  0.00  0.00    +0.000 C 
BRANCH  16  18
ATOM     17  C   UNL     1      50.832   5.669  19.464  0.00  0.00    +0.000 C 
ATOM     18  C   UNL     1      50.046   5.609  18.133  0.00  0.00    +0.000 C 
ATOM     19  C   UNL     1      48.605   6.095  18.444  0.00  0.00    +0.000 C 
BRANCH  18  20
ATOM     20  C   UNL     1      50.079   4.164  17.597  0.00  0.00    +0.000 A 
ATOM     21  C   UNL     1      48.980   3.551  16.984  0.00  0.00    +0.000 A 
ATOM     22  C   UNL     1      49.055   2.212  16.619  0.00  0.00    +0.000 A 
ATOM     23  N   UNL     1      50.134   1.434  16.829  0.00  0.00    +0.000 NA
ATOM     24  C   UNL     1      51.215   2.013  17.418  0.00  0.00    +0.000 A 
ATOM     25  C   UNL     1      51.221   3.365  17.780  0.00  0.00    +0.000 A 
BRANCH  24  26
ATOM     26  C   UNL     1      52.436   1.168  17.758  0.00  0.00    +0.000 C 
ATOM     27  F   UNL     1      53.263   0.915  16.705  0.00  0.00    +0.000 F 
ATOM     28  F   UNL     1      53.219   1.735  18.722  0.00  0.00    +0.000 F 
ATOM     29  F   UNL     1      52.089  -0.059  18.253  0.00  0.00    +0.000 F 
ENDBRANCH  24  26
ENDBRANCH  18  20
ENDBRANCH  16  18
ENDBRANCH   1  16
TORSDOF 8
ENDMDL
MODEL 3
REMARK VINA RESULT:    -5.523      2.744      5.849
REMARK INTER + INTRA:          -9.663
REMARK INTER:                  -7.847
REMARK INTRA:                  -1.816
REMARK UNBOUND:                -1.719
REMARK  Name = 
REMARK  10 active torsions:
REMARK  status: ('A' for Active; 'I' for Inactive)
REMARK    1  A    between atoms: C_1  and  C_2
REMARK    2  A    between atoms: C_2  and  C_3
REMARK    3  A    between atoms: C_2  and  C_4
REMARK    4  A    between atoms: C_2  and  C_19
REMARK    5  A    between atoms: C_4  and  O_5
REMARK    6  A    between atoms: O_5  and  C_6
REMARK    7  A    between atoms: C_10  and  C_11
REMARK    8  A    between atoms: C_12  and  C_13
REMARK    9  A    between atoms: C_13  and  O_14
REMARK   10  A    between atoms: C_23  and  C_24
REMARK                            x       y       z     vdW  Elec       q    Type
REMARK                         _______ _______ _______ _____ _____    ______ ____
ROOT
ATOM      1  O   UNL     1      49.351   9.893  14.358  0.00  0.00    +0.000 OA
ENDROOT
BRANCH   1   2
ATOM      2  C   UNL     1      48.963   9.454  15.596  0.00  0.00    +0.000 A 
ATOM      3  C   UNL     1      48.430  10.230  16.623  0.00  0.00    +0.000 A 
ATOM      4  N   UNL     1      48.046   9.748  17.829  0.00  0.00    +0.000 NA
ATOM      5  C   UNL     1      48.204   8.420  18.025  0.00  0.00    +0.000 A 
ATOM      6  C   UNL     1      48.727   7.555  17.072  0.00  0.00    +0.000 A 
ATOM      7  C   UNL     1      49.112   8.088  15.841  0.00  0.00    +0.000 A 
BRANCH   6   8
ATOM      8  C   UNL     1      48.863   6.160  17.357  0.00  0.00    +0.000 C 
ATOM      9  C   UNL     1      48.988   4.990  17.603  0.00  0.00    +0.000 C 
BRANCH   9  10
ATOM     10  C   UNL     1      49.137   3.572  17.865  0.00  0.00    +0.000 C 
ATOM     11  C   UNL     1      50.563   2.994  17.633  0.00  0.00    +0.000 C 
ATOM     12  C   UNL     1      49.894   1.744  17.027  0.00  0.00    +0.000 C 
ATOM     13  C   UNL     1      48.666   2.626  16.724  0.00  0.00    +0.000 C 
BRANCH  10  14
ATOM     14  O   UNL     1      48.567   3.288  19.160  0.00  0.00    +0.000 OA
ATOM     15  H   UNL     1      48.803   2.361  19.336  0.00  0.00    +0.000 HD
ENDBRANCH  10  14
ENDBRANCH   9  10
ENDBRANCH   6   8
ENDBRANCH   1   2
BRANCH   1  16
ATOM     16  C   UNL     1      50.029   8.933  13.538  0.00  0.00    +0.000 C 
BRANCH  16  18
ATOM     17  C   UNL     1      49.150   9.987  11.390  0.00  0.00    +0.000 C 
ATOM     18  C   UNL     1      49.304   8.668  12.184  0.00  0.00    +0.000 C 
ATOM     19  C   UNL     1      50.253   7.759  11.360  0.00  0.00    +0.000 C 
BRANCH  18  20
ATOM     20  C   UNL     1      47.910   8.040  12.385  0.00  0.00    +0.000 A 
ATOM     21  C   UNL     1      46.719   8.763  12.251  0.00  0.00    +0.000 A 
ATOM     22  C   UNL     1      45.507   8.152  12.548  0.00  0.00    +0.000 A 
ATOM     23  N   UNL     1      45.390   6.882  12.980  0.00  0.00    +0.000 NA
ATOM     24  C   UNL     1      46.535   6.160  13.111  0.00  0.00    +0.000 A 
ATOM     25  C   UNL     1      47.787   6.701  12.797  0.00  0.00    +0.000 A 
BRANCH  24  26
ATOM     26  C   UNL     1      46.479   4.746  13.673  0.00  0.00    +0.000 C 
ATOM     27  F   UNL     1      47.510   3.941  13.291  0.00  0.00    +0.000 F 
ATOM     28  F   UNL     1      46.471   4.720  15.039  0.00  0.00    +0.000 F 
ATOM     29  F   UNL     1      45.341   4.088  13.296  0.00  0.00    +0.000 F 
ENDBRANCH  24  26
ENDBRANCH  18  20
ENDBRANCH  16  18
ENDBRANCH   1  16
TORSDOF 8
ENDMDL
MODEL 4
REMARK VINA RESULT:    -5.167      2.290      4.490
REMARK INTER + INTRA:          -9.150
REMARK INTER:                  -7.016
REMARK INTRA:                  -2.134
REMARK UNBOUND:                -1.719
REMARK  Name = 
REMARK  10 active torsions:
REMARK  status: ('A' for Active; 'I' for Inactive)
REMARK    1  A    between atoms: C_1  and  C_2
REMARK    2  A    between atoms: C_2  and  C_3
REMARK    3  A    between atoms: C_2  and  C_4
REMARK    4  A    between atoms: C_2  and  C_19
REMARK    5  A    between atoms: C_4  and  O_5
REMARK    6  A    between atoms: O_5  and  C_6
REMARK    7  A    between atoms: C_10  and  C_11
REMARK    8  A    between atoms: C_12  and  C_13
REMARK    9  A    between atoms: C_13  and  O_14
REMARK   10  A    between atoms: C_23  and  C_24
REMARK                            x       y       z     vdW  Elec       q    Type
REMARK                         _______ _______ _______ _____ _____    ______ ____
ROOT
ATOM      1  O   UNL     1      49.200   6.275  18.353  0.00  0.00    +0.000 OA
ENDROOT
BRANCH   1   2
ATOM      2  C   UNL     1      48.931   5.107  17.688  0.00  0.00    +0.000 A 
ATOM      3  C   UNL     1      49.439   3.846  17.988  0.00  0.00    +0.000 A 
ATOM      4  N   UNL     1      49.132   2.713  17.309  0.00  0.00    +0.000 NA
ATOM      5  C   UNL     1      48.273   2.847  16.273  0.00  0.00    +0.000 A 
ATOM      6  C   UNL     1      47.710   4.056  15.887  0.00  0.00    +0.000 A 
ATOM      7  C   UNL     1      48.050   5.201  16.608  0.00  0.00    +0.000 A 
BRANCH   6   8
ATOM      8  C   UNL     1      46.810   4.114  14.777  0.00  0.00    +0.000 C 
ATOM      9  C   UNL     1      46.058   4.174  13.840  0.00  0.00    +0.000 C 
BRANCH   9  10
ATOM     10  C   UNL     1      45.125   4.241  12.733  0.00  0.00    +0.000 C 
ATOM     11  C   UNL     1      45.597   5.075  11.508  0.00  0.00    +0.000 C 
ATOM     12  C   UNL     1      44.155   5.607  11.389  0.00  0.00    +0.000 C 
ATOM     13  C   UNL     1      43.978   5.280  12.885  0.00  0.00    +0.000 C 
BRANCH  10  14
ATOM     14  O   UNL     1      44.689   2.899  12.426  0.00  0.00    +0.000 OA
ATOM     15  H   UNL     1      43.741   2.988  12.224  0.00  0.00    +0.000 HD
ENDBRANCH  10  14
ENDBRANCH   9  10
ENDBRANCH   6   8
ENDBRANCH   1   2
BRANCH   1  16
ATOM     16  C   UNL     1      48.274   7.346  18.136  0.00  0.00    +0.000 C 
BRANCH  16  18
ATOM     17  C   UNL     1      48.258   9.822  18.739  0.00  0.00    +0.000 C 
ATOM     18  C   UNL     1      48.973   8.722  17.920  0.00  0.00    +0.000 C 
ATOM     19  C   UNL     1      50.398   8.577  18.515  0.00  0.00    +0.000 C 
BRANCH  18  20
ATOM     20  C   UNL     1      48.991   9.136  16.435  0.00  0.00    +0.000 A 
ATOM     21  C   UNL     1      49.431  10.392  15.997  0.00  0.00    +0.000 A 
ATOM     22  C   UNL     1      49.321  10.728  14.654  0.00  0.00    +0.000 A 
ATOM     23  N   UNL     1      48.798   9.916  13.714  0.00  0.00    +0.000 NA
ATOM     24  C   UNL     1      48.371   8.690  14.118  0.00  0.00    +0.000 A 
ATOM     25  C   UNL     1      48.482   8.272  15.450  0.00  0.00    +0.000 A 
BRANCH  24  26
ATOM     26  C   UNL     1      47.694   7.757  13.122  0.00  0.00    +0.000 C 
ATOM     27  F   UNL     1      47.632   8.235  11.848  0.00  0.00    +0.000 F 
ATOM     28  F   UNL     1      48.309   6.541  13.036  0.00  0.00    +0.000 F 
ATOM     29  F   UNL     1      46.401   7.482  13.474  0.00  0.00    +0.000 F 
ENDBRANCH  24  26
ENDBRANCH  18  20
ENDBRANCH  16  18
ENDBRANCH   1  16
TORSDOF 8
ENDMDL
MODEL 5
REMARK VINA RESULT:    -4.653      3.092      6.998
REMARK INTER + INTRA:          -8.412
REMARK INTER:                  -7.403
REMARK INTRA:                  -1.009
REMARK UNBOUND:                -1.719
REMARK  Name = 
REMARK  10 active torsions:
REMARK  status: ('A' for Active; 'I' for Inactive)
REMARK    1  A    between atoms: C_1  and  C_2
REMARK    2  A    between atoms: C_2  and  C_3
REMARK    3  A    between atoms: C_2  and  C_4
REMARK    4  A    between atoms: C_2  and  C_19
REMARK    5  A    between atoms: C_4  and  O_5
REMARK    6  A    between atoms: O_5  and  C_6
REMARK    7  A    between atoms: C_10  and  C_11
REMARK    8  A    between atoms: C_12  and  C_13
REMARK    9  A    between atoms: C_13  and  O_14
REMARK   10  A    between atoms: C_23  and  C_24
REMARK                            x       y       z     vdW  Elec       q    Type
REMARK                         _______ _______ _______ _____ _____    ______ ____
ROOT
ATOM      1  O   UNL     1      49.629   7.127  17.176  0.00  0.00    +0.000 OA
ENDROOT
BRANCH   1   2
ATOM      2  C   UNL     1      49.461   5.782  17.377  0.00  0.00    +0.000 A 
ATOM      3  C   UNL     1      48.249   5.106  17.493  0.00  0.00    +0.000 A 
ATOM      4  N   UNL     1      48.131   3.768  17.676  0.00  0.00    +0.000 NA
ATOM      5  C   UNL     1      49.284   3.067  17.751  0.00  0.00    +0.000 A 
ATOM      6  C   UNL     1      50.545   3.640  17.651  0.00  0.00    +0.000 A 
ATOM      7  C   UNL     1      50.628   5.020  17.463  0.00  0.00    +0.000 A 
BRANCH   6   8
ATOM      8  C   UNL     1      51.719   2.828  17.742  0.00  0.00    +0.000 C 
ATOM      9  C   UNL     1      52.706   2.144  17.807  0.00  0.00    +0.000 C 
BRANCH   9  10
ATOM     10  C   UNL     1      53.880   1.301  17.910  0.00  0.00    +0.000 C 
ATOM     11  C   UNL     1      55.142   1.813  17.158  0.00  0.00    +0.000 C 
ATOM     12  C   UNL     1      55.418   0.354  16.747  0.00  0.00    +0.000 C 
ATOM     13  C   UNL     1      53.915   0.079  16.949  0.00  0.00    +0.000 C 
BRANCH  10  14
ATOM     14  O   UNL     1      54.088   0.980  19.303  0.00  0.00    +0.000 OA
ATOM     15  H   UNL     1      55.004   1.250  19.484  0.00  0.00    +0.000 HD
ENDBRANCH  10  14
ENDBRANCH   9  10
ENDBRANCH   6   8
ENDBRANCH   1   2
BRANCH   1  16
ATOM     16  C   UNL     1      48.643   7.765  16.355  0.00  0.00    +0.000 C 
BRANCH  16  18
ATOM     17  C   UNL     1      49.082   9.739  14.803  0.00  0.00    +0.000 C 
ATOM     18  C   UNL     1      49.199   8.205  14.967  0.00  0.00    +0.000 C 
ATOM     19  C   UNL     1      50.714   7.872  14.986  0.00  0.00    +0.000 C 
BRANCH  18  20
ATOM     20  C   UNL     1      48.458   7.520  13.801  0.00  0.00    +0.000 A 
ATOM     21  C   UNL     1      48.299   8.113  12.543  0.00  0.00    +0.000 A 
ATOM     22  C   UNL     1      47.531   7.476  11.576  0.00  0.00    +0.000 A 
ATOM     23  N   UNL     1      46.899   6.303  11.768  0.00  0.00    +0.000 NA
ATOM     24  C   UNL     1      47.046   5.708  12.982  0.00  0.00    +0.000 A 
ATOM     25  C   UNL     1      47.833   6.275  13.991  0.00  0.00    +0.000 A 
BRANCH  24  26
ATOM     26  C   UNL     1      46.291   4.421  13.291  0.00  0.00    +0.000 C 
ATOM     27  F   UNL     1      45.353   4.535  14.274  0.00  0.00    +0.000 F 
ATOM     28  F   UNL     1      45.635   3.919  12.204  0.00  0.00    +0.000 F 
ATOM     29  F   UNL     1      47.128   3.420  13.699  0.00  0.00    +0.000 F 
ENDBRANCH  24  26
ENDBRANCH  18  20
ENDBRANCH  16  18
ENDBRANCH   1  16
TORSDOF 8
ENDMDL
MODEL 6
REMARK VINA RESULT:    -4.510     10.786     12.226
REMARK INTER + INTRA:          -8.207
REMARK INTER:                  -7.058
REMARK INTRA:                  -1.148
REMARK UNBOUND:                -1.719
REMARK  Name = 
REMARK  10 active torsions:
REMARK  status: ('A' for Active; 'I' for Inactive)
REMARK    1  A    between atoms: C_1  and  C_2
REMARK    2  A    between atoms: C_2  and  C_3
REMARK    3  A    between atoms: C_2  and  C_4
REMARK    4  A    between atoms: C_2  and  C_19
REMARK    5  A    between atoms: C_4  and  O_5
REMARK    6  A    between atoms: O_5  and  C_6
REMARK    7  A    between atoms: C_10  and  C_11
REMARK    8  A    between atoms: C_12  and  C_13
REMARK    9  A    between atoms: C_13  and  O_14
REMARK   10  A    between atoms: C_23  and  C_24
REMARK                            x       y       z     vdW  Elec       q    Type
REMARK                         _______ _______ _______ _____ _____    ______ ____
ROOT
ATOM      1  O   UNL     1      40.050  -0.973  19.820  0.00  0.00    +0.000 OA
ENDROOT
BRANCH   1   2
ATOM      2  C   UNL     1      40.437  -2.086  19.122  0.00  0.00    +0.000 A 
ATOM      3  C   UNL     1      40.861  -3.298  19.661  0.00  0.00    +0.000 A 
ATOM      4  N   UNL     1      41.221  -4.380  18.928  0.00  0.00    +0.000 NA
ATOM      5  C   UNL     1      41.156  -4.246  17.584  0.00  0.00    +0.000 A 
ATOM      6  C   UNL     1      40.751  -3.083  16.943  0.00  0.00    +0.000 A 
ATOM      7  C   UNL     1      40.388  -1.989  17.730  0.00  0.00    +0.000 A 
BRANCH   6   8
ATOM      8  C   UNL     1      40.711  -3.019  15.514  0.00  0.00    +0.000 C 
ATOM      9  C   UNL     1      40.675  -2.978  14.313  0.00  0.00    +0.000 C 
BRANCH   9  10
ATOM     10  C   UNL     1      40.664  -2.915  12.865  0.00  0.00    +0.000 C 
ATOM     11  C   UNL     1      39.307  -2.507  12.223  0.00  0.00    +0.000 C 
ATOM     12  C   UNL     1      39.575  -3.561  11.130  0.00  0.00    +0.000 C 
ATOM     13  C   UNL     1      40.497  -4.278  12.136  0.00  0.00    +0.000 C 
BRANCH  10  14
ATOM     14  O   UNL     1      41.800  -2.134  12.436  0.00  0.00    +0.000 OA
ATOM     15  H   UNL     1      41.625  -1.238  12.770  0.00  0.00    +0.000 HD
ENDBRANCH  10  14
ENDBRANCH   9  10
ENDBRANCH   6   8
ENDBRANCH   1   2
BRANCH   1  16
ATOM     16  C   UNL     1      38.707  -0.527  19.593  0.00  0.00    +0.000 C 
BRANCH  16  18
ATOM     17  C   UNL     1      37.196   1.097  20.848  0.00  0.00    +0.000 C 
ATOM     18  C   UNL     1      38.482   0.961  20.000  0.00  0.00    +0.000 C 
ATOM     19  C   UNL     1      39.669   1.336  20.925  0.00  0.00    +0.000 C 
BRANCH  18  20
ATOM     20  C   UNL     1      38.373   1.888  18.773  0.00  0.00    +0.000 A 
ATOM     21  C   UNL     1      38.867   3.198  18.759  0.00  0.00    +0.000 A 
ATOM     22  C   UNL     1      38.640   4.006  17.651  0.00  0.00    +0.000 A 
ATOM     23  N   UNL     1      37.949   3.615  16.563  0.00  0.00    +0.000 NA
ATOM     24  C   UNL     1      37.467   2.343  16.555  0.00  0.00    +0.000 A 
ATOM     25  C   UNL     1      37.688   1.464  17.621  0.00  0.00    +0.000 A 
BRANCH  24  26
ATOM     26  C   UNL     1      36.608   1.866  15.390  0.00  0.00    +0.000 C 
ATOM     27  F   UNL     1      35.868   2.842  14.793  0.00  0.00    +0.000 F 
ATOM     28  F   UNL     1      37.342   1.290  14.393  0.00  0.00    +0.000 F 
ATOM     29  F   UNL     1      35.710   0.909  15.774  0.00  0.00    +0.000 F 
ENDBRANCH  24  26
ENDBRANCH  18  20
ENDBRANCH  16  18
ENDBRANCH   1  16
TORSDOF 8
ENDMDL
MODEL 7
REMARK VINA RESULT:    -4.502      3.948      6.437
REMARK INTER + INTRA:          -8.194
REMARK INTER:                  -6.783
REMARK INTRA:                  -1.411
REMARK UNBOUND:                -1.719
REMARK  Name = 
REMARK  10 active torsions:
REMARK  status: ('A' for Active; 'I' for Inactive)
REMARK    1  A    between atoms: C_1  and  C_2
REMARK    2  A    between atoms: C_2  and  C_3
REMARK    3  A    between atoms: C_2  and  C_4
REMARK    4  A    between atoms: C_2  and  C_19
REMARK    5  A    between atoms: C_4  and  O_5
REMARK    6  A    between atoms: O_5  and  C_6
REMARK    7  A    between atoms: C_10  and  C_11
REMARK    8  A    between atoms: C_12  and  C_13
REMARK    9  A    between atoms: C_13  and  O_14
REMARK   10  A    between atoms: C_23  and  C_24
REMARK                            x       y       z     vdW  Elec       q    Type
REMARK                         _______ _______ _______ _____ _____    ______ ____
ROOT
ATOM      1  O   UNL     1      50.461  10.342  13.950  0.00  0.00    +0.000 OA
ENDROOT
BRANCH   1   2
ATOM      2  C   UNL     1      49.977  10.091  15.207  0.00  0.00    +0.000 A 
ATOM      3  C   UNL     1      49.829  11.014  16.239  0.00  0.00    +0.000 A 
ATOM      4  N   UNL     1      49.330  10.723  17.465  0.00  0.00    +0.000 NA
ATOM      5  C   UNL     1      48.961   9.439  17.674  0.00  0.00    +0.000 A 
ATOM      6  C   UNL     1      49.068   8.438  16.718  0.00  0.00    +0.000 A 
ATOM      7  C   UNL     1      49.587   8.776  15.467  0.00  0.00    +0.000 A 
BRANCH   6   8
ATOM      8  C   UNL     1      48.657   7.101  17.018  0.00  0.00    +0.000 C 
ATOM      9  C   UNL     1      48.315   5.974  17.260  0.00  0.00    +0.000 C 
BRANCH   9  10
ATOM     10  C   UNL     1      47.872   4.627  17.558  0.00  0.00    +0.000 C 
ATOM     11  C   UNL     1      48.990   3.631  17.980  0.00  0.00    +0.000 C 
ATOM     12  C   UNL     1      48.272   2.558  17.138  0.00  0.00    +0.000 C 
ATOM     13  C   UNL     1      47.645   3.707  16.324  0.00  0.00    +0.000 C 
BRANCH  10  14
ATOM     14  O   UNL     1      46.752   4.708  18.465  0.00  0.00    +0.000 OA
ATOM     15  H   UNL     1      46.861   5.562  18.917  0.00  0.00    +0.000 HD
ENDBRANCH  10  14
ENDBRANCH   9  10
ENDBRANCH   6   8
ENDBRANCH   1   2
BRANCH   1  16
ATOM     16  C   UNL     1      51.004   9.214  13.252  0.00  0.00    +0.000 C 
BRANCH  16  18
ATOM     17  C   UNL     1      50.022  10.182  11.108  0.00  0.00    +0.000 C 
ATOM     18  C   UNL     1      50.241   8.891  11.932  0.00  0.00    +0.000 C 
ATOM     19  C   UNL     1      51.188   7.987  11.100  0.00  0.00    +0.000 C 
BRANCH  18  20
ATOM     20  C   UNL     1      48.875   8.229  12.198  0.00  0.00    +0.000 A 
ATOM     21  C   UNL     1      48.733   6.876  12.529  0.00  0.00    +0.000 A 
ATOM     22  C   UNL     1      47.461   6.329  12.654  0.00  0.00    +0.000 A 
ATOM     23  N   UNL     1      46.322   7.021  12.462  0.00  0.00    +0.000 NA
ATOM     24  C   UNL     1      46.438   8.338  12.146  0.00  0.00    +0.000 A 
ATOM     25  C   UNL     1      47.687   8.963  12.038  0.00  0.00    +0.000 A 
BRANCH  24  26
ATOM     26  C   UNL     1      45.191   9.156  11.835  0.00  0.00    +0.000 C 
ATOM     27  F   UNL     1      45.415  10.269  11.082  0.00  0.00    +0.000 F 
ATOM     28  F   UNL     1      44.240   8.438  11.169  0.00  0.00    +0.000 F 
ATOM     29  F   UNL     1      44.574   9.602  12.972  0.00  0.00    +0.000 F 
ENDBRANCH  24  26
ENDBRANCH  18  20
ENDBRANCH  16  18
ENDBRANCH   1  16
TORSDOF 8
ENDMDL
MODEL 8
REMARK VINA RESULT:    -4.434     10.918     12.977
REMARK INTER + INTRA:          -8.097
REMARK INTER:                  -7.188
REMARK INTRA:                  -0.909
REMARK UNBOUND:                -1.719
REMARK  Name = 
REMARK  10 active torsions:
REMARK  status: ('A' for Active; 'I' for Inactive)
REMARK    1  A    between atoms: C_1  and  C_2
REMARK    2  A    between atoms: C_2  and  C_3
REMARK    3  A    between atoms: C_2  and  C_4
REMARK    4  A    between atoms: C_2  and  C_19
REMARK    5  A    between atoms: C_4  and  O_5
REMARK    6  A    between atoms: O_5  and  C_6
REMARK    7  A    between atoms: C_10  and  C_11
REMARK    8  A    between atoms: C_12  and  C_13
REMARK    9  A    between atoms: C_13  and  O_14
REMARK   10  A    between atoms: C_23  and  C_24
REMARK                            x       y       z     vdW  Elec       q    Type
REMARK                         _______ _______ _______ _____ _____    ______ ____
ROOT
ATOM      1  O   UNL     1      39.581  -1.775  14.821  0.00  0.00    +0.000 OA
ENDROOT
BRANCH   1   2
ATOM      2  C   UNL     1      40.196  -2.961  14.521  0.00  0.00    +0.000 A 
ATOM      3  C   UNL     1      40.064  -3.689  13.341  0.00  0.00    +0.000 A 
ATOM      4  N   UNL     1      40.706  -4.854  13.082  0.00  0.00    +0.000 NA
ATOM      5  C   UNL     1      41.523  -5.320  14.053  0.00  0.00    +0.000 A 
ATOM      6  C   UNL     1      41.725  -4.677  15.267  0.00  0.00    +0.000 A 
ATOM      7  C   UNL     1      41.047  -3.480  15.499  0.00  0.00    +0.000 A 
BRANCH   6   8
ATOM      8  C   UNL     1      42.606  -5.237  16.246  0.00  0.00    +0.000 C 
ATOM      9  C   UNL     1      43.343  -5.698  17.076  0.00  0.00    +0.000 C 
BRANCH   9  10
ATOM     10  C   UNL     1      44.258  -6.255  18.053  0.00  0.00    +0.000 C 
ATOM     11  C   UNL     1      45.363  -5.288  18.564  0.00  0.00    +0.000 C 
ATOM     12  C   UNL     1      46.343  -6.477  18.517  0.00  0.00    +0.000 C 
ATOM     13  C   UNL     1      45.411  -7.122  17.473  0.00  0.00    +0.000 C 
BRANCH  10  14
ATOM     14  O   UNL     1      43.481  -6.897  19.087  0.00  0.00    +0.000 OA
ATOM     15  H   UNL     1      43.764  -7.827  19.067  0.00  0.00    +0.000 HD
ENDBRANCH  10  14
ENDBRANCH   9  10
ENDBRANCH   6   8
ENDBRANCH   1   2
BRANCH   1  16
ATOM     16  C   UNL     1      39.914  -1.201  16.091  0.00  0.00    +0.000 C 
BRANCH  16  18
ATOM     17  C   UNL     1      37.564  -1.970  16.709  0.00  0.00    +0.000 C 
ATOM     18  C   UNL     1      38.665  -0.917  16.979  0.00  0.00    +0.000 C 
ATOM     19  C   UNL     1      39.126  -1.119  18.446  0.00  0.00    +0.000 C 
BRANCH  18  20
ATOM     20  C   UNL     1      38.083   0.489  16.730  0.00  0.00    +0.000 A 
ATOM     21  C   UNL     1      37.340   0.818  15.590  0.00  0.00    +0.000 A 
ATOM     22  C   UNL     1      36.937   2.132  15.389  0.00  0.00    +0.000 A 
ATOM     23  N   UNL     1      37.226   3.146  16.227  0.00  0.00    +0.000 NA
ATOM     24  C   UNL     1      37.942   2.846  17.344  0.00  0.00    +0.000 A 
ATOM     25  C   UNL     1      38.352   1.537  17.627  0.00  0.00    +0.000 A 
BRANCH  24  26
ATOM     26  C   UNL     1      38.373   3.959  18.290  0.00  0.00    +0.000 C 
ATOM     27  F   UNL     1      37.349   4.582  18.938  0.00  0.00    +0.000 F 
ATOM     28  F   UNL     1      39.224   3.524  19.265  0.00  0.00    +0.000 F 
ATOM     29  F   UNL     1      39.052   4.952  17.638  0.00  0.00    +0.000 F 
ENDBRANCH  24  26
ENDBRANCH  18  20
ENDBRANCH  16  18
ENDBRANCH   1  16
TORSDOF 8
ENDMDL
MODEL 9
REMARK VINA RESULT:    -4.308     11.038     12.560
REMARK INTER + INTRA:          -7.915
REMARK INTER:                  -6.158
REMARK INTRA:                  -1.757
REMARK UNBOUND:                -1.719
REMARK  Name = 
REMARK  10 active torsions:
REMARK  status: ('A' for Active; 'I' for Inactive)
REMARK    1  A    between atoms: C_1  and  C_2
REMARK    2  A    between atoms: C_2  and  C_3
REMARK    3  A    between atoms: C_2  and  C_4
REMARK    4  A    between atoms: C_2  and  C_19
REMARK    5  A    between atoms: C_4  and  O_5
REMARK    6  A    between atoms: O_5  and  C_6
REMARK    7  A    between atoms: C_10  and  C_11
REMARK    8  A    between atoms: C_12  and  C_13
REMARK    9  A    between atoms: C_13  and  O_14
REMARK   10  A    between atoms: C_23  and  C_24
REMARK                            x       y       z     vdW  Elec       q    Type
REMARK                         _______ _______ _______ _____ _____    ______ ____
ROOT
ATOM      1  O   UNL     1      39.460  -3.439  14.932  0.00  0.00    +0.000 OA
ENDROOT
BRANCH   1   2
ATOM      2  C   UNL     1      38.536  -2.438  14.781  0.00  0.00    +0.000 A 
ATOM      3  C   UNL     1      37.421  -2.457  13.947  0.00  0.00    +0.000 A 
ATOM      4  N   UNL     1      36.524  -1.447  13.841  0.00  0.00    +0.000 NA
ATOM      5  C   UNL     1      36.752  -0.357  14.608  0.00  0.00    +0.000 A 
ATOM      6  C   UNL     1      37.833  -0.232  15.472  0.00  0.00    +0.000 A 
ATOM      7  C   UNL     1      38.736  -1.292  15.553  0.00  0.00    +0.000 A 
BRANCH   6   8
ATOM      8  C   UNL     1      38.005   0.956  16.249  0.00  0.00    +0.000 C 
ATOM      9  C   UNL     1      38.156   1.949  16.911  0.00  0.00    +0.000 C 
BRANCH   9  10
ATOM     10  C   UNL     1      38.304   3.150  17.708  0.00  0.00    +0.000 C 
ATOM     11  C   UNL     1      38.528   2.921  19.230  0.00  0.00    +0.000 C 
ATOM     12  C   UNL     1      37.599   4.124  19.488  0.00  0.00    +0.000 C 
ATOM     13  C   UNL     1      36.978   3.861  18.102  0.00  0.00    +0.000 C 
BRANCH  10  14
ATOM     14  O   UNL     1      39.280   4.001  17.069  0.00  0.00    +0.000 OA
ATOM     15  H   UNL     1      40.140   3.658  17.368  0.00  0.00    +0.000 HD
ENDBRANCH  10  14
ENDBRANCH   9  10
ENDBRANCH   6   8
ENDBRANCH   1   2
BRANCH   1  16
ATOM     16  C   UNL     1      40.616  -3.110  15.711  0.00  0.00    +0.000 C 
BRANCH  16  18
ATOM     17  C   UNL     1      39.916  -5.330  16.749  0.00  0.00    +0.000 C 
ATOM     18  C   UNL     1      40.988  -4.215  16.745  0.00  0.00    +0.000 C 
ATOM     19  C   UNL     1      42.301  -4.861  16.229  0.00  0.00    +0.000 C 
BRANCH  18  20
ATOM     20  C   UNL     1      41.129  -3.651  18.173  0.00  0.00    +0.000 A 
ATOM     21  C   UNL     1      41.867  -4.288  19.178  0.00  0.00    +0.000 A 
ATOM     22  C   UNL     1      41.862  -3.770  20.467  0.00  0.00    +0.000 A 
ATOM     23  N   UNL     1      41.170  -2.676  20.837  0.00  0.00    +0.000 NA
ATOM     24  C   UNL     1      40.451  -2.038  19.873  0.00  0.00    +0.000 A 
ATOM     25  C   UNL     1      40.439  -2.485  18.547  0.00  0.00    +0.000 A 
BRANCH  24  26
ATOM     26  C   UNL     1      39.582  -0.843  20.243  0.00  0.00    +0.000 C 
ATOM     27  F   UNL     1      38.584  -1.119  21.129  0.00  0.00    +0.000 F 
ATOM     28  F   UNL     1      40.298   0.182  20.792  0.00  0.00    +0.000 F 
ATOM     29  F   UNL     1      38.962  -0.302  19.150  0.00  0.00    +0.000 F 
ENDBRANCH  24  26
ENDBRANCH  18  20
ENDBRANCH  16  18
ENDBRANCH   1  16
TORSDOF 8
ENDMDL
