MODEL 1
REMARK VINA RESULT:    -7.161      0.000      0.000
REMARK INTER + INTRA:         -12.023
REMARK INTER:                 -10.300
REMARK INTRA:                  -1.723
REMARK UNBOUND:                -1.723
REMARK  Name = 
REMARK  9 active torsions:
REMARK  status: ('A' for Active; 'I' for Inactive)
REMARK    1  A    between atoms: C_1  and  C_2
REMARK    2  A    between atoms: C_2  and  N_3
REMARK    3  A    between atoms: N_3  and  C_4
REMARK    4  A    between atoms: C_4  and  C_5
REMARK    5  A    between atoms: C_8  and  C_9
REMARK    6  A    between atoms: C_9  and  N_10
REMARK    7  A    between atoms: N_10  and  C_11
REMARK    8  A    between atoms: C_14  and  O_15
REMARK    9  A    between atoms: C_19  and  C_21
REMARK                            x       y       z     vdW  Elec       q    Type
REMARK                         _______ _______ _______ _____ _____    ______ ____
ROOT
ATOM      1  C   UNL     1      47.181   6.055  12.521  0.00  0.00    +0.000 C 
ENDROOT
BRANCH   1   2
ATOM      2  C   UNL     1      47.376   5.746  13.978  0.00  0.00    +0.000 A 
ATOM      3  C   UNL     1      46.790   4.601  14.533  0.00  0.00    +0.000 A 
ATOM      4  C   UNL     1      47.168   4.163  15.797  0.00  0.00    +0.000 A 
ATOM      5  C   UNL     1      48.149   4.857  16.519  0.00  0.00    +0.000 A 
ATOM      6  C   UNL     1      48.661   6.053  16.006  0.00  0.00    +0.000 A 
ATOM      7  C   UNL     1      48.272   6.500  14.744  0.00  0.00    +0.000 A 
BRANCH   5   8
ATOM      8  C   UNL     1      48.681   4.286  17.809  0.00  0.00    +0.000 C 
BRANCH   8   9
ATOM      9  N   UNL     1      47.750   4.582  18.907  0.00  0.00    +0.000 NA
ATOM     10  H   UNL     1      47.379   3.691  19.246  0.00  0.00    +0.000 HD
BRANCH   9  11
ATOM     11  C   UNL     1      48.391   5.291  20.020  0.00  0.00    +0.000 C 
ATOM     12  C   UNL     1      49.566   6.159  19.527  0.00  0.00    +0.000 C 
ATOM     13  C   UNL     1      49.188   7.612  19.798  0.00  0.00    +0.000 C 
ATOM     14  C   UNL     1      47.671   7.598  19.900  0.00  0.00    +0.000 C 
ATOM     15  C   UNL     1      47.396   6.293  20.636  0.00  0.00    +0.000 C 
BRANCH  14  16
ATOM     16  O   UNL     1      47.087   7.588  18.603  0.00  0.00    +0.000 OA
ATOM     17  H   UNL     1      47.797   7.796  17.962  0.00  0.00    +0.000 HD
ENDBRANCH  14  16
ENDBRANCH   9  11
ENDBRANCH   8   9
ENDBRANCH   5   8
ENDBRANCH   1   2
BRANCH   1  18
ATOM     18  N   UNL     1      46.198   7.050  12.116  0.00  0.00    +0.000 N 
ATOM     19  C   UNL     1      44.914   6.700  11.658  0.00  0.00    +0.000 C 
ATOM     20  O   UNL     1      44.080   7.555  11.369  0.00  0.00    +0.000 OA
BRANCH  19  21
ATOM     21  C   UNL     1      44.543   5.280  11.555  0.00  0.00    +0.000 A 
ATOM     22  C   UNL     1      43.800   4.579  12.491  0.00  0.00    +0.000 A 
ATOM     23  S   UNL     1      43.474   2.965  12.036  0.00  0.00    +0.000 S 
ATOM     24  C   UNL     1      44.191   3.195  10.511  0.00  0.00    +0.000 A 
ATOM     25  N   UNL     1      44.154   2.222   9.568  0.00  0.00    +0.000 NA
ATOM     26  C   UNL     1      44.687   2.565   8.438  0.00  0.00    +0.000 A 
ATOM     27  N   UNL     1      45.286   3.775   8.192  0.00  0.00    +0.000 N 
ATOM     28  C   UNL     1      45.465   4.737   9.161  0.00  0.00    +0.000 A 
ATOM     29  O   UNL     1      46.203   5.697   8.975  0.00  0.00    +0.000 OA
ATOM     30  C   UNL     1      44.767   4.447  10.400  0.00  0.00    +0.000 A 
ATOM     31  H   UNL     1      45.743   3.952   7.310  0.00  0.00    +0.000 HD
ENDBRANCH  19  21
BRANCH  18  33
ATOM     32  C   UNL     1      47.887   8.856  11.958  0.00  0.00    +0.000 C 
ATOM     33  C   UNL     1      46.460   8.475  12.330  0.00  0.00    +0.000 C 
ENDBRANCH  18  33
ENDBRANCH   1  18
TORSDOF 8
ENDMDL
MODEL 2
REMARK VINA RESULT:    -6.712      2.031      2.515
REMARK INTER + INTRA:         -11.377
REMARK INTER:                 -10.028
REMARK INTRA:                  -1.349
REMARK UNBOUND:                -1.723
REMARK  Name = 
REMARK  9 active torsions:
REMARK  status: ('A' for Active; 'I' for Inactive)
REMARK    1  A    between atoms: C_1  and  C_2
REMARK    2  A    between atoms: C_2  and  N_3
REMARK    3  A    between atoms: N_3  and  C_4
REMARK    4  A    between atoms: C_4  and  C_5
REMARK    5  A    between atoms: C_8  and  C_9
REMARK    6  A    between atoms: C_9  and  N_10
REMARK    7  A    between atoms: N_10  and  C_11
REMARK    8  A    between atoms: C_14  and  O_15
REMARK    9  A    between atoms: C_19  and  C_21
REMARK                            x       y       z     vdW  Elec       q    Type
REMARK                         _______ _______ _______ _____ _____    ______ ____
ROOT
ATOM      1  C   UNL     1      47.161   6.234  12.369  0.00  0.00    +0.000 C 
ENDROOT
BRANCH   1   2
ATOM      2  C   UNL     1      47.399   5.897  13.813  0.00  0.00    +0.000 A 
ATOM      3  C   UNL     1      46.842   4.732  14.359  0.00  0.00    +0.000 A 
ATOM      4  C   UNL     1      47.260   4.273  15.604  0.00  0.00    +0.000 A 
ATOM      5  C   UNL     1      48.251   4.964  16.313  0.00  0.00    +0.000 A 
ATOM      6  C   UNL     1      48.734   6.177  15.812  0.00  0.00    +0.000 A 
ATOM      7  C   UNL     1      48.307   6.646  14.571  0.00  0.00    +0.000 A 
BRANCH   5   8
ATOM      8  C   UNL     1      48.825   4.373  17.576  0.00  0.00    +0.000 C 
BRANCH   8   9
ATOM      9  N   UNL     1      50.224   3.982  17.352  0.00  0.00    +0.000 NA
ATOM     10  H   UNL     1      50.389   3.991  16.342  0.00  0.00    +0.000 HD
BRANCH   9  11
ATOM     11  C   UNL     1      51.177   4.889  18.003  0.00  0.00    +0.000 C 
ATOM     12  C   UNL     1      51.073   4.802  19.538  0.00  0.00    +0.000 C 
ATOM     13  C   UNL     1      52.401   4.244  20.041  0.00  0.00    +0.000 C 
ATOM     14  C   UNL     1      52.993   3.526  18.840  0.00  0.00    +0.000 C 
ATOM     15  C   UNL     1      52.616   4.441  17.682  0.00  0.00    +0.000 C 
BRANCH  14  16
ATOM     16  O   UNL     1      52.402   2.241  18.691  0.00  0.00    +0.000 OA
ATOM     17  H   UNL     1      52.496   1.983  17.751  0.00  0.00    +0.000 HD
ENDBRANCH  14  16
ENDBRANCH   9  11
ENDBRANCH   8   9
ENDBRANCH   5   8
ENDBRANCH   1   2
BRANCH   1  18
ATOM     18  N   UNL     1      46.114   7.180  12.008  0.00  0.00    +0.000 N 
ATOM     19  C   UNL     1      44.829   6.768  11.610  0.00  0.00    +0.000 C 
ATOM     20  O   UNL     1      43.943   7.582  11.358  0.00  0.00    +0.000 OA
BRANCH  19  21
ATOM     21  C   UNL     1      44.521   5.332  11.526  0.00  0.00    +0.000 A 
ATOM     22  C   UNL     1      43.785   4.617  12.458  0.00  0.00    +0.000 A 
ATOM     23  S   UNL     1      43.539   2.982  12.027  0.00  0.00    +0.000 S 
ATOM     24  C   UNL     1      44.284   3.215  10.516  0.00  0.00    +0.000 A 
ATOM     25  N   UNL     1      44.311   2.223   9.591  0.00  0.00    +0.000 NA
ATOM     26  C   UNL     1      44.857   2.567   8.468  0.00  0.00    +0.000 A 
ATOM     27  N   UNL     1      45.411   3.797   8.212  0.00  0.00    +0.000 N 
ATOM     28  C   UNL     1      45.525   4.784   9.166  0.00  0.00    +0.000 A 
ATOM     29  O   UNL     1      46.226   5.771   8.979  0.00  0.00    +0.000 OA
ATOM     30  C   UNL     1      44.809   4.488  10.393  0.00  0.00    +0.000 A 
ATOM     31  H   UNL     1      45.882   3.977   7.338  0.00  0.00    +0.000 HD
ENDBRANCH  19  21
BRANCH  18  33
ATOM     32  C   UNL     1      47.746   9.040  11.890  0.00  0.00    +0.000 C 
ATOM     33  C   UNL     1      46.319   8.616  12.208  0.00  0.00    +0.000 C 
ENDBRANCH  18  33
ENDBRANCH   1  18
TORSDOF 8
ENDMDL
MODEL 3
REMARK VINA RESULT:    -6.535      1.394      2.199
REMARK INTER + INTRA:         -11.123
REMARK INTER:                  -9.637
REMARK INTRA:                  -1.487
REMARK UNBOUND:                -1.723
REMARK  Name = 
REMARK  9 active torsions:
REMARK  status: ('A' for Active; 'I' for Inactive)
REMARK    1  A    between atoms: C_1  and  C_2
REMARK    2  A    between atoms: C_2  and  N_3
REMARK    3  A    between atoms: N_3  and  C_4
REMARK    4  A    between atoms: C_4  and  C_5
REMARK    5  A    between atoms: C_8  and  C_9
REMARK    6  A    between atoms: C_9  and  N_10
REMARK    7  A    between atoms: N_10  and  C_11
REMARK    8  A    between atoms: C_14  and  O_15
REMARK    9  A    between atoms: C_19  and  C_21
REMARK                            x       y       z     vdW  Elec       q    Type
REMARK                         _______ _______ _______ _____ _____    ______ ____
ROOT
ATOM      1  C   UNL     1      47.465   6.380  12.334  0.00  0.00    +0.000 C 
ENDROOT
BRANCH   1   2
ATOM      2  C   UNL     1      47.652   5.660  13.639  0.00  0.00    +0.000 A 
ATOM      3  C   UNL     1      48.327   6.289  14.693  0.00  0.00    +0.000 A 
ATOM      4  C   UNL     1      48.283   5.750  15.974  0.00  0.00    +0.000 A 
ATOM      5  C   UNL     1      47.550   4.582  16.222  0.00  0.00    +0.000 A 
ATOM      6  C   UNL     1      46.959   3.903  15.151  0.00  0.00    +0.000 A 
ATOM      7  C   UNL     1      47.014   4.435  13.864  0.00  0.00    +0.000 A 
BRANCH   5   8
ATOM      8  C   UNL     1      47.359   4.097  17.637  0.00  0.00    +0.000 C 
BRANCH   8   9
ATOM      9  N   UNL     1      46.833   5.187  18.470  0.00  0.00    +0.000 NA
ATOM     10  H   UNL     1      45.907   4.902  18.802  0.00  0.00    +0.000 HD
BRANCH   9  11
ATOM     11  C   UNL     1      47.688   5.480  19.626  0.00  0.00    +0.000 C 
ATOM     12  C   UNL     1      49.104   5.895  19.184  0.00  0.00    +0.000 C 
ATOM     13  C   UNL     1      49.296   7.346  19.614  0.00  0.00    +0.000 C 
ATOM     14  C   UNL     1      47.884   7.887  19.770  0.00  0.00    +0.000 C 
ATOM     15  C   UNL     1      47.136   6.708  20.377  0.00  0.00    +0.000 C 
BRANCH  14  16
ATOM     16  O   UNL     1      47.346   8.237  18.500  0.00  0.00    +0.000 OA
ATOM     17  H   UNL     1      47.055   7.408  18.068  0.00  0.00    +0.000 HD
ENDBRANCH  14  16
ENDBRANCH   9  11
ENDBRANCH   8   9
ENDBRANCH   5   8
ENDBRANCH   1   2
BRANCH   1  18
ATOM     18  N   UNL     1      46.465   7.433  12.223  0.00  0.00    +0.000 N 
ATOM     19  C   UNL     1      45.282   7.274  11.478  0.00  0.00    +0.000 C 
ATOM     20  O   UNL     1      44.425   8.155  11.438  0.00  0.00    +0.000 OA
BRANCH  19  21
ATOM     21  C   UNL     1      45.042   6.015  10.757  0.00  0.00    +0.000 A 
ATOM     22  C   UNL     1      45.554   5.700   9.509  0.00  0.00    +0.000 A 
ATOM     23  S   UNL     1      45.153   4.126   8.981  0.00  0.00    +0.000 S 
ATOM     24  C   UNL     1      44.402   3.765  10.464  0.00  0.00    +0.000 A 
ATOM     25  N   UNL     1      43.931   2.520  10.724  0.00  0.00    +0.000 NA
ATOM     26  C   UNL     1      43.443   2.381  11.915  0.00  0.00    +0.000 A 
ATOM     27  N   UNL     1      43.348   3.387  12.844  0.00  0.00    +0.000 N 
ATOM     28  C   UNL     1      43.689   4.694  12.574  0.00  0.00    +0.000 A 
ATOM     29  O   UNL     1      43.377   5.603  13.335  0.00  0.00    +0.000 OA
ATOM     30  C   UNL     1      44.362   4.865  11.300  0.00  0.00    +0.000 A 
ATOM     31  H   UNL     1      42.893   3.228  13.731  0.00  0.00    +0.000 HD
ENDBRANCH  19  21
BRANCH  18  33
ATOM     32  C   UNL     1      47.616   9.614  12.462  0.00  0.00    +0.000 C 
ATOM     33  C   UNL     1      46.583   8.650  13.030  0.00  0.00    +0.000 C 
ENDBRANCH  18  33
ENDBRANCH   1  18
TORSDOF 8
ENDMDL
MODEL 4
REMARK VINA RESULT:    -6.333      2.687      7.880
REMARK INTER + INTRA:         -10.832
REMARK INTER:                  -9.202
REMARK INTRA:                  -1.630
REMARK UNBOUND:                -1.723
REMARK  Name = 
REMARK  9 active torsions:
REMARK  status: ('A' for Active; 'I' for Inactive)
REMARK    1  A    between atoms: C_1  and  C_2
REMARK    2  A    between atoms: C_2  and  N_3
REMARK    3  A    between atoms: N_3  and  C_4
REMARK    4  A    between atoms: C_4  and  C_5
REMARK    5  A    between atoms: C_8  and  C_9
REMARK    6  A    between atoms: C_9  and  N_10
REMARK    7  A    between atoms: N_10  and  C_11
REMARK    8  A    between atoms: C_14  and  O_15
REMARK    9  A    between atoms: C_19  and  C_21
REMARK                            x       y       z     vdW  Elec       q    Type
REMARK                         _______ _______ _______ _____ _____    ______ ____
ROOT
ATOM      1  C   UNL     1      49.570   6.985  15.786  0.00  0.00    +0.000 C 
ENDROOT
BRANCH   1   2
ATOM      2  C   UNL     1      48.630   7.112  14.621  0.00  0.00    +0.000 A 
ATOM      3  C   UNL     1      47.886   6.001  14.201  0.00  0.00    +0.000 A 
ATOM      4  C   UNL     1      46.833   6.161  13.307  0.00  0.00    +0.000 A 
ATOM      5  C   UNL     1      46.500   7.437  12.831  0.00  0.00    +0.000 A 
ATOM      6  C   UNL     1      47.305   8.528  13.175  0.00  0.00    +0.000 A 
ATOM      7  C   UNL     1      48.369   8.367  14.060  0.00  0.00    +0.000 A 
BRANCH   5   8
ATOM      8  C   UNL     1      45.256   7.632  12.002  0.00  0.00    +0.000 C 
BRANCH   8   9
ATOM      9  N   UNL     1      44.214   6.692  12.439  0.00  0.00    +0.000 NA
ATOM     10  H   UNL     1      43.478   7.238  12.894  0.00  0.00    +0.000 HD
BRANCH   9  11
ATOM     11  C   UNL     1      43.631   5.934  11.326  0.00  0.00    +0.000 C 
ATOM     12  C   UNL     1      44.697   5.080  10.612  0.00  0.00    +0.000 C 
ATOM     13  C   UNL     1      44.315   3.620  10.831  0.00  0.00    +0.000 C 
ATOM     14  C   UNL     1      43.426   3.639  12.063  0.00  0.00    +0.000 C 
ATOM     15  C   UNL     1      42.615   4.913  11.874  0.00  0.00    +0.000 C 
BRANCH  14  16
ATOM     16  O   UNL     1      44.218   3.706  13.243  0.00  0.00    +0.000 OA
ATOM     17  H   UNL     1      43.708   3.280  13.962  0.00  0.00    +0.000 HD
ENDBRANCH  14  16
ENDBRANCH   9  11
ENDBRANCH   8   9
ENDBRANCH   5   8
ENDBRANCH   1   2
BRANCH   1  18
ATOM     18  N   UNL     1      49.164   7.459  17.101  0.00  0.00    +0.000 N 
ATOM     19  C   UNL     1      48.670   6.595  18.096  0.00  0.00    +0.000 C 
ATOM     20  O   UNL     1      48.380   7.006  19.218  0.00  0.00    +0.000 OA
BRANCH  19  21
ATOM     21  C   UNL     1      48.528   5.160  17.806  0.00  0.00    +0.000 A 
ATOM     22  C   UNL     1      47.360   4.543  17.385  0.00  0.00    +0.000 A 
ATOM     23  S   UNL     1      47.546   2.877  17.058  0.00  0.00    +0.000 S 
ATOM     24  C   UNL     1      49.223   2.958  17.329  0.00  0.00    +0.000 A 
ATOM     25  N   UNL     1      50.020   1.883  17.108  0.00  0.00    +0.000 NA
ATOM     26  C   UNL     1      51.279   2.115  17.299  0.00  0.00    +0.000 A 
ATOM     27  N   UNL     1      51.799   3.310  17.730  0.00  0.00    +0.000 N 
ATOM     28  C   UNL     1      51.015   4.382  18.095  0.00  0.00    +0.000 A 
ATOM     29  O   UNL     1      51.488   5.341  18.692  0.00  0.00    +0.000 OA
ATOM     30  C   UNL     1      49.611   4.210  17.771  0.00  0.00    +0.000 A 
ATOM     31  H   UNL     1      52.784   3.402  17.924  0.00  0.00    +0.000 HD
ENDBRANCH  19  21
BRANCH  18  33
ATOM     32  C   UNL     1      48.183   9.725  17.309  0.00  0.00    +0.000 C 
ATOM     33  C   UNL     1      49.414   8.848  17.493  0.00  0.00    +0.000 C 
ENDBRANCH  18  33
ENDBRANCH   1  18
TORSDOF 8
ENDMDL
MODEL 5
REMARK VINA RESULT:    -6.052      2.585      8.560
REMARK INTER + INTRA:         -10.428
REMARK INTER:                  -8.846
REMARK INTRA:                  -1.582
REMARK UNBOUND:                -1.723
REMARK  Name = 
REMARK  9 active torsions:
REMARK  status: ('A' for Active; 'I' for Inactive)
REMARK    1  A    between atoms: C_1  and  C_2
REMARK    2  A    between atoms: C_2  and  N_3
REMARK    3  A    between atoms: N_3  and  C_4
REMARK    4  A    between atoms: C_4  and  C_5
REMARK    5  A    between atoms: C_8  and  C_9
REMARK    6  A    between atoms: C_9  and  N_10
REMARK    7  A    between atoms: N_10  and  C_11
REMARK    8  A    between atoms: C_14  and  O_15
REMARK    9  A    between atoms: C_19  and  C_21
REMARK                            x       y       z     vdW  Elec       q    Type
REMARK                         _______ _______ _______ _____ _____    ______ ____
ROOT
ATOM      1  C   UNL     1      48.622   8.304  15.061  0.00  0.00    +0.000 C 
ENDROOT
BRANCH   1   2
ATOM      2  C   UNL     1      47.759   7.914  13.895  0.00  0.00    +0.000 A 
ATOM      3  C   UNL     1      47.866   6.629  13.347  0.00  0.00    +0.000 A 
ATOM      4  C   UNL     1      46.908   6.168  12.451  0.00  0.00    +0.000 A 
ATOM      5  C   UNL     1      45.821   6.981  12.102  0.00  0.00    +0.000 A 
ATOM      6  C   UNL     1      45.769   8.297  12.574  0.00  0.00    +0.000 A 
ATOM      7  C   UNL     1      46.737   8.765  13.461  0.00  0.00    +0.000 A 
BRANCH   5   8
ATOM      8  C   UNL     1      44.695   6.419  11.270  0.00  0.00    +0.000 C 
BRANCH   8   9
ATOM      9  N   UNL     1      45.242   5.595  10.184  0.00  0.00    +0.000 NA
ATOM     10  H   UNL     1      46.002   5.033  10.576  0.00  0.00    +0.000 HD
BRANCH   9  11
ATOM     11  C   UNL     1      44.241   4.702   9.590  0.00  0.00    +0.000 C 
ATOM     12  C   UNL     1      44.908   3.534   8.839  0.00  0.00    +0.000 C 
ATOM     13  C   UNL     1      44.525   2.255   9.577  0.00  0.00    +0.000 C 
ATOM     14  C   UNL     1      44.149   2.720  10.975  0.00  0.00    +0.000 C 
ATOM     15  C   UNL     1      43.421   4.031  10.709  0.00  0.00    +0.000 C 
BRANCH  14  16
ATOM     16  O   UNL     1      45.319   2.933  11.756  0.00  0.00    +0.000 OA
ATOM     17  H   UNL     1      45.448   2.138  12.313  0.00  0.00    +0.000 HD
ENDBRANCH  14  16
ENDBRANCH   9  11
ENDBRANCH   8   9
ENDBRANCH   5   8
ENDBRANCH   1   2
BRANCH   1  18
ATOM     18  N   UNL     1      49.951   7.725  15.206  0.00  0.00    +0.000 N 
ATOM     19  C   UNL     1      50.215   6.649  16.073  0.00  0.00    +0.000 C 
ATOM     20  O   UNL     1      51.332   6.140  16.144  0.00  0.00    +0.000 OA
BRANCH  19  21
ATOM     21  C   UNL     1      49.127   6.092  16.891  0.00  0.00    +0.000 A 
ATOM     22  C   UNL     1      48.404   4.949  16.587  0.00  0.00    +0.000 A 
ATOM     23  S   UNL     1      47.260   4.525  17.782  0.00  0.00    +0.000 S 
ATOM     24  C   UNL     1      47.793   5.772  18.809  0.00  0.00    +0.000 A 
ATOM     25  N   UNL     1      47.297   5.903  20.064  0.00  0.00    +0.000 NA
ATOM     26  C   UNL     1      47.843   6.859  20.747  0.00  0.00    +0.000 A 
ATOM     27  N   UNL     1      48.804   7.713  20.267  0.00  0.00    +0.000 N 
ATOM     28  C   UNL     1      49.235   7.700  18.959  0.00  0.00    +0.000 A 
ATOM     29  O   UNL     1      49.912   8.615  18.504  0.00  0.00    +0.000 OA
ATOM     30  C   UNL     1      48.749   6.564  18.200  0.00  0.00    +0.000 A 
ATOM     31  H   UNL     1      49.138   8.481  20.830  0.00  0.00    +0.000 HD
ENDBRANCH  19  21
BRANCH  18  33
ATOM     32  C   UNL     1      51.063   9.652  14.117  0.00  0.00    +0.000 C 
ATOM     33  C   UNL     1      51.038   8.143  14.317  0.00  0.00    +0.000 C 
ENDBRANCH  18  33
ENDBRANCH   1  18
TORSDOF 8
ENDMDL
MODEL 6
REMARK VINA RESULT:    -5.875      3.299      4.772
REMARK INTER + INTRA:         -10.174
REMARK INTER:                  -7.780
REMARK INTRA:                  -2.394
REMARK UNBOUND:                -1.723
REMARK  Name = 
REMARK  9 active torsions:
REMARK  status: ('A' for Active; 'I' for Inactive)
REMARK    1  A    between atoms: C_1  and  C_2
REMARK    2  A    between atoms: C_2  and  N_3
REMARK    3  A    between atoms: N_3  and  C_4
REMARK    4  A    between atoms: C_4  and  C_5
REMARK    5  A    between atoms: C_8  and  C_9
REMARK    6  A    between atoms: C_9  and  N_10
REMARK    7  A    between atoms: N_10  and  C_11
REMARK    8  A    between atoms: C_14  and  O_15
REMARK    9  A    between atoms: C_19  and  C_21
REMARK                            x       y       z     vdW  Elec       q    Type
REMARK                         _______ _______ _______ _____ _____    ______ ____
ROOT
ATOM      1  C   UNL     1      49.487   9.535  14.645  0.00  0.00    +0.000 C 
ENDROOT
BRANCH   1   2
ATOM      2  C   UNL     1      49.802   8.571  15.753  0.00  0.00    +0.000 A 
ATOM      3  C   UNL     1      48.785   8.144  16.617  0.00  0.00    +0.000 A 
ATOM      4  C   UNL     1      48.998   7.068  17.472  0.00  0.00    +0.000 A 
ATOM      5  C   UNL     1      50.226   6.395  17.464  0.00  0.00    +0.000 A 
ATOM      6  C   UNL     1      51.272   6.883  16.673  0.00  0.00    +0.000 A 
ATOM      7  C   UNL     1      51.064   7.970  15.825  0.00  0.00    +0.000 A 
BRANCH   5   8
ATOM      8  C   UNL     1      50.397   5.127  18.262  0.00  0.00    +0.000 C 
BRANCH   8   9
ATOM      9  N   UNL     1      50.592   3.989  17.353  0.00  0.00    +0.000 NA
ATOM     10  H   UNL     1      51.575   3.710  17.414  0.00  0.00    +0.000 HD
BRANCH   9  11
ATOM     11  C   UNL     1      49.745   2.840  17.692  0.00  0.00    +0.000 C 
ATOM     12  C   UNL     1      48.502   3.278  18.492  0.00  0.00    +0.000 C 
ATOM     13  C   UNL     1      47.285   2.973  17.624  0.00  0.00    +0.000 C 
ATOM     14  C   UNL     1      47.834   2.906  16.208  0.00  0.00    +0.000 C 
ATOM     15  C   UNL     1      49.179   2.217  16.400  0.00  0.00    +0.000 C 
BRANCH  14  16
ATOM     16  O   UNL     1      48.001   4.216  15.679  0.00  0.00    +0.000 OA
ATOM     17  H   UNL     1      48.953   4.335  15.487  0.00  0.00    +0.000 HD
ENDBRANCH  14  16
ENDBRANCH   9  11
ENDBRANCH   8   9
ENDBRANCH   5   8
ENDBRANCH   1   2
BRANCH   1  18
ATOM     18  N   UNL     1      50.045   9.322  13.317  0.00  0.00    +0.000 N 
ATOM     19  C   UNL     1      49.247   8.990  12.207  0.00  0.00    +0.000 C 
ATOM     20  O   UNL     1      49.729   8.865  11.083  0.00  0.00    +0.000 OA
BRANCH  19  21
ATOM     21  C   UNL     1      47.796   8.822  12.381  0.00  0.00    +0.000 A 
ATOM     22  C   UNL     1      46.842   9.788  12.104  0.00  0.00    +0.000 A 
ATOM     23  S   UNL     1      45.237   9.252  12.338  0.00  0.00    +0.000 S 
ATOM     24  C   UNL     1      45.761   7.670  12.678  0.00  0.00    +0.000 A 
ATOM     25  N   UNL     1      44.870   6.664  12.864  0.00  0.00    +0.000 NA
ATOM     26  C   UNL     1      45.418   5.506  13.053  0.00  0.00    +0.000 A 
ATOM     27  N   UNL     1      46.771   5.281  13.114  0.00  0.00    +0.000 N 
ATOM     28  C   UNL     1      47.704   6.293  13.065  0.00  0.00    +0.000 A 
ATOM     29  O   UNL     1      48.877   6.090  13.355  0.00  0.00    +0.000 OA
ATOM     30  C   UNL     1      47.140   7.584  12.722  0.00  0.00    +0.000 A 
ATOM     31  H   UNL     1      47.131   4.364  13.333  0.00  0.00    +0.000 HD
ENDBRANCH  19  21
BRANCH  18  33
ATOM     32  C   UNL     1      51.850  11.006  13.527  0.00  0.00    +0.000 C 
ATOM     33  C   UNL     1      51.457   9.613  13.056  0.00  0.00    +0.000 C 
ENDBRANCH  18  33
ENDBRANCH   1  18
TORSDOF 8
ENDMDL
MODEL 7
REMARK VINA RESULT:    -5.800      2.203      3.242
REMARK INTER + INTRA:         -10.065
REMARK INTER:                  -8.747
REMARK INTRA:                  -1.318
REMARK UNBOUND:                -1.723
REMARK  Name = 
REMARK  9 active torsions:
REMARK  status: ('A' for Active; 'I' for Inactive)
REMARK    1  A    between atoms: C_1  and  C_2
REMARK    2  A    between atoms: C_2  and  N_3
REMARK    3  A    between atoms: N_3  and  C_4
REMARK    4  A    between atoms: C_4  and  C_5
REMARK    5  A    between atoms: C_8  and  C_9
REMARK    6  A    between atoms: C_9  and  N_10
REMARK    7  A    between atoms: N_10  and  C_11
REMARK    8  A    between atoms: C_14  and  O_15
REMARK    9  A    between atoms: C_19  and  C_21
REMARK                            x       y       z     vdW  Elec       q    Type
REMARK                         _______ _______ _______ _____ _____    ______ ____
ROOT
ATOM      1  C   UNL     1      47.438   6.503  12.295  0.00  0.00    +0.000 C 
ENDROOT
BRANCH   1   2
ATOM      2  C   UNL     1      47.911   6.116  13.667  0.00  0.00    +0.000 A 
ATOM      3  C   UNL     1      48.884   6.891  14.314  0.00  0.00    +0.000 A 
ATOM      4  C   UNL     1      49.141   6.704  15.667  0.00  0.00    +0.000 A 
ATOM      5  C   UNL     1      48.419   5.750  16.397  0.00  0.00    +0.000 A 
ATOM      6  C   UNL     1      47.520   4.912  15.729  0.00  0.00    +0.000 A 
ATOM      7  C   UNL     1      47.271   5.089  14.369  0.00  0.00    +0.000 A 
BRANCH   5   8
ATOM      8  C   UNL     1      48.576   5.669  17.894  0.00  0.00    +0.000 C 
BRANCH   8   9
ATOM      9  N   UNL     1      50.002   5.609  18.244  0.00  0.00    +0.000 NA
ATOM     10  H   UNL     1      50.184   6.351  18.924  0.00  0.00    +0.000 HD
BRANCH   9  11
ATOM     11  C   UNL     1      50.389   4.319  18.826  0.00  0.00    +0.000 C 
ATOM     12  C   UNL     1      50.484   3.224  17.745  0.00  0.00    +0.000 C 
ATOM     13  C   UNL     1      51.946   2.790  17.681  0.00  0.00    +0.000 C 
ATOM     14  C   UNL     1      52.716   3.960  18.270  0.00  0.00    +0.000 C 
ATOM     15  C   UNL     1      51.813   4.421  19.406  0.00  0.00    +0.000 C 
BRANCH  14  16
ATOM     16  O   UNL     1      52.879   4.985  17.297  0.00  0.00    +0.000 OA
ATOM     17  H   UNL     1      52.035   5.478  17.246  0.00  0.00    +0.000 HD
ENDBRANCH  14  16
ENDBRANCH   9  11
ENDBRANCH   8   9
ENDBRANCH   5   8
ENDBRANCH   1   2
BRANCH   1  18
ATOM     18  N   UNL     1      46.407   7.519  12.143  0.00  0.00    +0.000 N 
ATOM     19  C   UNL     1      45.223   7.291  11.416  0.00  0.00    +0.000 C 
ATOM     20  O   UNL     1      44.341   8.144  11.342  0.00  0.00    +0.000 OA
BRANCH  19  21
ATOM     21  C   UNL     1      45.015   5.993  10.758  0.00  0.00    +0.000 A 
ATOM     22  C   UNL     1      45.534   5.632   9.524  0.00  0.00    +0.000 A 
ATOM     23  S   UNL     1      45.173   4.024   9.074  0.00  0.00    +0.000 S 
ATOM     24  C   UNL     1      44.435   3.715  10.576  0.00  0.00    +0.000 A 
ATOM     25  N   UNL     1      43.998   2.472  10.897  0.00  0.00    +0.000 NA
ATOM     26  C   UNL     1      43.515   2.378  12.095  0.00  0.00    +0.000 A 
ATOM     27  N   UNL     1      43.396   3.425  12.975  0.00  0.00    +0.000 N 
ATOM     28  C   UNL     1      43.702   4.726  12.640  0.00  0.00    +0.000 A 
ATOM     29  O   UNL     1      43.367   5.662  13.357  0.00  0.00    +0.000 OA
ATOM     30  C   UNL     1      44.368   4.853  11.358  0.00  0.00    +0.000 A 
ATOM     31  H   UNL     1      42.948   3.297  13.869  0.00  0.00    +0.000 HD
ENDBRANCH  19  21
BRANCH  18  33
ATOM     32  C   UNL     1      47.432   9.773  12.223  0.00  0.00    +0.000 C 
ATOM     33  C   UNL     1      46.495   8.776  12.890  0.00  0.00    +0.000 C 
ENDBRANCH  18  33
ENDBRANCH   1  18
TORSDOF 8
ENDMDL
MODEL 8
REMARK VINA RESULT:    -5.585      3.244      5.264
REMARK INTER + INTRA:          -9.756
REMARK INTER:                  -8.391
REMARK INTRA:                  -1.366
REMARK UNBOUND:                -1.723
REMARK  Name = 
REMARK  9 active torsions:
REMARK  status: ('A' for Active; 'I' for Inactive)
REMARK    1  A    between atoms: C_1  and  C_2
REMARK    2  A    between atoms: C_2  and  N_3
REMARK    3  A    between atoms: N_3  and  C_4
REMARK    4  A    between atoms: C_4  and  C_5
REMARK    5  A    between atoms: C_8  and  C_9
REMARK    6  A    between atoms: C_9  and  N_10
REMARK    7  A    between atoms: N_10  and  C_11
REMARK    8  A    between atoms: C_14  and  O_15
REMARK    9  A    between atoms: C_19  and  C_21
REMARK                            x       y       z     vdW  Elec       q    Type
REMARK                         _______ _______ _______ _____ _____    ______ ____
ROOT
ATOM      1  C   UNL     1      46.334   6.066  13.177  0.00  0.00    +0.000 C 
ENDROOT
BRANCH   1   2
ATOM      2  C   UNL     1      47.764   6.497  13.343  0.00  0.00    +0.000 A 
ATOM      3  C   UNL     1      48.521   6.847  12.217  0.00  0.00    +0.000 A 
ATOM      4  C   UNL     1      49.745   7.489  12.368  0.00  0.00    +0.000 A 
ATOM      5  C   UNL     1      50.222   7.804  13.647  0.00  0.00    +0.000 A 
ATOM      6  C   UNL     1      49.512   7.368  14.771  0.00  0.00    +0.000 A 
ATOM      7  C   UNL     1      48.291   6.712  14.621  0.00  0.00    +0.000 A 
BRANCH   5   8
ATOM      8  C   UNL     1      51.460   8.651  13.804  0.00  0.00    +0.000 C 
BRANCH   8   9
ATOM      9  N   UNL     1      52.537   8.119  12.958  0.00  0.00    +0.000 NA
ATOM     10  H   UNL     1      52.115   7.806  12.081  0.00  0.00    +0.000 HD
BRANCH   9  11
ATOM     11  C   UNL     1      53.572   9.117  12.664  0.00  0.00    +0.000 C 
ATOM     12  C   UNL     1      54.399   8.716  11.426  0.00  0.00    +0.000 C 
ATOM     13  C   UNL     1      54.130   9.768  10.354  0.00  0.00    +0.000 C 
ATOM     14  C   UNL     1      52.804  10.392  10.756  0.00  0.00    +0.000 C 
ATOM     15  C   UNL     1      52.906  10.451  12.274  0.00  0.00    +0.000 C 
BRANCH  14  16
ATOM     16  O   UNL     1      51.723   9.562  10.347  0.00  0.00    +0.000 OA
ATOM     17  H   UNL     1      52.025   9.052   9.568  0.00  0.00    +0.000 HD
ENDBRANCH  14  16
ENDBRANCH   9  11
ENDBRANCH   8   9
ENDBRANCH   5   8
ENDBRANCH   1   2
BRANCH   1  18
ATOM     18  N   UNL     1      45.376   6.960  12.542  0.00  0.00    +0.000 N 
ATOM     19  C   UNL     1      44.330   6.489  11.728  0.00  0.00    +0.000 C 
ATOM     20  O   UNL     1      43.500   7.254  11.241  0.00  0.00    +0.000 OA
BRANCH  19  21
ATOM     21  C   UNL     1      44.200   5.045  11.476  0.00  0.00    +0.000 A 
ATOM     22  C   UNL     1      43.432   4.170  12.228  0.00  0.00    +0.000 A 
ATOM     23  S   UNL     1      43.431   2.571  11.626  0.00  0.00    +0.000 S 
ATOM     24  C   UNL     1      44.340   3.028  10.263  0.00  0.00    +0.000 A 
ATOM     25  N   UNL     1      44.602   2.143   9.269  0.00  0.00    +0.000 NA
ATOM     26  C   UNL     1      45.250   2.652   8.270  0.00  0.00    +0.000 A 
ATOM     27  N   UNL     1      45.690   3.951   8.203  0.00  0.00    +0.000 N 
ATOM     28  C   UNL     1      45.564   4.842   9.246  0.00  0.00    +0.000 A 
ATOM     29  O   UNL     1      46.168   5.908   9.247  0.00  0.00    +0.000 OA
ATOM     30  C   UNL     1      44.729   4.353  10.327  0.00  0.00    +0.000 A 
ATOM     31  H   UNL     1      46.250   4.264   7.425  0.00  0.00    +0.000 HD
ENDBRANCH  19  21
BRANCH  18  33
ATOM     32  C   UNL     1      46.008   9.227  11.771  0.00  0.00    +0.000 C 
ATOM     33  C   UNL     1      45.371   8.388  12.869  0.00  0.00    +0.000 C 
ENDBRANCH  18  33
ENDBRANCH   1  18
TORSDOF 8
ENDMDL
MODEL 9
REMARK VINA RESULT:    -5.320      3.217      8.358
REMARK INTER + INTRA:          -9.375
REMARK INTER:                  -8.114
REMARK INTRA:                  -1.261
REMARK UNBOUND:                -1.723
REMARK  Name = 
REMARK  9 active torsions:
REMARK  status: ('A' for Active; 'I' for Inactive)
REMARK    1  A    between atoms: C_1  and  C_2
REMARK    2  A    between atoms: C_2  and  N_3
REMARK    3  A    between atoms: N_3  and  C_4
REMARK    4  A    between atoms: C_4  and  C_5
REMARK    5  A    between atoms: C_8  and  C_9
REMARK    6  A    between atoms: C_9  and  N_10
REMARK    7  A    between atoms: N_10  and  C_11
REMARK    8  A    between atoms: C_14  and  O_15
REMARK    9  A    between atoms: C_19  and  C_21
REMARK                            x       y       z     vdW  Elec       q    Type
REMARK                         _______ _______ _______ _____ _____    ______ ____
ROOT
ATOM      1  C   UNL     1      49.230   8.811  15.049  0.00  0.00    +0.000 C 
ENDROOT
BRANCH   1   2
ATOM      2  C   UNL     1      48.065   8.234  14.297  0.00  0.00    +0.000 A 
ATOM      3  C   UNL     1      47.061   9.082  13.809  0.00  0.00    +0.000 A 
ATOM      4  C   UNL     1      46.123   8.606  12.899  0.00  0.00    +0.000 A 
ATOM      5  C   UNL     1      46.186   7.279  12.453  0.00  0.00    +0.000 A 
ATOM      6  C   UNL     1      47.127   6.409  13.015  0.00  0.00    +0.000 A 
ATOM      7  C   UNL     1      48.059   6.882  13.937  0.00  0.00    +0.000 A 
BRANCH   5   8
ATOM      8  C   UNL     1      45.280   6.814  11.341  0.00  0.00    +0.000 C 
BRANCH   8   9
ATOM      9  N   UNL     1      45.432   5.365  11.148  0.00  0.00    +0.000 NA
ATOM     10  H   UNL     1      45.402   4.926  12.072  0.00  0.00    +0.000 HD
BRANCH   9  11
ATOM     11  C   UNL     1      44.375   4.791  10.308  0.00  0.00    +0.000 C 
ATOM     12  C   UNL     1      44.885   3.563   9.528  0.00  0.00    +0.000 C 
ATOM     13  C   UNL     1      44.104   2.356  10.041  0.00  0.00    +0.000 C 
ATOM     14  C   UNL     1      43.606   2.780  11.413  0.00  0.00    +0.000 C 
ATOM     15  C   UNL     1      43.245   4.244  11.203  0.00  0.00    +0.000 C 
BRANCH  14  16
ATOM     16  O   UNL     1      44.641   2.640  12.379  0.00  0.00    +0.000 OA
ATOM     17  H   UNL     1      44.290   2.967  13.233  0.00  0.00    +0.000 HD
ENDBRANCH  14  16
ENDBRANCH   9  11
ENDBRANCH   8   9
ENDBRANCH   5   8
ENDBRANCH   1   2
BRANCH   1  18
ATOM     18  N   UNL     1      50.495   8.091  15.091  0.00  0.00    +0.000 N 
ATOM     19  C   UNL     1      50.970   7.468  16.259  0.00  0.00    +0.000 C 
ATOM     20  O   UNL     1      52.016   6.821  16.263  0.00  0.00    +0.000 OA
BRANCH  19  21
ATOM     21  C   UNL     1      50.187   7.560  17.501  0.00  0.00    +0.000 A 
ATOM     22  C   UNL     1      50.279   8.586  18.429  0.00  0.00    +0.000 A 
ATOM     23  S   UNL     1      49.175   8.438  19.724  0.00  0.00    +0.000 S 
ATOM     24  C   UNL     1      48.444   7.077  19.013  0.00  0.00    +0.000 A 
ATOM     25  N   UNL     1      47.341   6.510  19.562  0.00  0.00    +0.000 NA
ATOM     26  C   UNL     1      46.861   5.522  18.876  0.00  0.00    +0.000 A 
ATOM     27  N   UNL     1      47.415   5.031  17.719  0.00  0.00    +0.000 N 
ATOM     28  C   UNL     1      48.607   5.489  17.203  0.00  0.00    +0.000 A 
ATOM     29  O   UNL     1      49.189   4.881  16.313  0.00  0.00    +0.000 OA
ATOM     30  C   UNL     1      49.105   6.680  17.865  0.00  0.00    +0.000 A 
ATOM     31  H   UNL     1      47.029   4.214  17.271  0.00  0.00    +0.000 HD
ENDBRANCH  19  21
BRANCH  18  33
ATOM     32  C   UNL     1      51.966   9.098  13.370  0.00  0.00    +0.000 C 
ATOM     33  C   UNL     1      51.246   7.848  13.856  0.00  0.00    +0.000 C 
ENDBRANCH  18  33
ENDBRANCH   1  18
TORSDOF 8
ENDMDL
