MODEL 1
REMARK VINA RESULT:    -8.289      0.000      0.000
REMARK INTER + INTRA:         -13.061
REMARK INTER:                 -11.924
REMARK INTRA:                  -1.138
REMARK UNBOUND:                -1.138
REMARK  Name = 
REMARK  8 active torsions:
REMARK  status: ('A' for Active; 'I' for Inactive)
REMARK    1  A    between atoms: C_2  and  C_20
REMARK    2  A    between atoms: N_3  and  C_4
REMARK    3  A    between atoms: C_4  and  C_5
REMARK    4  A    between atoms: C_8  and  C_9
REMARK    5  A    between atoms: C_9  and  O_10
REMARK    6  A    between atoms: C_9  and  C_11
REMARK    7  A    between atoms: C_11  and  C_12
REMARK    8  A    between atoms: C_12  and  C_13
REMARK                            x       y       z     vdW  Elec       q    Type
REMARK                         _______ _______ _______ _____ _____    ______ ____
ROOT
ATOM      1  C   UNL     1      45.934   6.932  12.340  0.00  0.00    +0.000 A 
ATOM      2  C   UNL     1      46.304   6.543  11.053  0.00  0.00    +0.000 A 
ATOM      3  C   UNL     1      45.593   5.534  10.401  0.00  0.00    +0.000 A 
ATOM      4  C   UNL     1      44.510   4.941  11.047  0.00  0.00    +0.000 A 
ATOM      5  N   UNL     1      44.085   5.355  12.270  0.00  0.00    +0.000 NA
ATOM      6  C   UNL     1      44.806   6.328  12.883  0.00  0.00    +0.000 A 
ENDROOT
BRANCH   1   7
ATOM      7  C   UNL     1      46.725   7.951  13.109  0.00  0.00    +0.000 C 
BRANCH   7  10
ATOM      8  O   UNL     1      49.013   6.324  13.340  0.00  0.00    +0.000 OA
ATOM      9  C   UNL     1      48.414   6.657  14.356  0.00  0.00    +0.000 C 
ATOM     10  N   UNL     1      47.274   7.416  14.327  0.00  0.00    +0.000 N 
ATOM     11  H   UNL     1      46.903   7.791  15.193  0.00  0.00    +0.000 HD
BRANCH   9  12
ATOM     12  C   UNL     1      48.863   6.223  15.686  0.00  0.00    +0.000 A 
ATOM     13  C   UNL     1      49.791   6.978  16.389  0.00  0.00    +0.000 A 
ATOM     14  S   UNL     1      50.171   6.336  17.923  0.00  0.00    +0.000 S 
ATOM     15  C   UNL     1      49.084   5.042  17.713  0.00  0.00    +0.000 A 
ATOM     16  N   UNL     1      48.890   4.122  18.694  0.00  0.00    +0.000 NA
ATOM     17  C   UNL     1      48.008   3.222  18.412  0.00  0.00    +0.000 A 
ATOM     18  N   UNL     1      47.318   3.147  17.230  0.00  0.00    +0.000 N 
ATOM     19  C   UNL     1      47.546   4.004  16.183  0.00  0.00    +0.000 A 
ATOM     20  O   UNL     1      47.033   3.808  15.081  0.00  0.00    +0.000 OA
ATOM     21  C   UNL     1      48.474   5.077  16.472  0.00  0.00    +0.000 A 
ATOM     22  H   UNL     1      46.669   2.390  17.056  0.00  0.00    +0.000 HD
ENDBRANCH   9  12
ENDBRANCH   7  10
ENDBRANCH   1   7
BRANCH   4  23
ATOM     23  C   UNL     1      43.746   3.799  10.391  0.00  0.00    +0.000 C 
BRANCH  23  24
ATOM     24  O   UNL     1      42.856   3.216  11.349  0.00  0.00    +0.000 OA
ATOM     25  H   UNL     1      42.213   3.922  11.555  0.00  0.00    +0.000 HD
ENDBRANCH  23  24
BRANCH  23  26
ATOM     26  C   UNL     1      44.696   2.706   9.881  0.00  0.00    +0.000 C 
BRANCH  26  27
ATOM     27  C   UNL     1      44.627   2.558   8.359  0.00  0.00    +0.000 C 
BRANCH  27  28
ATOM     28  C   UNL     1      45.975   2.610   7.727  0.00  0.00    +0.000 A 
ATOM     29  C   UNL     1      46.672   3.704   7.257  0.00  0.00    +0.000 A 
ATOM     30  N   UNL     1      47.859   3.207   6.795  0.00  0.00    +0.000 N 
ATOM     31  C   UNL     1      47.843   1.857   6.999  0.00  0.00    +0.000 A 
ATOM     32  N   UNL     1      46.720   1.465   7.555  0.00  0.00    +0.000 NA
ATOM     33  H   UNL     1      48.615   3.737   6.384  0.00  0.00    +0.000 HD
ENDBRANCH  27  28
ENDBRANCH  26  27
ENDBRANCH  23  26
ENDBRANCH   4  23
TORSDOF 8
ENDMDL
MODEL 2
REMARK VINA RESULT:    -7.660      1.533      1.838
REMARK INTER + INTRA:         -12.157
REMARK INTER:                 -11.209
REMARK INTRA:                  -0.948
REMARK UNBOUND:                -1.138
REMARK  Name = 
REMARK  8 active torsions:
REMARK  status: ('A' for Active; 'I' for Inactive)
REMARK    1  A    between atoms: C_2  and  C_20
REMARK    2  A    between atoms: N_3  and  C_4
REMARK    3  A    between atoms: C_4  and  C_5
REMARK    4  A    between atoms: C_8  and  C_9
REMARK    5  A    between atoms: C_9  and  O_10
REMARK    6  A    between atoms: C_9  and  C_11
REMARK    7  A    between atoms: C_11  and  C_12
REMARK    8  A    between atoms: C_12  and  C_13
REMARK                            x       y       z     vdW  Elec       q    Type
REMARK                         _______ _______ _______ _____ _____    ______ ____
ROOT
ATOM      1  C   UNL     1      46.911   6.293  12.850  0.00  0.00    +0.000 A 
ATOM      2  C   UNL     1      46.378   5.245  13.600  0.00  0.00    +0.000 A 
ATOM      3  C   UNL     1      45.425   4.399  13.032  0.00  0.00    +0.000 A 
ATOM      4  C   UNL     1      45.031   4.609  11.712  0.00  0.00    +0.000 A 
ATOM      5  N   UNL     1      45.591   5.577  10.938  0.00  0.00    +0.000 NA
ATOM      6  C   UNL     1      46.505   6.391  11.524  0.00  0.00    +0.000 A 
ENDROOT
BRANCH   1   7
ATOM      7  C   UNL     1      47.873   7.278  13.450  0.00  0.00    +0.000 C 
BRANCH   7  10
ATOM      8  O   UNL     1      50.097   6.707  15.083  0.00  0.00    +0.000 OA
ATOM      9  C   UNL     1      49.023   6.973  15.611  0.00  0.00    +0.000 C 
ATOM     10  N   UNL     1      47.887   7.227  14.888  0.00  0.00    +0.000 N 
ATOM     11  H   UNL     1      47.066   7.588  15.362  0.00  0.00    +0.000 HD
BRANCH   9  12
ATOM     12  C   UNL     1      48.874   6.997  17.072  0.00  0.00    +0.000 A 
ATOM     13  C   UNL     1      48.617   8.194  17.728  0.00  0.00    +0.000 A 
ATOM     14  S   UNL     1      48.447   8.024  19.416  0.00  0.00    +0.000 S 
ATOM     15  C   UNL     1      48.679   6.339  19.326  0.00  0.00    +0.000 A 
ATOM     16  N   UNL     1      48.613   5.561  20.439  0.00  0.00    +0.000 NA
ATOM     17  C   UNL     1      48.768   4.299  20.215  0.00  0.00    +0.000 A 
ATOM     18  N   UNL     1      49.003   3.746  18.982  0.00  0.00    +0.000 N 
ATOM     19  C   UNL     1      49.162   4.504  17.849  0.00  0.00    +0.000 A 
ATOM     20  O   UNL     1      49.537   3.992  16.794  0.00  0.00    +0.000 OA
ATOM     21  C   UNL     1      48.927   5.920  18.032  0.00  0.00    +0.000 A 
ATOM     22  H   UNL     1      49.158   2.751  18.882  0.00  0.00    +0.000 HD
ENDBRANCH   9  12
ENDBRANCH   7  10
ENDBRANCH   1   7
BRANCH   4  23
ATOM     23  C   UNL     1      43.953   3.742  11.076  0.00  0.00    +0.000 C 
BRANCH  23  24
ATOM     24  O   UNL     1      43.937   2.463  11.718  0.00  0.00    +0.000 OA
ATOM     25  H   UNL     1      43.637   2.645  12.630  0.00  0.00    +0.000 HD
ENDBRANCH  23  24
BRANCH  23  26
ATOM     26  C   UNL     1      44.212   3.532   9.577  0.00  0.00    +0.000 C 
BRANCH  26  27
ATOM     27  C   UNL     1      44.728   2.121   9.282  0.00  0.00    +0.000 C 
BRANCH  27  28
ATOM     28  C   UNL     1      45.869   2.129   8.324  0.00  0.00    +0.000 A 
ATOM     29  C   UNL     1      46.429   3.194   7.651  0.00  0.00    +0.000 A 
ATOM     30  N   UNL     1      47.453   2.663   6.918  0.00  0.00    +0.000 N 
ATOM     31  C   UNL     1      47.481   1.321   7.169  0.00  0.00    +0.000 A 
ATOM     32  N   UNL     1      46.536   0.967   8.008  0.00  0.00    +0.000 NA
ATOM     33  H   UNL     1      48.082   3.166   6.307  0.00  0.00    +0.000 HD
ENDBRANCH  27  28
ENDBRANCH  26  27
ENDBRANCH  23  26
ENDBRANCH   4  23
TORSDOF 8
ENDMDL
MODEL 3
REMARK VINA RESULT:    -7.309      2.373      2.938
REMARK INTER + INTRA:         -11.651
REMARK INTER:                 -10.583
REMARK INTRA:                  -1.068
REMARK UNBOUND:                -1.138
REMARK  Name = 
REMARK  8 active torsions:
REMARK  status: ('A' for Active; 'I' for Inactive)
REMARK    1  A    between atoms: C_2  and  C_20
REMARK    2  A    between atoms: N_3  and  C_4
REMARK    3  A    between atoms: C_4  and  C_5
REMARK    4  A    between atoms: C_8  and  C_9
REMARK    5  A    between atoms: C_9  and  O_10
REMARK    6  A    between atoms: C_9  and  C_11
REMARK    7  A    between atoms: C_11  and  C_12
REMARK    8  A    between atoms: C_12  and  C_13
REMARK                            x       y       z     vdW  Elec       q    Type
REMARK                         _______ _______ _______ _____ _____    ______ ____
ROOT
ATOM      1  C   UNL     1      47.015   6.121  12.878  0.00  0.00    +0.000 A 
ATOM      2  C   UNL     1      46.360   5.000  13.387  0.00  0.00    +0.000 A 
ATOM      3  C   UNL     1      45.336   4.400  12.653  0.00  0.00    +0.000 A 
ATOM      4  C   UNL     1      44.995   4.927  11.408  0.00  0.00    +0.000 A 
ATOM      5  N   UNL     1      45.669   5.972  10.859  0.00  0.00    +0.000 NA
ATOM      6  C   UNL     1      46.650   6.541  11.604  0.00  0.00    +0.000 A 
ENDROOT
BRANCH   1   7
ATOM      7  C   UNL     1      48.062   6.847  13.673  0.00  0.00    +0.000 C 
BRANCH   7  10
ATOM      8  O   UNL     1      50.118   6.407  15.548  0.00  0.00    +0.000 OA
ATOM      9  C   UNL     1      48.960   6.488  15.942  0.00  0.00    +0.000 C 
ATOM     10  N   UNL     1      47.900   6.665  15.091  0.00  0.00    +0.000 N 
ATOM     11  H   UNL     1      46.985   6.876  15.473  0.00  0.00    +0.000 HD
BRANCH   9  12
ATOM     12  C   UNL     1      48.625   6.356  17.366  0.00  0.00    +0.000 A 
ATOM     13  C   UNL     1      48.793   5.138  18.012  0.00  0.00    +0.000 A 
ATOM     14  S   UNL     1      48.380   5.181  19.666  0.00  0.00    +0.000 S 
ATOM     15  C   UNL     1      47.992   6.838  19.584  0.00  0.00    +0.000 A 
ATOM     16  N   UNL     1      47.598   7.522  20.690  0.00  0.00    +0.000 NA
ATOM     17  C   UNL     1      47.376   8.778  20.488  0.00  0.00    +0.000 A 
ATOM     18  N   UNL     1      47.494   9.407  19.275  0.00  0.00    +0.000 N 
ATOM     19  C   UNL     1      47.806   8.735  18.119  0.00  0.00    +0.000 A 
ATOM     20  O   UNL     1      47.739   9.296  17.025  0.00  0.00    +0.000 OA
ATOM     21  C   UNL     1      48.134   7.338  18.303  0.00  0.00    +0.000 A 
ATOM     22  H   UNL     1      47.265  10.388  19.176  0.00  0.00    +0.000 HD
ENDBRANCH   9  12
ENDBRANCH   7  10
ENDBRANCH   1   7
BRANCH   4  23
ATOM     23  C   UNL     1      43.846   4.335  10.604  0.00  0.00    +0.000 C 
BRANCH  23  24
ATOM     24  O   UNL     1      43.314   3.205  11.302  0.00  0.00    +0.000 OA
ATOM     25  H   UNL     1      42.434   3.057  10.906  0.00  0.00    +0.000 HD
ENDBRANCH  23  24
BRANCH  23  26
ATOM     26  C   UNL     1      44.311   3.875   9.215  0.00  0.00    +0.000 C 
BRANCH  26  27
ATOM     27  C   UNL     1      44.836   2.437   9.239  0.00  0.00    +0.000 C 
BRANCH  27  28
ATOM     28  C   UNL     1      45.948   2.229   8.269  0.00  0.00    +0.000 A 
ATOM     29  C   UNL     1      46.562   1.052   7.892  0.00  0.00    +0.000 A 
ATOM     30  N   UNL     1      47.502   1.413   6.968  0.00  0.00    +0.000 N 
ATOM     31  C   UNL     1      47.426   2.768   6.816  0.00  0.00    +0.000 A 
ATOM     32  N   UNL     1      46.503   3.290   7.590  0.00  0.00    +0.000 NA
ATOM     33  H   UNL     1      48.134   0.795   6.478  0.00  0.00    +0.000 HD
ENDBRANCH  27  28
ENDBRANCH  26  27
ENDBRANCH  23  26
ENDBRANCH   4  23
TORSDOF 8
ENDMDL
MODEL 4
REMARK VINA RESULT:    -6.903      2.632      3.178
REMARK INTER + INTRA:         -11.067
REMARK INTER:                 -10.220
REMARK INTRA:                  -0.847
REMARK UNBOUND:                -1.138
REMARK  Name = 
REMARK  8 active torsions:
REMARK  status: ('A' for Active; 'I' for Inactive)
REMARK    1  A    between atoms: C_2  and  C_20
REMARK    2  A    between atoms: N_3  and  C_4
REMARK    3  A    between atoms: C_4  and  C_5
REMARK    4  A    between atoms: C_8  and  C_9
REMARK    5  A    between atoms: C_9  and  O_10
REMARK    6  A    between atoms: C_9  and  C_11
REMARK    7  A    between atoms: C_11  and  C_12
REMARK    8  A    between atoms: C_12  and  C_13
REMARK                            x       y       z     vdW  Elec       q    Type
REMARK                         _______ _______ _______ _____ _____    ______ ____
ROOT
ATOM      1  C   UNL     1      46.766   4.453  13.915  0.00  0.00    +0.000 A 
ATOM      2  C   UNL     1      45.969   3.514  13.261  0.00  0.00    +0.000 A 
ATOM      3  C   UNL     1      45.397   3.827  12.028  0.00  0.00    +0.000 A 
ATOM      4  C   UNL     1      45.648   5.075  11.460  0.00  0.00    +0.000 A 
ATOM      5  N   UNL     1      46.481   5.977  12.042  0.00  0.00    +0.000 NA
ATOM      6  C   UNL     1      47.010   5.649  13.247  0.00  0.00    +0.000 A 
ENDROOT
BRANCH   1   7
ATOM      7  C   UNL     1      47.328   4.190  15.282  0.00  0.00    +0.000 C 
BRANCH   7  10
ATOM      8  O   UNL     1      49.674   5.044  16.588  0.00  0.00    +0.000 OA
ATOM      9  C   UNL     1      48.677   5.756  16.631  0.00  0.00    +0.000 C 
ATOM     10  N   UNL     1      47.488   5.396  16.053  0.00  0.00    +0.000 N 
ATOM     11  H   UNL     1      46.741   6.078  15.984  0.00  0.00    +0.000 HD
BRANCH   9  12
ATOM     12  C   UNL     1      48.680   7.036  17.349  0.00  0.00    +0.000 A 
ATOM     13  C   UNL     1      49.007   8.209  16.682  0.00  0.00    +0.000 A 
ATOM     14  S   UNL     1      48.931   9.599  17.668  0.00  0.00    +0.000 S 
ATOM     15  C   UNL     1      48.427   8.685  19.014  0.00  0.00    +0.000 A 
ATOM     16  N   UNL     1      48.140   9.282  20.200  0.00  0.00    +0.000 NA
ATOM     17  C   UNL     1      47.732   8.472  21.119  0.00  0.00    +0.000 A 
ATOM     18  N   UNL     1      47.605   7.115  20.964  0.00  0.00    +0.000 N 
ATOM     19  C   UNL     1      47.966   6.464  19.812  0.00  0.00    +0.000 A 
ATOM     20  O   UNL     1      47.997   5.234  19.765  0.00  0.00    +0.000 OA
ATOM     21  C   UNL     1      48.362   7.334  18.726  0.00  0.00    +0.000 A 
ATOM     22  H   UNL     1      47.318   6.531  21.740  0.00  0.00    +0.000 HD
ENDBRANCH   9  12
ENDBRANCH   7  10
ENDBRANCH   1   7
BRANCH   4  23
ATOM     23  C   UNL     1      44.997   5.473  10.142  0.00  0.00    +0.000 C 
BRANCH  23  24
ATOM     24  O   UNL     1      43.662   4.957  10.101  0.00  0.00    +0.000 OA
ATOM     25  H   UNL     1      43.268   5.215  10.957  0.00  0.00    +0.000 HD
ENDBRANCH  23  24
BRANCH  23  26
ATOM     26  C   UNL     1      45.772   4.915   8.941  0.00  0.00    +0.000 C 
BRANCH  26  27
ATOM     27  C   UNL     1      45.132   3.636   8.395  0.00  0.00    +0.000 C 
BRANCH  27  28
ATOM     28  C   UNL     1      46.144   2.695   7.836  0.00  0.00    +0.000 A 
ATOM     29  C   UNL     1      47.149   2.944   6.926  0.00  0.00    +0.000 A 
ATOM     30  N   UNL     1      47.799   1.752   6.768  0.00  0.00    +0.000 N 
ATOM     31  C   UNL     1      47.180   0.840   7.573  0.00  0.00    +0.000 A 
ATOM     32  N   UNL     1      46.175   1.376   8.226  0.00  0.00    +0.000 NA
ATOM     33  H   UNL     1      48.596   1.574   6.172  0.00  0.00    +0.000 HD
ENDBRANCH  27  28
ENDBRANCH  26  27
ENDBRANCH  23  26
ENDBRANCH   4  23
TORSDOF 8
ENDMDL
MODEL 5
REMARK VINA RESULT:    -6.768      2.274      3.520
REMARK INTER + INTRA:         -10.874
REMARK INTER:                  -9.974
REMARK INTRA:                  -0.900
REMARK UNBOUND:                -1.138
REMARK  Name = 
REMARK  8 active torsions:
REMARK  status: ('A' for Active; 'I' for Inactive)
REMARK    1  A    between atoms: C_2  and  C_20
REMARK    2  A    between atoms: N_3  and  C_4
REMARK    3  A    between atoms: C_4  and  C_5
REMARK    4  A    between atoms: C_8  and  C_9
REMARK    5  A    between atoms: C_9  and  O_10
REMARK    6  A    between atoms: C_9  and  C_11
REMARK    7  A    between atoms: C_11  and  C_12
REMARK    8  A    between atoms: C_12  and  C_13
REMARK                            x       y       z     vdW  Elec       q    Type
REMARK                         _______ _______ _______ _____ _____    ______ ____
ROOT
ATOM      1  C   UNL     1      46.762   4.309  14.064  0.00  0.00    +0.000 A 
ATOM      2  C   UNL     1      46.194   3.311  13.274  0.00  0.00    +0.000 A 
ATOM      3  C   UNL     1      45.584   3.645  12.064  0.00  0.00    +0.000 A 
ATOM      4  C   UNL     1      45.569   4.978  11.657  0.00  0.00    +0.000 A 
ATOM      5  N   UNL     1      46.181   5.957  12.373  0.00  0.00    +0.000 NA
ATOM      6  C   UNL     1      46.753   5.602  13.552  0.00  0.00    +0.000 A 
ENDROOT
BRANCH   1   7
ATOM      7  C   UNL     1      47.350   4.005  15.412  0.00  0.00    +0.000 C 
BRANCH   7  10
ATOM      8  O   UNL     1      49.718   4.844  16.686  0.00  0.00    +0.000 OA
ATOM      9  C   UNL     1      48.714   5.540  16.779  0.00  0.00    +0.000 C 
ATOM     10  N   UNL     1      47.514   5.184  16.220  0.00  0.00    +0.000 N 
ATOM     11  H   UNL     1      46.758   5.859  16.194  0.00  0.00    +0.000 HD
BRANCH   9  12
ATOM     12  C   UNL     1      48.720   6.795  17.542  0.00  0.00    +0.000 A 
ATOM     13  C   UNL     1      48.828   6.769  18.926  0.00  0.00    +0.000 A 
ATOM     14  S   UNL     1      48.847   8.319  19.637  0.00  0.00    +0.000 S 
ATOM     15  C   UNL     1      48.742   9.080  18.117  0.00  0.00    +0.000 A 
ATOM     16  N   UNL     1      48.754  10.434  18.007  0.00  0.00    +0.000 NA
ATOM     17  C   UNL     1      48.710  10.870  16.793  0.00  0.00    +0.000 A 
ATOM     18  N   UNL     1      48.634  10.074  15.679  0.00  0.00    +0.000 N 
ATOM     19  C   UNL     1      48.533   8.707  15.751  0.00  0.00    +0.000 A 
ATOM     20  O   UNL     1      48.298   8.037  14.744  0.00  0.00    +0.000 OA
ATOM     21  C   UNL     1      48.650   8.163  17.086  0.00  0.00    +0.000 A 
ATOM     22  H   UNL     1      48.560  10.482  14.755  0.00  0.00    +0.000 HD
ENDBRANCH   9  12
ENDBRANCH   7  10
ENDBRANCH   1   7
BRANCH   4  23
ATOM     23  C   UNL     1      44.865   5.388  10.371  0.00  0.00    +0.000 C 
BRANCH  23  24
ATOM     24  O   UNL     1      43.552   4.818  10.349  0.00  0.00    +0.000 OA
ATOM     25  H   UNL     1      43.115   5.227   9.577  0.00  0.00    +0.000 HD
ENDBRANCH  23  24
BRANCH  23  26
ATOM     26  C   UNL     1      45.628   4.901   9.132  0.00  0.00    +0.000 C 
BRANCH  26  27
ATOM     27  C   UNL     1      44.968   3.670   8.505  0.00  0.00    +0.000 C 
BRANCH  27  28
ATOM     28  C   UNL     1      45.970   2.720   7.944  0.00  0.00    +0.000 A 
ATOM     29  C   UNL     1      46.976   2.960   7.031  0.00  0.00    +0.000 A 
ATOM     30  N   UNL     1      47.615   1.762   6.871  0.00  0.00    +0.000 N 
ATOM     31  C   UNL     1      46.989   0.855   7.678  0.00  0.00    +0.000 A 
ATOM     32  N   UNL     1      45.990   1.401   8.334  0.00  0.00    +0.000 NA
ATOM     33  H   UNL     1      48.408   1.577   6.274  0.00  0.00    +0.000 HD
ENDBRANCH  27  28
ENDBRANCH  26  27
ENDBRANCH  23  26
ENDBRANCH   4  23
TORSDOF 8
ENDMDL
MODEL 6
REMARK VINA RESULT:    -6.719      3.334      4.724
REMARK INTER + INTRA:         -10.803
REMARK INTER:                  -9.746
REMARK INTRA:                  -1.057
REMARK UNBOUND:                -1.138
REMARK  Name = 
REMARK  8 active torsions:
REMARK  status: ('A' for Active; 'I' for Inactive)
REMARK    1  A    between atoms: C_2  and  C_20
REMARK    2  A    between atoms: N_3  and  C_4
REMARK    3  A    between atoms: C_4  and  C_5
REMARK    4  A    between atoms: C_8  and  C_9
REMARK    5  A    between atoms: C_9  and  O_10
REMARK    6  A    between atoms: C_9  and  C_11
REMARK    7  A    between atoms: C_11  and  C_12
REMARK    8  A    between atoms: C_12  and  C_13
REMARK                            x       y       z     vdW  Elec       q    Type
REMARK                         _______ _______ _______ _____ _____    ______ ____
ROOT
ATOM      1  C   UNL     1      48.640   5.839  16.200  0.00  0.00    +0.000 A 
ATOM      2  C   UNL     1      47.869   4.696  16.407  0.00  0.00    +0.000 A 
ATOM      3  C   UNL     1      46.965   4.281  15.428  0.00  0.00    +0.000 A 
ATOM      4  C   UNL     1      46.861   5.013  14.247  0.00  0.00    +0.000 A 
ATOM      5  N   UNL     1      47.654   6.087  13.991  0.00  0.00    +0.000 NA
ATOM      6  C   UNL     1      48.513   6.473  14.969  0.00  0.00    +0.000 A 
ENDROOT
BRANCH   1   7
ATOM      7  C   UNL     1      49.560   6.369  17.263  0.00  0.00    +0.000 C 
BRANCH   7  10
ATOM      8  O   UNL     1      50.417   5.557  19.820  0.00  0.00    +0.000 OA
ATOM      9  C   UNL     1      50.974   5.095  18.832  0.00  0.00    +0.000 C 
ATOM     10  N   UNL     1      50.641   5.465  17.555  0.00  0.00    +0.000 N 
ATOM     11  H   UNL     1      51.022   4.948  16.771  0.00  0.00    +0.000 HD
BRANCH   9  12
ATOM     12  C   UNL     1      52.077   4.133  18.954  0.00  0.00    +0.000 A 
ATOM     13  C   UNL     1      53.171   4.426  19.758  0.00  0.00    +0.000 A 
ATOM     14  S   UNL     1      54.339   3.182  19.800  0.00  0.00    +0.000 S 
ATOM     15  C   UNL     1      53.407   2.197  18.769  0.00  0.00    +0.000 A 
ATOM     16  N   UNL     1      53.822   0.948  18.428  0.00  0.00    +0.000 NA
ATOM     17  C   UNL     1      52.998   0.301  17.675  0.00  0.00    +0.000 A 
ATOM     18  N   UNL     1      51.804   0.797  17.215  0.00  0.00    +0.000 N 
ATOM     19  C   UNL     1      51.390   2.081  17.465  0.00  0.00    +0.000 A 
ATOM     20  O   UNL     1      50.400   2.547  16.900  0.00  0.00    +0.000 OA
ATOM     21  C   UNL     1      52.244   2.826  18.364  0.00  0.00    +0.000 A 
ATOM     22  H   UNL     1      51.223   0.251  16.591  0.00  0.00    +0.000 HD
ENDBRANCH   9  12
ENDBRANCH   7  10
ENDBRANCH   1   7
BRANCH   4  23
ATOM     23  C   UNL     1      45.847   4.623  13.180  0.00  0.00    +0.000 C 
BRANCH  23  24
ATOM     24  O   UNL     1      45.923   3.213  12.949  0.00  0.00    +0.000 OA
ATOM     25  H   UNL     1      46.295   2.844  13.774  0.00  0.00    +0.000 HD
ENDBRANCH  23  24
BRANCH  23  26
ATOM     26  C   UNL     1      46.117   5.350  11.855  0.00  0.00    +0.000 C 
BRANCH  26  27
ATOM     27  C   UNL     1      44.845   5.495  11.016  0.00  0.00    +0.000 C 
BRANCH  27  28
ATOM     28  C   UNL     1      44.799   4.519   9.892  0.00  0.00    +0.000 A 
ATOM     29  C   UNL     1      44.124   3.319   9.812  0.00  0.00    +0.000 A 
ATOM     30  N   UNL     1      44.401   2.828   8.567  0.00  0.00    +0.000 N 
ATOM     31  C   UNL     1      45.216   3.730   7.945  0.00  0.00    +0.000 A 
ATOM     32  N   UNL     1      45.479   4.758   8.719  0.00  0.00    +0.000 NA
ATOM     33  H   UNL     1      44.063   1.962   8.171  0.00  0.00    +0.000 HD
ENDBRANCH  27  28
ENDBRANCH  26  27
ENDBRANCH  23  26
ENDBRANCH   4  23
TORSDOF 8
ENDMDL
MODEL 7
REMARK VINA RESULT:    -6.598      2.506      3.258
REMARK INTER + INTRA:         -10.628
REMARK INTER:                  -9.912
REMARK INTRA:                  -0.716
REMARK UNBOUND:                -1.138
REMARK  Name = 
REMARK  8 active torsions:
REMARK  status: ('A' for Active; 'I' for Inactive)
REMARK    1  A    between atoms: C_2  and  C_20
REMARK    2  A    between atoms: N_3  and  C_4
REMARK    3  A    between atoms: C_4  and  C_5
REMARK    4  A    between atoms: C_8  and  C_9
REMARK    5  A    between atoms: C_9  and  O_10
REMARK    6  A    between atoms: C_9  and  C_11
REMARK    7  A    between atoms: C_11  and  C_12
REMARK    8  A    between atoms: C_12  and  C_13
REMARK                            x       y       z     vdW  Elec       q    Type
REMARK                         _______ _______ _______ _____ _____    ______ ____
ROOT
ATOM      1  C   UNL     1      45.353   6.905  12.328  0.00  0.00    +0.000 A 
ATOM      2  C   UNL     1      45.827   6.463  11.093  0.00  0.00    +0.000 A 
ATOM      3  C   UNL     1      45.350   5.269  10.552  0.00  0.00    +0.000 A 
ATOM      4  C   UNL     1      44.389   4.542  11.253  0.00  0.00    +0.000 A 
ATOM      5  N   UNL     1      43.858   4.990  12.421  0.00  0.00    +0.000 NA
ATOM      6  C   UNL     1      44.353   6.147  12.928  0.00  0.00    +0.000 A 
ENDROOT
BRANCH   1   7
ATOM      7  C   UNL     1      45.903   8.137  12.986  0.00  0.00    +0.000 C 
BRANCH   7  10
ATOM      8  O   UNL     1      48.077   9.856  13.494  0.00  0.00    +0.000 OA
ATOM      9  C   UNL     1      48.043   8.761  14.043  0.00  0.00    +0.000 C 
ATOM     10  N   UNL     1      47.040   7.854  13.822  0.00  0.00    +0.000 N 
ATOM     11  H   UNL     1      46.975   7.030  14.409  0.00  0.00    +0.000 HD
BRANCH   9  12
ATOM     12  C   UNL     1      49.110   8.328  14.954  0.00  0.00    +0.000 A 
ATOM     13  C   UNL     1      48.808   7.965  16.260  0.00  0.00    +0.000 A 
ATOM     14  S   UNL     1      50.167   7.465  17.161  0.00  0.00    +0.000 S 
ATOM     15  C   UNL     1      51.203   7.686  15.827  0.00  0.00    +0.000 A 
ATOM     16  N   UNL     1      52.527   7.392  15.911  0.00  0.00    +0.000 NA
ATOM     17  C   UNL     1      53.182   7.570  14.812  0.00  0.00    +0.000 A 
ATOM     18  N   UNL     1      52.635   8.034  13.643  0.00  0.00    +0.000 N 
ATOM     19  C   UNL     1      51.323   8.423  13.542  0.00  0.00    +0.000 A 
ATOM     20  O   UNL     1      50.908   8.990  12.530  0.00  0.00    +0.000 OA
ATOM     21  C   UNL     1      50.527   8.177  14.725  0.00  0.00    +0.000 A 
ATOM     22  H   UNL     1      53.214   8.191  12.827  0.00  0.00    +0.000 HD
ENDBRANCH   9  12
ENDBRANCH   7  10
ENDBRANCH   1   7
BRANCH   4  23
ATOM     23  C   UNL     1      43.886   3.207  10.721  0.00  0.00    +0.000 C 
BRANCH  23  24
ATOM     24  O   UNL     1      43.449   2.397  11.818  0.00  0.00    +0.000 OA
ATOM     25  H   UNL     1      43.461   2.995  12.590  0.00  0.00    +0.000 HD
ENDBRANCH  23  24
BRANCH  23  26
ATOM     26  C   UNL     1      44.988   2.452   9.965  0.00  0.00    +0.000 C 
BRANCH  26  27
ATOM     27  C   UNL     1      44.793   2.530   8.449  0.00  0.00    +0.000 C 
BRANCH  27  28
ATOM     28  C   UNL     1      46.091   2.562   7.717  0.00  0.00    +0.000 A 
ATOM     29  C   UNL     1      46.748   3.642   7.165  0.00  0.00    +0.000 A 
ATOM     30  N   UNL     1      47.898   3.131   6.629  0.00  0.00    +0.000 N 
ATOM     31  C   UNL     1      47.900   1.787   6.873  0.00  0.00    +0.000 A 
ATOM     32  N   UNL     1      46.822   1.413   7.522  0.00  0.00    +0.000 NA
ATOM     33  H   UNL     1      48.620   3.648   6.148  0.00  0.00    +0.000 HD
ENDBRANCH  27  28
ENDBRANCH  26  27
ENDBRANCH  23  26
ENDBRANCH   4  23
TORSDOF 8
ENDMDL
MODEL 8
REMARK VINA RESULT:    -6.488      2.870      8.411
REMARK INTER + INTRA:         -10.471
REMARK INTER:                  -9.208
REMARK INTRA:                  -1.263
REMARK UNBOUND:                -1.138
REMARK  Name = 
REMARK  8 active torsions:
REMARK  status: ('A' for Active; 'I' for Inactive)
REMARK    1  A    between atoms: C_2  and  C_20
REMARK    2  A    between atoms: N_3  and  C_4
REMARK    3  A    between atoms: C_4  and  C_5
REMARK    4  A    between atoms: C_8  and  C_9
REMARK    5  A    between atoms: C_9  and  O_10
REMARK    6  A    between atoms: C_9  and  C_11
REMARK    7  A    between atoms: C_11  and  C_12
REMARK    8  A    between atoms: C_12  and  C_13
REMARK                            x       y       z     vdW  Elec       q    Type
REMARK                         _______ _______ _______ _____ _____    ______ ____
ROOT
ATOM      1  C   UNL     1      48.656   7.687  13.025  0.00  0.00    +0.000 A 
ATOM      2  C   UNL     1      49.685   8.617  13.175  0.00  0.00    +0.000 A 
ATOM      3  C   UNL     1      50.528   8.547  14.285  0.00  0.00    +0.000 A 
ATOM      4  C   UNL     1      50.336   7.532  15.221  0.00  0.00    +0.000 A 
ATOM      5  N   UNL     1      49.388   6.571  15.057  0.00  0.00    +0.000 NA
ATOM      6  C   UNL     1      48.576   6.675  13.975  0.00  0.00    +0.000 A 
ENDROOT
BRANCH   1   7
ATOM      7  C   UNL     1      47.674   7.779  11.893  0.00  0.00    +0.000 C 
BRANCH   7  10
ATOM      8  O   UNL     1      44.896   7.422  12.197  0.00  0.00    +0.000 OA
ATOM      9  C   UNL     1      45.582   6.473  11.835  0.00  0.00    +0.000 C 
ATOM     10  N   UNL     1      46.943   6.554  11.698  0.00  0.00    +0.000 N 
ATOM     11  H   UNL     1      47.445   5.793  11.255  0.00  0.00    +0.000 HD
BRANCH   9  12
ATOM     12  C   UNL     1      44.987   5.158  11.562  0.00  0.00    +0.000 A 
ATOM     13  C   UNL     1      44.293   4.485  12.560  0.00  0.00    +0.000 A 
ATOM     14  S   UNL     1      43.650   2.989  12.054  0.00  0.00    +0.000 S 
ATOM     15  C   UNL     1      44.249   3.203  10.474  0.00  0.00    +0.000 A 
ATOM     16  N   UNL     1      44.009   2.283   9.502  0.00  0.00    +0.000 NA
ATOM     17  C   UNL     1      44.488   2.595   8.345  0.00  0.00    +0.000 A 
ATOM     18  N   UNL     1      45.204   3.734   8.076  0.00  0.00    +0.000 N 
ATOM     19  C   UNL     1      45.541   4.643   9.046  0.00  0.00    +0.000 A 
ATOM     20  O   UNL     1      46.323   5.564   8.806  0.00  0.00    +0.000 OA
ATOM     21  C   UNL     1      44.967   4.378  10.348  0.00  0.00    +0.000 A 
ATOM     22  H   UNL     1      45.588   3.898   7.153  0.00  0.00    +0.000 HD
ENDBRANCH   9  12
ENDBRANCH   7  10
ENDBRANCH   1   7
BRANCH   4  23
ATOM     23  C   UNL     1      51.200   7.457  16.472  0.00  0.00    +0.000 C 
BRANCH  23  24
ATOM     24  O   UNL     1      52.227   6.479  16.278  0.00  0.00    +0.000 OA
ATOM     25  H   UNL     1      52.018   5.768  16.913  0.00  0.00    +0.000 HD
ENDBRANCH  23  24
BRANCH  23  26
ATOM     26  C   UNL     1      50.373   7.058  17.702  0.00  0.00    +0.000 C 
BRANCH  26  27
ATOM     27  C   UNL     1      50.828   5.716  18.282  0.00  0.00    +0.000 C 
BRANCH  27  28
ATOM     28  C   UNL     1      49.782   4.663  18.150  0.00  0.00    +0.000 A 
ATOM     29  C   UNL     1      48.686   4.425  18.953  0.00  0.00    +0.000 A 
ATOM     30  N   UNL     1      48.044   3.361  18.384  0.00  0.00    +0.000 N 
ATOM     31  C   UNL     1      48.756   2.999  17.276  0.00  0.00    +0.000 A 
ATOM     32  N   UNL     1      49.812   3.762  17.111  0.00  0.00    +0.000 NA
ATOM     33  H   UNL     1      47.195   2.922  18.713  0.00  0.00    +0.000 HD
ENDBRANCH  27  28
ENDBRANCH  26  27
ENDBRANCH  23  26
ENDBRANCH   4  23
TORSDOF 8
ENDMDL
MODEL 9
REMARK VINA RESULT:    -6.365      3.206      7.909
REMARK INTER + INTRA:         -10.294
REMARK INTER:                  -9.107
REMARK INTRA:                  -1.187
REMARK UNBOUND:                -1.138
REMARK  Name = 
REMARK  8 active torsions:
REMARK  status: ('A' for Active; 'I' for Inactive)
REMARK    1  A    between atoms: C_2  and  C_20
REMARK    2  A    between atoms: N_3  and  C_4
REMARK    3  A    between atoms: C_4  and  C_5
REMARK    4  A    between atoms: C_8  and  C_9
REMARK    5  A    between atoms: C_9  and  O_10
REMARK    6  A    between atoms: C_9  and  C_11
REMARK    7  A    between atoms: C_11  and  C_12
REMARK    8  A    between atoms: C_12  and  C_13
REMARK                            x       y       z     vdW  Elec       q    Type
REMARK                         _______ _______ _______ _____ _____    ______ ____
ROOT
ATOM      1  C   UNL     1      48.545   7.720  13.577  0.00  0.00    +0.000 A 
ATOM      2  C   UNL     1      48.271   6.514  14.222  0.00  0.00    +0.000 A 
ATOM      3  C   UNL     1      48.599   6.356  15.569  0.00  0.00    +0.000 A 
ATOM      4  C   UNL     1      49.185   7.419  16.254  0.00  0.00    +0.000 A 
ATOM      5  N   UNL     1      49.394   8.628  15.667  0.00  0.00    +0.000 NA
ATOM      6  C   UNL     1      49.076   8.745  14.353  0.00  0.00    +0.000 A 
ENDROOT
BRANCH   1   7
ATOM      7  C   UNL     1      48.288   7.901  12.109  0.00  0.00    +0.000 C 
BRANCH   7  10
ATOM      8  O   UNL     1      45.501   7.823  11.701  0.00  0.00    +0.000 OA
ATOM      9  C   UNL     1      46.181   6.867  11.348  0.00  0.00    +0.000 C 
ATOM     10  N   UNL     1      47.537   6.812  11.543  0.00  0.00    +0.000 N 
ATOM     11  H   UNL     1      48.074   6.073  11.102  0.00  0.00    +0.000 HD
BRANCH   9  12
ATOM     12  C   UNL     1      45.574   5.685  10.722  0.00  0.00    +0.000 A 
ATOM     13  C   UNL     1      45.793   5.418   9.377  0.00  0.00    +0.000 A 
ATOM     14  S   UNL     1      45.033   3.991   8.833  0.00  0.00    +0.000 S 
ATOM     15  C   UNL     1      44.411   3.663  10.385  0.00  0.00    +0.000 A 
ATOM     16  N   UNL     1      43.684   2.541  10.626  0.00  0.00    +0.000 NA
ATOM     17  C   UNL     1      43.312   2.403  11.855  0.00  0.00    +0.000 A 
ATOM     18  N   UNL     1      43.585   3.296  12.860  0.00  0.00    +0.000 N 
ATOM     19  C   UNL     1      44.240   4.481  12.639  0.00  0.00    +0.000 A 
ATOM     20  O   UNL     1      44.321   5.333  13.525  0.00  0.00    +0.000 OA
ATOM     21  C   UNL     1      44.742   4.652  11.293  0.00  0.00    +0.000 A 
ATOM     22  H   UNL     1      43.226   3.148  13.795  0.00  0.00    +0.000 HD
ENDBRANCH   9  12
ENDBRANCH   7  10
ENDBRANCH   1   7
BRANCH   4  23
ATOM     23  C   UNL     1      49.609   7.266  17.708  0.00  0.00    +0.000 C 
BRANCH  23  24
ATOM     24  O   UNL     1      51.037   7.328  17.793  0.00  0.00    +0.000 OA
ATOM     25  H   UNL     1      51.257   8.261  17.606  0.00  0.00    +0.000 HD
ENDBRANCH  23  24
BRANCH  23  26
ATOM     26  C   UNL     1      49.145   5.924  18.291  0.00  0.00    +0.000 C 
BRANCH  26  27
ATOM     27  C   UNL     1      50.314   4.956  18.490  0.00  0.00    +0.000 C 
BRANCH  27  28
ATOM     28  C   UNL     1      50.122   3.681  17.741  0.00  0.00    +0.000 A 
ATOM     29  C   UNL     1      51.048   2.706  17.437  0.00  0.00    +0.000 A 
ATOM     30  N   UNL     1      50.354   1.745  16.756  0.00  0.00    +0.000 N 
ATOM     31  C   UNL     1      49.055   2.161  16.675  0.00  0.00    +0.000 A 
ATOM     32  N   UNL     1      48.884   3.327  17.254  0.00  0.00    +0.000 NA
ATOM     33  H   UNL     1      50.725   0.882  16.385  0.00  0.00    +0.000 HD
ENDBRANCH  27  28
ENDBRANCH  26  27
ENDBRANCH  23  26
ENDBRANCH   4  23
TORSDOF 8
ENDMDL
