MODEL 1
REMARK VINA RESULT:    -7.207      0.000      0.000
REMARK INTER + INTRA:         -12.607
REMARK INTER:                 -10.999
REMARK INTRA:                  -1.609
REMARK UNBOUND:                -1.609
REMARK  Name = 
REMARK  10 active torsions:
REMARK  status: ('A' for Active; 'I' for Inactive)
REMARK    1  A    between atoms: C_1  and  C_2
REMARK    2  A    between atoms: C_2  and  O_3
REMARK    3  A    between atoms: O_3  and  C_4
REMARK    4  A    between atoms: C_6  and  C_7
REMARK    5  A    between atoms: C_7  and  N_8
REMARK    6  A    between atoms: C_9  and  C_11
REMARK    7  A    between atoms: C_23  and  C_24
REMARK    8  A    between atoms: C_24  and  N_25
REMARK    9  A    between atoms: N_25  and  C_26
REMARK   10  A    between atoms: C_26  and  C_27
REMARK                            x       y       z     vdW  Elec       q    Type
REMARK                         _______ _______ _______ _____ _____    ______ ____
ROOT
ATOM      1  C   UNL     1      48.256   6.259  15.157  0.00  0.00    +0.000 A 
ATOM      2  C   UNL     1      48.366   5.412  16.277  0.00  0.00    +0.000 A 
ATOM      3  C   UNL     1      47.737   4.161  16.329  0.00  0.00    +0.000 A 
ATOM      4  C   UNL     1      47.004   3.740  15.223  0.00  0.00    +0.000 A 
ATOM      5  C   UNL     1      46.903   4.558  14.092  0.00  0.00    +0.000 A 
ATOM      6  C   UNL     1      47.526   5.824  14.034  0.00  0.00    +0.000 A 
ENDROOT
BRANCH   1   7
ATOM      7  O   UNL     1      48.835   7.509  15.111  0.00  0.00    +0.000 OA
BRANCH   7   9
ATOM      8  C   UNL     1      50.737   8.275  13.823  0.00  0.00    +0.000 C 
ATOM      9  C   UNL     1      50.267   7.526  15.053  0.00  0.00    +0.000 C 
ENDBRANCH   7   9
ENDBRANCH   1   7
BRANCH   3  10
ATOM     10  C   UNL     1      47.903   3.303  17.557  0.00  0.00    +0.000 C 
BRANCH  10  11
ATOM     11  N   UNL     1      49.297   3.085  17.861  0.00  0.00    +0.000 N 
ATOM     12  C   UNL     1      50.069   2.255  17.088  0.00  0.00    +0.000 C 
ATOM     13  O   UNL     1      49.618   1.677  16.104  0.00  0.00    +0.000 OA
ATOM     14  H   UNL     1      49.620   3.353  18.784  0.00  0.00    +0.000 HD
BRANCH  12  15
ATOM     15  C   UNL     1      51.488   2.149  17.457  0.00  0.00    +0.000 A 
ATOM     16  C   UNL     1      52.075   0.893  17.563  0.00  0.00    +0.000 A 
ATOM     17  S   UNL     1      53.738   0.941  17.935  0.00  0.00    +0.000 S 
ATOM     18  C   UNL     1      53.726   2.641  18.021  0.00  0.00    +0.000 A 
ATOM     19  N   UNL     1      54.855   3.332  18.331  0.00  0.00    +0.000 NA
ATOM     20  C   UNL     1      54.697   4.613  18.387  0.00  0.00    +0.000 A 
ATOM     21  N   UNL     1      53.513   5.263  18.156  0.00  0.00    +0.000 N 
ATOM     22  C   UNL     1      52.351   4.608  17.818  0.00  0.00    +0.000 A 
ATOM     23  O   UNL     1      51.316   5.220  17.587  0.00  0.00    +0.000 OA
ATOM     24  C   UNL     1      52.472   3.163  17.751  0.00  0.00    +0.000 A 
ATOM     25  H   UNL     1      53.459   6.271  18.208  0.00  0.00    +0.000 HD
ENDBRANCH  12  15
ENDBRANCH  10  11
ENDBRANCH   3  10
BRANCH   6  26
ATOM     26  C   UNL     1      47.414   6.625  12.747  0.00  0.00    +0.000 C 
BRANCH  26  27
ATOM     27  N   UNL     1      46.013   6.934  12.415  0.00  0.00    +0.000 NA
ATOM     28  H   UNL     1      45.798   7.853  12.797  0.00  0.00    +0.000 HD
BRANCH  27  29
ATOM     29  C   UNL     1      45.782   6.945  10.972  0.00  0.00    +0.000 C 
BRANCH  29  30
ATOM     30  C   UNL     1      45.375   5.576  10.462  0.00  0.00    +0.000 A 
ATOM     31  C   UNL     1      44.586   4.718  11.246  0.00  0.00    +0.000 A 
ATOM     32  C   UNL     1      44.193   3.468  10.757  0.00  0.00    +0.000 A 
ATOM     33 CL   UNL     1      43.229   2.433  11.739  0.00  0.00    +0.000 Cl
ATOM     34  C   UNL     1      44.569   3.050   9.483  0.00  0.00    +0.000 A 
ATOM     35  C   UNL     1      45.353   3.895   8.702  0.00  0.00    +0.000 A 
ATOM     36 CL   UNL     1      45.822   3.394   7.122  0.00  0.00    +0.000 Cl
ATOM     37  C   UNL     1      45.758   5.143   9.182  0.00  0.00    +0.000 A 
ENDBRANCH  29  30
ENDBRANCH  27  29
ENDBRANCH  26  27
ENDBRANCH   6  26
TORSDOF 9
ENDMDL
MODEL 2
REMARK VINA RESULT:    -7.191      4.417      9.318
REMARK INTER + INTRA:         -12.583
REMARK INTER:                 -10.101
REMARK INTRA:                  -2.481
REMARK UNBOUND:                -1.609
REMARK  Name = 
REMARK  10 active torsions:
REMARK  status: ('A' for Active; 'I' for Inactive)
REMARK    1  A    between atoms: C_1  and  C_2
REMARK    2  A    between atoms: C_2  and  O_3
REMARK    3  A    between atoms: O_3  and  C_4
REMARK    4  A    between atoms: C_6  and  C_7
REMARK    5  A    between atoms: C_7  and  N_8
REMARK    6  A    between atoms: C_9  and  C_11
REMARK    7  A    between atoms: C_23  and  C_24
REMARK    8  A    between atoms: C_24  and  N_25
REMARK    9  A    between atoms: N_25  and  C_26
REMARK   10  A    between atoms: C_26  and  C_27
REMARK                            x       y       z     vdW  Elec       q    Type
REMARK                         _______ _______ _______ _____ _____    ______ ____
ROOT
ATOM      1  C   UNL     1      48.623   4.914  17.970  0.00  0.00    +0.000 A 
ATOM      2  C   UNL     1      48.677   5.491  16.686  0.00  0.00    +0.000 A 
ATOM      3  C   UNL     1      48.661   6.879  16.492  0.00  0.00    +0.000 A 
ATOM      4  C   UNL     1      48.614   7.705  17.611  0.00  0.00    +0.000 A 
ATOM      5  C   UNL     1      48.584   7.150  18.896  0.00  0.00    +0.000 A 
ATOM      6  C   UNL     1      48.591   5.752  19.101  0.00  0.00    +0.000 A 
ENDROOT
BRANCH   1   7
ATOM      7  O   UNL     1      48.596   3.551  18.171  0.00  0.00    +0.000 OA
BRANCH   7   9
ATOM      8  C   UNL     1      50.432   2.219  17.321  0.00  0.00    +0.000 C 
ATOM      9  C   UNL     1      49.038   2.753  17.065  0.00  0.00    +0.000 C 
ENDBRANCH   7   9
ENDBRANCH   1   7
BRANCH   3  10
ATOM     10  C   UNL     1      48.729   7.428  15.090  0.00  0.00    +0.000 C 
BRANCH  10  11
ATOM     11  N   UNL     1      47.501   7.188  14.371  0.00  0.00    +0.000 N 
ATOM     12  C   UNL     1      47.467   6.345  13.288  0.00  0.00    +0.000 C 
ATOM     13  O   UNL     1      48.466   5.751  12.895  0.00  0.00    +0.000 OA
ATOM     14  H   UNL     1      46.738   7.838  14.523  0.00  0.00    +0.000 HD
BRANCH  12  15
ATOM     15  C   UNL     1      46.152   6.134  12.665  0.00  0.00    +0.000 A 
ATOM     16  C   UNL     1      45.462   7.221  12.142  0.00  0.00    +0.000 A 
ATOM     17  S   UNL     1      43.986   6.802  11.398  0.00  0.00    +0.000 S 
ATOM     18  C   UNL     1      44.188   5.159  11.794  0.00  0.00    +0.000 A 
ATOM     19  N   UNL     1      43.245   4.239  11.459  0.00  0.00    +0.000 NA
ATOM     20  C   UNL     1      43.515   3.035  11.843  0.00  0.00    +0.000 A 
ATOM     21  N   UNL     1      44.644   2.671  12.528  0.00  0.00    +0.000 N 
ATOM     22  C   UNL     1      45.634   3.563  12.870  0.00  0.00    +0.000 A 
ATOM     23  O   UNL     1      46.647   3.199  13.455  0.00  0.00    +0.000 OA
ATOM     24  C   UNL     1      45.376   4.933  12.469  0.00  0.00    +0.000 A 
ATOM     25  H   UNL     1      44.798   1.708  12.794  0.00  0.00    +0.000 HD
ENDBRANCH  12  15
ENDBRANCH  10  11
ENDBRANCH   3  10
BRANCH   6  26
ATOM     26  C   UNL     1      48.612   5.233  20.529  0.00  0.00    +0.000 C 
BRANCH  26  27
ATOM     27  N   UNL     1      49.795   4.397  20.791  0.00  0.00    +0.000 NA
ATOM     28  H   UNL     1      49.892   3.744  20.015  0.00  0.00    +0.000 HD
BRANCH  27  29
ATOM     29  C   UNL     1      51.015   5.194  20.904  0.00  0.00    +0.000 C 
BRANCH  29  30
ATOM     30  C   UNL     1      52.007   4.851  19.808  0.00  0.00    +0.000 A 
ATOM     31  C   UNL     1      52.832   3.719  19.908  0.00  0.00    +0.000 A 
ATOM     32  C   UNL     1      53.724   3.396  18.881  0.00  0.00    +0.000 A 
ATOM     33 CL   UNL     1      54.728   2.005  19.030  0.00  0.00    +0.000 Cl
ATOM     34  C   UNL     1      53.809   4.184  17.736  0.00  0.00    +0.000 A 
ATOM     35  C   UNL     1      52.996   5.309  17.632  0.00  0.00    +0.000 A 
ATOM     36 CL   UNL     1      53.087   6.290  16.219  0.00  0.00    +0.000 Cl
ATOM     37  C   UNL     1      52.106   5.646  18.654  0.00  0.00    +0.000 A 
ENDBRANCH  29  30
ENDBRANCH  27  29
ENDBRANCH  26  27
ENDBRANCH   6  26
TORSDOF 9
ENDMDL
MODEL 3
REMARK VINA RESULT:    -6.997      3.440      5.221
REMARK INTER + INTRA:         -12.287
REMARK INTER:                 -11.100
REMARK INTRA:                  -1.187
REMARK UNBOUND:                -1.609
REMARK  Name = 
REMARK  10 active torsions:
REMARK  status: ('A' for Active; 'I' for Inactive)
REMARK    1  A    between atoms: C_1  and  C_2
REMARK    2  A    between atoms: C_2  and  O_3
REMARK    3  A    between atoms: O_3  and  C_4
REMARK    4  A    between atoms: C_6  and  C_7
REMARK    5  A    between atoms: C_7  and  N_8
REMARK    6  A    between atoms: C_9  and  C_11
REMARK    7  A    between atoms: C_23  and  C_24
REMARK    8  A    between atoms: C_24  and  N_25
REMARK    9  A    between atoms: N_25  and  C_26
REMARK   10  A    between atoms: C_26  and  C_27
REMARK                            x       y       z     vdW  Elec       q    Type
REMARK                         _______ _______ _______ _____ _____    ______ ____
ROOT
ATOM      1  C   UNL     1      44.427   5.154  12.799  0.00  0.00    +0.000 A 
ATOM      2  C   UNL     1      45.526   5.924  13.225  0.00  0.00    +0.000 A 
ATOM      3  C   UNL     1      46.784   5.356  13.469  0.00  0.00    +0.000 A 
ATOM      4  C   UNL     1      46.948   3.991  13.258  0.00  0.00    +0.000 A 
ATOM      5  C   UNL     1      45.873   3.213  12.812  0.00  0.00    +0.000 A 
ATOM      6  C   UNL     1      44.600   3.775  12.571  0.00  0.00    +0.000 A 
ENDROOT
BRANCH   1   7
ATOM      7  O   UNL     1      43.175   5.693  12.596  0.00  0.00    +0.000 OA
BRANCH   7   9
ATOM      8  C   UNL     1      43.517   7.611  11.157  0.00  0.00    +0.000 C 
ATOM      9  C   UNL     1      42.933   6.219  11.285  0.00  0.00    +0.000 C 
ENDBRANCH   7   9
ENDBRANCH   1   7
BRANCH   3  10
ATOM     10  C   UNL     1      47.919   6.243  13.916  0.00  0.00    +0.000 C 
BRANCH  10  11
ATOM     11  N   UNL     1      48.058   6.234  15.353  0.00  0.00    +0.000 N 
ATOM     12  C   UNL     1      49.193   6.716  15.957  0.00  0.00    +0.000 C 
ATOM     13  O   UNL     1      50.124   7.186  15.310  0.00  0.00    +0.000 OA
ATOM     14  H   UNL     1      47.424   5.644  15.879  0.00  0.00    +0.000 HD
BRANCH  12  15
ATOM     15  C   UNL     1      49.205   6.707  17.426  0.00  0.00    +0.000 A 
ATOM     16  C   UNL     1      49.489   7.882  18.114  0.00  0.00    +0.000 A 
ATOM     17  S   UNL     1      49.401   7.723  19.809  0.00  0.00    +0.000 S 
ATOM     18  C   UNL     1      49.033   6.066  19.690  0.00  0.00    +0.000 A 
ATOM     19  N   UNL     1      48.853   5.309  20.806  0.00  0.00    +0.000 NA
ATOM     20  C   UNL     1      48.605   4.063  20.569  0.00  0.00    +0.000 A 
ATOM     21  N   UNL     1      48.518   3.509  19.319  0.00  0.00    +0.000 N 
ATOM     22  C   UNL     1      48.671   4.239  18.163  0.00  0.00    +0.000 A 
ATOM     23  O   UNL     1      48.555   3.720  17.060  0.00  0.00    +0.000 OA
ATOM     24  C   UNL     1      48.961   5.645  18.373  0.00  0.00    +0.000 A 
ATOM     25  H   UNL     1      48.313   2.526  19.204  0.00  0.00    +0.000 HD
ENDBRANCH  12  15
ENDBRANCH  10  11
ENDBRANCH   3  10
BRANCH   6  26
ATOM     26  C   UNL     1      43.502   2.871  12.036  0.00  0.00    +0.000 C 
BRANCH  26  27
ATOM     27  N   UNL     1      43.881   2.247  10.758  0.00  0.00    +0.000 NA
ATOM     28  H   UNL     1      43.111   1.649  10.464  0.00  0.00    +0.000 HD
BRANCH  27  29
ATOM     29  C   UNL     1      44.143   3.241   9.719  0.00  0.00    +0.000 C 
BRANCH  29  30
ATOM     30  C   UNL     1      45.073   2.699   8.651  0.00  0.00    +0.000 A 
ATOM     31  C   UNL     1      45.582   3.534   7.643  0.00  0.00    +0.000 A 
ATOM     32  C   UNL     1      46.460   3.031   6.679  0.00  0.00    +0.000 A 
ATOM     33 CL   UNL     1      47.066   4.074   5.450  0.00  0.00    +0.000 Cl
ATOM     34  C   UNL     1      46.855   1.695   6.700  0.00  0.00    +0.000 A 
ATOM     35  C   UNL     1      46.353   0.862   7.695  0.00  0.00    +0.000 A 
ATOM     36 CL   UNL     1      46.837  -0.791   7.738  0.00  0.00    +0.000 Cl
ATOM     37  C   UNL     1      45.469   1.351   8.661  0.00  0.00    +0.000 A 
ENDBRANCH  29  30
ENDBRANCH  27  29
ENDBRANCH  26  27
ENDBRANCH   6  26
TORSDOF 9
ENDMDL
MODEL 4
REMARK VINA RESULT:    -6.782      3.941      8.810
REMARK INTER + INTRA:         -11.959
REMARK INTER:                 -10.321
REMARK INTRA:                  -1.638
REMARK UNBOUND:                -1.609
REMARK  Name = 
REMARK  10 active torsions:
REMARK  status: ('A' for Active; 'I' for Inactive)
REMARK    1  A    between atoms: C_1  and  C_2
REMARK    2  A    between atoms: C_2  and  O_3
REMARK    3  A    between atoms: O_3  and  C_4
REMARK    4  A    between atoms: C_6  and  C_7
REMARK    5  A    between atoms: C_7  and  N_8
REMARK    6  A    between atoms: C_9  and  C_11
REMARK    7  A    between atoms: C_23  and  C_24
REMARK    8  A    between atoms: C_24  and  N_25
REMARK    9  A    between atoms: N_25  and  C_26
REMARK   10  A    between atoms: C_26  and  C_27
REMARK                            x       y       z     vdW  Elec       q    Type
REMARK                         _______ _______ _______ _____ _____    ______ ____
ROOT
ATOM      1  C   UNL     1      49.197   8.811  15.479  0.00  0.00    +0.000 A 
ATOM      2  C   UNL     1      48.021   8.821  14.705  0.00  0.00    +0.000 A 
ATOM      3  C   UNL     1      47.980   8.301  13.404  0.00  0.00    +0.000 A 
ATOM      4  C   UNL     1      49.139   7.736  12.879  0.00  0.00    +0.000 A 
ATOM      5  C   UNL     1      50.312   7.696  13.642  0.00  0.00    +0.000 A 
ATOM      6  C   UNL     1      50.364   8.226  14.950  0.00  0.00    +0.000 A 
ENDROOT
BRANCH   1   7
ATOM      7  O   UNL     1      49.260   9.358  16.742  0.00  0.00    +0.000 OA
BRANCH   7   9
ATOM      8  C   UNL     1      47.920   8.289  18.453  0.00  0.00    +0.000 C 
ATOM      9  C   UNL     1      48.016   9.421  17.451  0.00  0.00    +0.000 C 
ENDBRANCH   7   9
ENDBRANCH   1   7
BRANCH   3  10
ATOM     10  C   UNL     1      46.684   8.338  12.635  0.00  0.00    +0.000 C 
BRANCH  10  11
ATOM     11  N   UNL     1      46.136   7.013  12.467  0.00  0.00    +0.000 N 
ATOM     12  C   UNL     1      45.055   6.793  11.650  0.00  0.00    +0.000 C 
ATOM     13  O   UNL     1      44.520   7.700  11.020  0.00  0.00    +0.000 OA
ATOM     14  H   UNL     1      46.400   6.309  13.147  0.00  0.00    +0.000 HD
BRANCH  12  15
ATOM     15  C   UNL     1      44.613   5.397  11.511  0.00  0.00    +0.000 A 
ATOM     16  C   UNL     1      43.898   4.801  12.543  0.00  0.00    +0.000 A 
ATOM     17  S   UNL     1      43.404   3.205  12.203  0.00  0.00    +0.000 S 
ATOM     18  C   UNL     1      44.173   3.231  10.685  0.00  0.00    +0.000 A 
ATOM     19  N   UNL     1      44.153   2.141   9.874  0.00  0.00    +0.000 NA
ATOM     20  C   UNL     1      44.797   2.291   8.764  0.00  0.00    +0.000 A 
ATOM     21  N   UNL     1      45.455   3.434   8.393  0.00  0.00    +0.000 N 
ATOM     22  C   UNL     1      45.485   4.568   9.172  0.00  0.00    +0.000 A 
ATOM     23  O   UNL     1      46.056   5.585   8.797  0.00  0.00    +0.000 OA
ATOM     24  C   UNL     1      44.782   4.450  10.435  0.00  0.00    +0.000 A 
ATOM     25  H   UNL     1      45.935   3.488   7.505  0.00  0.00    +0.000 HD
ENDBRANCH  12  15
ENDBRANCH  10  11
ENDBRANCH   3  10
BRANCH   6  26
ATOM     26  C   UNL     1      51.661   8.092  15.731  0.00  0.00    +0.000 C 
BRANCH  26  27
ATOM     27  N   UNL     1      51.955   6.689  16.069  0.00  0.00    +0.000 NA
ATOM     28  H   UNL     1      52.966   6.568  16.040  0.00  0.00    +0.000 HD
BRANCH  27  29
ATOM     29  C   UNL     1      51.465   6.332  17.398  0.00  0.00    +0.000 C 
BRANCH  29  30
ATOM     30  C   UNL     1      50.722   5.010  17.381  0.00  0.00    +0.000 A 
ATOM     31  C   UNL     1      49.322   4.969  17.279  0.00  0.00    +0.000 A 
ATOM     32  C   UNL     1      48.647   3.745  17.236  0.00  0.00    +0.000 A 
ATOM     33 CL   UNL     1      46.930   3.721  17.116  0.00  0.00    +0.000 Cl
ATOM     34  C   UNL     1      49.348   2.542  17.286  0.00  0.00    +0.000 A 
ATOM     35  C   UNL     1      50.735   2.576  17.389  0.00  0.00    +0.000 A 
ATOM     36 CL   UNL     1      51.616   1.096  17.446  0.00  0.00    +0.000 Cl
ATOM     37  C   UNL     1      51.420   3.793  17.440  0.00  0.00    +0.000 A 
ENDBRANCH  29  30
ENDBRANCH  27  29
ENDBRANCH  26  27
ENDBRANCH   6  26
TORSDOF 9
ENDMDL
MODEL 5
REMARK VINA RESULT:    -6.775      3.984      8.902
REMARK INTER + INTRA:         -11.948
REMARK INTER:                 -10.358
REMARK INTRA:                  -1.591
REMARK UNBOUND:                -1.609
REMARK  Name = 
REMARK  10 active torsions:
REMARK  status: ('A' for Active; 'I' for Inactive)
REMARK    1  A    between atoms: C_1  and  C_2
REMARK    2  A    between atoms: C_2  and  O_3
REMARK    3  A    between atoms: O_3  and  C_4
REMARK    4  A    between atoms: C_6  and  C_7
REMARK    5  A    between atoms: C_7  and  N_8
REMARK    6  A    between atoms: C_9  and  C_11
REMARK    7  A    between atoms: C_23  and  C_24
REMARK    8  A    between atoms: C_24  and  N_25
REMARK    9  A    between atoms: N_25  and  C_26
REMARK   10  A    between atoms: C_26  and  C_27
REMARK                            x       y       z     vdW  Elec       q    Type
REMARK                         _______ _______ _______ _____ _____    ______ ____
ROOT
ATOM      1  C   UNL     1      50.651   8.456  13.607  0.00  0.00    +0.000 A 
ATOM      2  C   UNL     1      49.583   8.487  12.688  0.00  0.00    +0.000 A 
ATOM      3  C   UNL     1      48.378   7.811  12.924  0.00  0.00    +0.000 A 
ATOM      4  C   UNL     1      48.232   7.111  14.118  0.00  0.00    +0.000 A 
ATOM      5  C   UNL     1      49.273   7.089  15.053  0.00  0.00    +0.000 A 
ATOM      6  C   UNL     1      50.495   7.759  14.820  0.00  0.00    +0.000 A 
ENDROOT
BRANCH   1   7
ATOM      7  O   UNL     1      51.855   9.081  13.367  0.00  0.00    +0.000 OA
BRANCH   7   9
ATOM      8  C   UNL     1      53.939   8.245  12.458  0.00  0.00    +0.000 C 
ATOM      9  C   UNL     1      52.524   8.694  12.159  0.00  0.00    +0.000 C 
ENDBRANCH   7   9
ENDBRANCH   1   7
BRANCH   3  10
ATOM     10  C   UNL     1      47.274   7.894  11.900  0.00  0.00    +0.000 C 
BRANCH  10  11
ATOM     11  N   UNL     1      46.651   6.608  11.696  0.00  0.00    +0.000 N 
ATOM     12  C   UNL     1      45.286   6.491  11.601  0.00  0.00    +0.000 C 
ATOM     13  O   UNL     1      44.543   7.465  11.669  0.00  0.00    +0.000 OA
ATOM     14  H   UNL     1      47.212   5.784  11.875  0.00  0.00    +0.000 HD
BRANCH  12  15
ATOM     15  C   UNL     1      44.762   5.143  11.339  0.00  0.00    +0.000 A 
ATOM     16  C   UNL     1      44.014   4.499  12.318  0.00  0.00    +0.000 A 
ATOM     17  S   UNL     1      43.426   2.972  11.838  0.00  0.00    +0.000 S 
ATOM     18  C   UNL     1      44.193   3.090  10.324  0.00  0.00    +0.000 A 
ATOM     19  N   UNL     1      44.107   2.080   9.417  0.00  0.00    +0.000 NA
ATOM     20  C   UNL     1      44.758   2.292   8.321  0.00  0.00    +0.000 A 
ATOM     21  N   UNL     1      45.483   3.423   8.052  0.00  0.00    +0.000 N 
ATOM     22  C   UNL     1      45.581   4.478   8.929  0.00  0.00    +0.000 A 
ATOM     23  O   UNL     1      46.211   5.489   8.644  0.00  0.00    +0.000 OA
ATOM     24  C   UNL     1      44.874   4.288  10.181  0.00  0.00    +0.000 A 
ATOM     25  H   UNL     1      45.964   3.528   7.169  0.00  0.00    +0.000 HD
ENDBRANCH  12  15
ENDBRANCH  10  11
ENDBRANCH   3  10
BRANCH   6  26
ATOM     26  C   UNL     1      51.552   7.730  15.911  0.00  0.00    +0.000 C 
BRANCH  26  27
ATOM     27  N   UNL     1      50.982   7.363  17.218  0.00  0.00    +0.000 NA
ATOM     28  H   UNL     1      50.015   7.081  17.066  0.00  0.00    +0.000 HD
BRANCH  27  29
ATOM     29  C   UNL     1      51.712   6.263  17.845  0.00  0.00    +0.000 C 
BRANCH  29  30
ATOM     30  C   UNL     1      50.977   4.946  17.687  0.00  0.00    +0.000 A 
ATOM     31  C   UNL     1      49.578   4.908  17.571  0.00  0.00    +0.000 A 
ATOM     32  C   UNL     1      48.911   3.691  17.399  0.00  0.00    +0.000 A 
ATOM     33 CL   UNL     1      47.194   3.671  17.264  0.00  0.00    +0.000 Cl
ATOM     34  C   UNL     1      49.618   2.494  17.331  0.00  0.00    +0.000 A 
ATOM     35  C   UNL     1      51.005   2.524  17.446  0.00  0.00    +0.000 A 
ATOM     36 CL   UNL     1      51.894   1.051  17.358  0.00  0.00    +0.000 Cl
ATOM     37  C   UNL     1      51.682   3.733  17.626  0.00  0.00    +0.000 A 
ENDBRANCH  29  30
ENDBRANCH  27  29
ENDBRANCH  26  27
ENDBRANCH   6  26
TORSDOF 9
ENDMDL
MODEL 6
REMARK VINA RESULT:    -6.728      3.448      5.301
REMARK INTER + INTRA:         -11.876
REMARK INTER:                 -10.909
REMARK INTRA:                  -0.968
REMARK UNBOUND:                -1.609
REMARK  Name = 
REMARK  10 active torsions:
REMARK  status: ('A' for Active; 'I' for Inactive)
REMARK    1  A    between atoms: C_1  and  C_2
REMARK    2  A    between atoms: C_2  and  O_3
REMARK    3  A    between atoms: O_3  and  C_4
REMARK    4  A    between atoms: C_6  and  C_7
REMARK    5  A    between atoms: C_7  and  N_8
REMARK    6  A    between atoms: C_9  and  C_11
REMARK    7  A    between atoms: C_23  and  C_24
REMARK    8  A    between atoms: C_24  and  N_25
REMARK    9  A    between atoms: N_25  and  C_26
REMARK   10  A    between atoms: C_26  and  C_27
REMARK                            x       y       z     vdW  Elec       q    Type
REMARK                         _______ _______ _______ _____ _____    ______ ____
ROOT
ATOM      1  C   UNL     1      44.810   7.351  11.629  0.00  0.00    +0.000 A 
ATOM      2  C   UNL     1      45.930   7.765  12.375  0.00  0.00    +0.000 A 
ATOM      3  C   UNL     1      46.729   6.859  13.084  0.00  0.00    +0.000 A 
ATOM      4  C   UNL     1      46.412   5.505  13.023  0.00  0.00    +0.000 A 
ATOM      5  C   UNL     1      45.316   5.072  12.268  0.00  0.00    +0.000 A 
ATOM      6  C   UNL     1      44.500   5.979  11.556  0.00  0.00    +0.000 A 
ENDROOT
BRANCH   1   7
ATOM      7  O   UNL     1      43.992   8.237  10.962  0.00  0.00    +0.000 OA
BRANCH   7   9
ATOM      8  C   UNL     1      43.867  10.450   9.986  0.00  0.00    +0.000 C 
ATOM      9  C   UNL     1      44.265   9.625  11.193  0.00  0.00    +0.000 C 
ENDBRANCH   7   9
ENDBRANCH   1   7
BRANCH   3  10
ATOM     10  C   UNL     1      47.919   7.372  13.856  0.00  0.00    +0.000 C 
BRANCH  10  11
ATOM     11  N   UNL     1      47.930   6.860  15.206  0.00  0.00    +0.000 N 
ATOM     12  C   UNL     1      49.110   6.552  15.836  0.00  0.00    +0.000 C 
ATOM     13  O   UNL     1      50.198   6.712  15.292  0.00  0.00    +0.000 OA
ATOM     14  H   UNL     1      47.057   6.501  15.575  0.00  0.00    +0.000 HD
BRANCH  12  15
ATOM     15  C   UNL     1      49.006   6.089  17.227  0.00  0.00    +0.000 A 
ATOM     16  C   UNL     1      49.409   4.798  17.549  0.00  0.00    +0.000 A 
ATOM     17  S   UNL     1      49.288   4.436  19.211  0.00  0.00    +0.000 S 
ATOM     18  C   UNL     1      48.642   5.972  19.555  0.00  0.00    +0.000 A 
ATOM     19  N   UNL     1      48.287   6.311  20.823  0.00  0.00    +0.000 NA
ATOM     20  C   UNL     1      47.787   7.497  20.937  0.00  0.00    +0.000 A 
ATOM     21  N   UNL     1      47.615   8.373  19.898  0.00  0.00    +0.000 N 
ATOM     22  C   UNL     1      47.979   8.082  18.603  0.00  0.00    +0.000 A 
ATOM     23  O   UNL     1      47.841   8.900  17.702  0.00  0.00    +0.000 OA
ATOM     24  C   UNL     1      48.538   6.756  18.419  0.00  0.00    +0.000 A 
ATOM     25  H   UNL     1      47.224   9.292  20.057  0.00  0.00    +0.000 HD
ENDBRANCH  12  15
ENDBRANCH  10  11
ENDBRANCH   3  10
BRANCH   6  26
ATOM     26  C   UNL     1      43.363   5.420  10.717  0.00  0.00    +0.000 C 
BRANCH  26  27
ATOM     27  N   UNL     1      43.860   4.718   9.521  0.00  0.00    +0.000 NA
ATOM     28  H   UNL     1      44.637   5.257   9.145  0.00  0.00    +0.000 HD
BRANCH  27  29
ATOM     29  C   UNL     1      44.316   3.365   9.831  0.00  0.00    +0.000 C 
BRANCH  29  30
ATOM     30  C   UNL     1      45.171   2.796   8.714  0.00  0.00    +0.000 A 
ATOM     31  C   UNL     1      45.628   3.613   7.667  0.00  0.00    +0.000 A 
ATOM     32  C   UNL     1      46.437   3.086   6.656  0.00  0.00    +0.000 A 
ATOM     33 CL   UNL     1      46.981   4.107   5.380  0.00  0.00    +0.000 Cl
ATOM     34  C   UNL     1      46.813   1.745   6.669  0.00  0.00    +0.000 A 
ATOM     35  C   UNL     1      46.362   0.930   7.702  0.00  0.00    +0.000 A 
ATOM     36 CL   UNL     1      46.823  -0.729   7.735  0.00  0.00    +0.000 Cl
ATOM     37  C   UNL     1      45.547   1.443   8.715  0.00  0.00    +0.000 A 
ENDBRANCH  29  30
ENDBRANCH  27  29
ENDBRANCH  26  27
ENDBRANCH   6  26
TORSDOF 9
ENDMDL
MODEL 7
REMARK VINA RESULT:    -6.710      3.521      5.131
REMARK INTER + INTRA:         -11.848
REMARK INTER:                 -10.838
REMARK INTRA:                  -1.011
REMARK UNBOUND:                -1.609
REMARK  Name = 
REMARK  10 active torsions:
REMARK  status: ('A' for Active; 'I' for Inactive)
REMARK    1  A    between atoms: C_1  and  C_2
REMARK    2  A    between atoms: C_2  and  O_3
REMARK    3  A    between atoms: O_3  and  C_4
REMARK    4  A    between atoms: C_6  and  C_7
REMARK    5  A    between atoms: C_7  and  N_8
REMARK    6  A    between atoms: C_9  and  C_11
REMARK    7  A    between atoms: C_23  and  C_24
REMARK    8  A    between atoms: C_24  and  N_25
REMARK    9  A    between atoms: N_25  and  C_26
REMARK   10  A    between atoms: C_26  and  C_27
REMARK                            x       y       z     vdW  Elec       q    Type
REMARK                         _______ _______ _______ _____ _____    ______ ____
ROOT
ATOM      1  C   UNL     1      45.496   7.064  11.678  0.00  0.00    +0.000 A 
ATOM      2  C   UNL     1      46.680   7.298  12.404  0.00  0.00    +0.000 A 
ATOM      3  C   UNL     1      47.253   6.322  13.231  0.00  0.00    +0.000 A 
ATOM      4  C   UNL     1      46.638   5.076  13.310  0.00  0.00    +0.000 A 
ATOM      5  C   UNL     1      45.474   4.816  12.578  0.00  0.00    +0.000 A 
ATOM      6  C   UNL     1      44.885   5.797  11.749  0.00  0.00    +0.000 A 
ENDROOT
BRANCH   1   7
ATOM      7  O   UNL     1      44.900   8.029  10.896  0.00  0.00    +0.000 OA
BRANCH   7   9
ATOM      8  C   UNL     1      43.397   9.928  10.930  0.00  0.00    +0.000 C 
ATOM      9  C   UNL     1      44.607   9.267  11.558  0.00  0.00    +0.000 C 
ENDBRANCH   7   9
ENDBRANCH   1   7
BRANCH   3  10
ATOM     10  C   UNL     1      48.526   6.640  13.973  0.00  0.00    +0.000 C 
BRANCH  10  11
ATOM     11  N   UNL     1      48.290   6.767  15.391  0.00  0.00    +0.000 N 
ATOM     12  C   UNL     1      49.334   6.803  16.282  0.00  0.00    +0.000 C 
ATOM     13  O   UNL     1      50.503   6.746  15.916  0.00  0.00    +0.000 OA
ATOM     14  H   UNL     1      47.353   6.576  15.726  0.00  0.00    +0.000 HD
BRANCH  12  15
ATOM     15  C   UNL     1      48.980   6.989  17.697  0.00  0.00    +0.000 A 
ATOM     16  C   UNL     1      48.771   8.273  18.186  0.00  0.00    +0.000 A 
ATOM     17  S   UNL     1      48.305   8.316  19.825  0.00  0.00    +0.000 S 
ATOM     18  C   UNL     1      48.417   6.623  19.959  0.00  0.00    +0.000 A 
ATOM     19  N   UNL     1      48.163   5.998  21.139  0.00  0.00    +0.000 NA
ATOM     20  C   UNL     1      48.310   4.715  21.104  0.00  0.00    +0.000 A 
ATOM     21  N   UNL     1      48.683   4.003  19.995  0.00  0.00    +0.000 N 
ATOM     22  C   UNL     1      48.929   4.590  18.774  0.00  0.00    +0.000 A 
ATOM     23  O   UNL     1      49.230   3.922  17.793  0.00  0.00    +0.000 OA
ATOM     24  C   UNL     1      48.786   6.034  18.761  0.00  0.00    +0.000 A 
ATOM     25  H   UNL     1      48.773   2.997  20.034  0.00  0.00    +0.000 HD
ENDBRANCH  12  15
ENDBRANCH  10  11
ENDBRANCH   3  10
BRANCH   6  26
ATOM     26  C   UNL     1      43.652   5.416  10.946  0.00  0.00    +0.000 C 
BRANCH  26  27
ATOM     27  N   UNL     1      44.008   4.756   9.678  0.00  0.00    +0.000 NA
ATOM     28  H   UNL     1      44.850   5.203   9.321  0.00  0.00    +0.000 HD
BRANCH  27  29
ATOM     29  C   UNL     1      44.260   3.327   9.856  0.00  0.00    +0.000 C 
BRANCH  29  30
ATOM     30  C   UNL     1      45.160   2.781   8.764  0.00  0.00    +0.000 A 
ATOM     31  C   UNL     1      45.511   1.422   8.730  0.00  0.00    +0.000 A 
ATOM     32  C   UNL     1      46.320   0.922   7.705  0.00  0.00    +0.000 A 
ATOM     33 CL   UNL     1      46.740  -0.748   7.687  0.00  0.00    +0.000 Cl
ATOM     34  C   UNL     1      46.788   1.758   6.694  0.00  0.00    +0.000 A 
ATOM     35  C   UNL     1      46.446   3.106   6.723  0.00  0.00    +0.000 A 
ATOM     36 CL   UNL     1      47.013   4.151   5.477  0.00  0.00    +0.000 Cl
ATOM     37  C   UNL     1      45.644   3.619   7.746  0.00  0.00    +0.000 A 
ENDBRANCH  29  30
ENDBRANCH  27  29
ENDBRANCH  26  27
ENDBRANCH   6  26
TORSDOF 9
ENDMDL
MODEL 8
REMARK VINA RESULT:    -6.691      4.281      8.764
REMARK INTER + INTRA:         -11.821
REMARK INTER:                  -9.302
REMARK INTRA:                  -2.519
REMARK UNBOUND:                -1.609
REMARK  Name = 
REMARK  10 active torsions:
REMARK  status: ('A' for Active; 'I' for Inactive)
REMARK    1  A    between atoms: C_1  and  C_2
REMARK    2  A    between atoms: C_2  and  O_3
REMARK    3  A    between atoms: O_3  and  C_4
REMARK    4  A    between atoms: C_6  and  C_7
REMARK    5  A    between atoms: C_7  and  N_8
REMARK    6  A    between atoms: C_9  and  C_11
REMARK    7  A    between atoms: C_23  and  C_24
REMARK    8  A    between atoms: C_24  and  N_25
REMARK    9  A    between atoms: N_25  and  C_26
REMARK   10  A    between atoms: C_26  and  C_27
REMARK                            x       y       z     vdW  Elec       q    Type
REMARK                         _______ _______ _______ _____ _____    ______ ____
ROOT
ATOM      1  C   UNL     1      50.306   4.752  18.588  0.00  0.00    +0.000 A 
ATOM      2  C   UNL     1      48.978   4.589  18.150  0.00  0.00    +0.000 A 
ATOM      3  C   UNL     1      48.584   3.506  17.353  0.00  0.00    +0.000 A 
ATOM      4  C   UNL     1      49.538   2.553  17.010  0.00  0.00    +0.000 A 
ATOM      5  C   UNL     1      50.858   2.685  17.456  0.00  0.00    +0.000 A 
ATOM      6  C   UNL     1      51.266   3.778  18.252  0.00  0.00    +0.000 A 
ENDROOT
BRANCH   1   7
ATOM      7  O   UNL     1      50.715   5.835  19.336  0.00  0.00    +0.000 OA
BRANCH   7   9
ATOM      8  C   UNL     1      50.708   8.228  19.707  0.00  0.00    +0.000 C 
ATOM      9  C   UNL     1      49.956   7.037  19.149  0.00  0.00    +0.000 C 
ENDBRANCH   7   9
ENDBRANCH   1   7
BRANCH   3  10
ATOM     10  C   UNL     1      47.142   3.391  16.926  0.00  0.00    +0.000 C 
BRANCH  10  11
ATOM     11  N   UNL     1      46.801   4.399  15.951  0.00  0.00    +0.000 N 
ATOM     12  C   UNL     1      46.918   4.150  14.606  0.00  0.00    +0.000 C 
ATOM     13  O   UNL     1      47.299   3.066  14.175  0.00  0.00    +0.000 OA
ATOM     14  H   UNL     1      46.719   5.355  16.278  0.00  0.00    +0.000 HD
BRANCH  12  15
ATOM     15  C   UNL     1      46.492   5.229  13.702  0.00  0.00    +0.000 A 
ATOM     16  C   UNL     1      47.344   6.303  13.471  0.00  0.00    +0.000 A 
ATOM     17  S   UNL     1      46.734   7.435  12.352  0.00  0.00    +0.000 S 
ATOM     18  C   UNL     1      45.284   6.562  12.175  0.00  0.00    +0.000 A 
ATOM     19  N   UNL     1      44.295   7.010  11.357  0.00  0.00    +0.000 NA
ATOM     20  C   UNL     1      43.241   6.263  11.337  0.00  0.00    +0.000 A 
ATOM     21  N   UNL     1      43.091   5.107  12.058  0.00  0.00    +0.000 N 
ATOM     22  C   UNL     1      44.073   4.604  12.881  0.00  0.00    +0.000 A 
ATOM     23  O   UNL     1      43.920   3.550  13.487  0.00  0.00    +0.000 OA
ATOM     24  C   UNL     1      45.276   5.411  12.946  0.00  0.00    +0.000 A 
ATOM     25  H   UNL     1      42.241   4.564  11.991  0.00  0.00    +0.000 HD
ENDBRANCH  12  15
ENDBRANCH  10  11
ENDBRANCH   3  10
BRANCH   6  26
ATOM     26  C   UNL     1      52.705   3.817  18.740  0.00  0.00    +0.000 C 
BRANCH  26  27
ATOM     27  N   UNL     1      53.334   5.124  18.485  0.00  0.00    +0.000 NA
ATOM     28  H   UNL     1      54.277   5.094  18.868  0.00  0.00    +0.000 HD
BRANCH  27  29
ATOM     29  C   UNL     1      53.403   5.430  17.058  0.00  0.00    +0.000 C 
BRANCH  29  30
ATOM     30  C   UNL     1      52.885   6.824  16.762  0.00  0.00    +0.000 A 
ATOM     31  C   UNL     1      53.516   7.958  17.300  0.00  0.00    +0.000 A 
ATOM     32  C   UNL     1      53.047   9.241  17.000  0.00  0.00    +0.000 A 
ATOM     33 CL   UNL     1      53.835  10.616  17.676  0.00  0.00    +0.000 Cl
ATOM     34  C   UNL     1      51.954   9.423  16.158  0.00  0.00    +0.000 A 
ATOM     35  C   UNL     1      51.323   8.304  15.623  0.00  0.00    +0.000 A 
ATOM     36 CL   UNL     1      49.972   8.513  14.575  0.00  0.00    +0.000 Cl
ATOM     37  C   UNL     1      51.777   7.016  15.921  0.00  0.00    +0.000 A 
ENDBRANCH  29  30
ENDBRANCH  27  29
ENDBRANCH  26  27
ENDBRANCH   6  26
TORSDOF 9
ENDMDL
MODEL 9
REMARK VINA RESULT:    -6.593      4.419      9.546
REMARK INTER + INTRA:         -11.671
REMARK INTER:                  -9.842
REMARK INTRA:                  -1.829
REMARK UNBOUND:                -1.609
REMARK  Name = 
REMARK  10 active torsions:
REMARK  status: ('A' for Active; 'I' for Inactive)
REMARK    1  A    between atoms: C_1  and  C_2
REMARK    2  A    between atoms: C_2  and  O_3
REMARK    3  A    between atoms: O_3  and  C_4
REMARK    4  A    between atoms: C_6  and  C_7
REMARK    5  A    between atoms: C_7  and  N_8
REMARK    6  A    between atoms: C_9  and  C_11
REMARK    7  A    between atoms: C_23  and  C_24
REMARK    8  A    between atoms: C_24  and  N_25
REMARK    9  A    between atoms: N_25  and  C_26
REMARK   10  A    between atoms: C_26  and  C_27
REMARK                            x       y       z     vdW  Elec       q    Type
REMARK                         _______ _______ _______ _____ _____    ______ ____
ROOT
ATOM      1  C   UNL     1      48.727   6.625  15.341  0.00  0.00    +0.000 A 
ATOM      2  C   UNL     1      48.190   6.654  14.039  0.00  0.00    +0.000 A 
ATOM      3  C   UNL     1      47.880   7.855  13.388  0.00  0.00    +0.000 A 
ATOM      4  C   UNL     1      48.139   9.053  14.046  0.00  0.00    +0.000 A 
ATOM      5  C   UNL     1      48.695   9.046  15.331  0.00  0.00    +0.000 A 
ATOM      6  C   UNL     1      49.002   7.840  15.999  0.00  0.00    +0.000 A 
ENDROOT
BRANCH   1   7
ATOM      7  O   UNL     1      48.996   5.450  16.008  0.00  0.00    +0.000 OA
BRANCH   7   9
ATOM      8  C   UNL     1      47.893   3.333  16.419  0.00  0.00    +0.000 C 
ATOM      9  C   UNL     1      47.872   4.830  16.648  0.00  0.00    +0.000 C 
ENDBRANCH   7   9
ENDBRANCH   1   7
BRANCH   3  10
ATOM     10  C   UNL     1      47.314   7.811  11.991  0.00  0.00    +0.000 C 
BRANCH  10  11
ATOM     11  N   UNL     1      46.691   6.538  11.716  0.00  0.00    +0.000 N 
ATOM     12  C   UNL     1      45.326   6.398  11.748  0.00  0.00    +0.000 C 
ATOM     13  O   UNL     1      44.580   7.341  11.993  0.00  0.00    +0.000 OA
ATOM     14  H   UNL     1      47.280   5.714  11.750  0.00  0.00    +0.000 HD
BRANCH  12  15
ATOM     15  C   UNL     1      44.797   5.071  11.401  0.00  0.00    +0.000 A 
ATOM     16  C   UNL     1      44.045   4.369  12.336  0.00  0.00    +0.000 A 
ATOM     17  S   UNL     1      43.451   2.878  11.759  0.00  0.00    +0.000 S 
ATOM     18  C   UNL     1      44.221   3.089  10.257  0.00  0.00    +0.000 A 
ATOM     19  N   UNL     1      44.132   2.140   9.287  0.00  0.00    +0.000 NA
ATOM     20  C   UNL     1      44.786   2.418   8.208  0.00  0.00    +0.000 A 
ATOM     21  N   UNL     1      45.515   3.561   8.011  0.00  0.00    +0.000 N 
ATOM     22  C   UNL     1      45.616   4.558   8.954  0.00  0.00    +0.000 A 
ATOM     23  O   UNL     1      46.251   5.582   8.735  0.00  0.00    +0.000 OA
ATOM     24  C   UNL     1      44.907   4.291  10.191  0.00  0.00    +0.000 A 
ATOM     25  H   UNL     1      45.998   3.720   7.137  0.00  0.00    +0.000 HD
ENDBRANCH  12  15
ENDBRANCH  10  11
ENDBRANCH   3  10
BRANCH   6  26
ATOM     26  C   UNL     1      49.654   7.921  17.369  0.00  0.00    +0.000 C 
BRANCH  26  27
ATOM     27  N   UNL     1      50.902   7.142  17.429  0.00  0.00    +0.000 NA
ATOM     28  H   UNL     1      51.679   7.795  17.345  0.00  0.00    +0.000 HD
BRANCH  27  29
ATOM     29  C   UNL     1      51.028   6.402  18.683  0.00  0.00    +0.000 C 
BRANCH  29  30
ATOM     30  C   UNL     1      51.856   5.144  18.506  0.00  0.00    +0.000 A 
ATOM     31  C   UNL     1      51.267   3.947  18.068  0.00  0.00    +0.000 A 
ATOM     32  C   UNL     1      52.043   2.799  17.883  0.00  0.00    +0.000 A 
ATOM     33 CL   UNL     1      51.296   1.342  17.349  0.00  0.00    +0.000 Cl
ATOM     34  C   UNL     1      53.415   2.819  18.120  0.00  0.00    +0.000 A 
ATOM     35  C   UNL     1      54.005   4.002  18.556  0.00  0.00    +0.000 A 
ATOM     36 CL   UNL     1      55.702   4.043  18.848  0.00  0.00    +0.000 Cl
ATOM     37  C   UNL     1      53.239   5.154  18.752  0.00  0.00    +0.000 A 
ENDBRANCH  29  30
ENDBRANCH  27  29
ENDBRANCH  26  27
ENDBRANCH   6  26
TORSDOF 9
ENDMDL
