MODEL 1
REMARK VINA RESULT:    -8.871      0.000      0.000
REMARK INTER + INTRA:         -12.522
REMARK INTER:                 -11.982
REMARK INTRA:                  -0.540
REMARK UNBOUND:                -0.540
REMARK  Name = 
REMARK  6 active torsions:
REMARK  status: ('A' for Active; 'I' for Inactive)
REMARK    1  A    between atoms: C_2  and  C_4
REMARK    2  A    between atoms: N_8  and  C_9
REMARK    3  A    between atoms: C_9  and  C_10
REMARK    4  A    between atoms: C_10  and  C_11
REMARK    5  A    between atoms: C_15  and  N_16
REMARK    6  A    between atoms: N_16  and  C_17
REMARK                            x       y       z     vdW  Elec       q    Type
REMARK                         _______ _______ _______ _____ _____    ______ ____
ROOT
ATOM      1  C   UNL     1      43.173   4.606  10.985  0.00  0.00    +0.000 C 
ENDROOT
BRANCH   1   6
ATOM      2  C   UNL     1      46.493   2.471   7.715  0.00  0.00    +0.000 A 
ATOM      3  C   UNL     1      45.733   1.924   8.741  0.00  0.00    +0.000 A 
ATOM      4  C   UNL     1      44.908   2.760   9.492  0.00  0.00    +0.000 A 
ATOM      5  C   UNL     1      44.858   4.124   9.216  0.00  0.00    +0.000 A 
ATOM      6  N   UNL     1      44.053   4.995   9.903  0.00  0.00    +0.000 N 
ATOM      7  N   UNL     1      45.602   4.666   8.236  0.00  0.00    +0.000 NA
ATOM      8  C   UNL     1      46.410   3.838   7.511  0.00  0.00    +0.000 A 
ATOM      9  H   UNL     1      44.153   5.963   9.621  0.00  0.00    +0.000 HD
BRANCH   2  11
ATOM     10  N   UNL     1      48.488   2.281   6.343  0.00  0.00    +0.000 N 
ATOM     11  C   UNL     1      47.382   1.659   6.863  0.00  0.00    +0.000 C 
ATOM     12  O   UNL     1      47.173   0.469   6.660  0.00  0.00    +0.000 OA
ATOM     13  H   UNL     1      49.146   1.691   5.850  0.00  0.00    +0.000 HD
ATOM     14  H   UNL     1      48.824   3.174   6.683  0.00  0.00    +0.000 HD
ENDBRANCH   2  11
ENDBRANCH   1   6
BRANCH   1  15
ATOM     15  C   UNL     1      43.263   5.572  12.166  0.00  0.00    +0.000 C 
BRANCH  15  16
ATOM     16  C   UNL     1      44.678   5.670  12.689  0.00  0.00    +0.000 A 
ATOM     17  C   UNL     1      45.527   6.691  12.244  0.00  0.00    +0.000 A 
ATOM     18  C   UNL     1      46.845   6.755  12.694  0.00  0.00    +0.000 A 
ATOM     19  C   UNL     1      47.337   5.793  13.581  0.00  0.00    +0.000 A 
ATOM     20  C   UNL     1      46.514   4.759  14.032  0.00  0.00    +0.000 A 
ATOM     21  C   UNL     1      45.183   4.717  13.588  0.00  0.00    +0.000 A 
BRANCH  20  22
ATOM     22  N   UNL     1      46.945   3.772  14.945  0.00  0.00    +0.000 N 
ATOM     23  H   UNL     1      46.183   3.114  15.113  0.00  0.00    +0.000 HD
BRANCH  22  24
ATOM     24  C   UNL     1      47.751   3.998  16.118  0.00  0.00    +0.000 C 
ATOM     25  C   UNL     1      48.163   2.681  16.811  0.00  0.00    +0.000 C 
ATOM     26  N   UNL     1      47.743   3.236  18.110  0.00  0.00    +0.000 NA
ATOM     27  C   UNL     1      46.994   4.305  17.421  0.00  0.00    +0.000 C 
ATOM     28  H   UNL     1      48.522   3.578  18.673  0.00  0.00    +0.000 HD
ENDBRANCH  22  24
ENDBRANCH  20  22
ENDBRANCH  15  16
ENDBRANCH   1  15
TORSDOF 6
ENDMDL
MODEL 2
REMARK VINA RESULT:    -7.744      3.134      4.800
REMARK INTER + INTRA:         -11.000
REMARK INTER:                 -10.331
REMARK INTRA:                  -0.669
REMARK UNBOUND:                -0.540
REMARK  Name = 
REMARK  6 active torsions:
REMARK  status: ('A' for Active; 'I' for Inactive)
REMARK    1  A    between atoms: C_2  and  C_4
REMARK    2  A    between atoms: N_8  and  C_9
REMARK    3  A    between atoms: C_9  and  C_10
REMARK    4  A    between atoms: C_10  and  C_11
REMARK    5  A    between atoms: C_15  and  N_16
REMARK    6  A    between atoms: N_16  and  C_17
REMARK                            x       y       z     vdW  Elec       q    Type
REMARK                         _______ _______ _______ _____ _____    ______ ____
ROOT
ATOM      1  C   UNL     1      43.424   4.431  11.219  0.00  0.00    +0.000 C 
ENDROOT
BRANCH   1   6
ATOM      2  C   UNL     1      46.506   2.690   7.510  0.00  0.00    +0.000 A 
ATOM      3  C   UNL     1      46.173   3.982   7.898  0.00  0.00    +0.000 A 
ATOM      4  C   UNL     1      45.281   4.163   8.955  0.00  0.00    +0.000 A 
ATOM      5  C   UNL     1      44.730   3.060   9.601  0.00  0.00    +0.000 A 
ATOM      6  N   UNL     1      43.864   3.170  10.658  0.00  0.00    +0.000 N 
ATOM      7  N   UNL     1      45.032   1.805   9.222  0.00  0.00    +0.000 NA
ATOM      8  C   UNL     1      45.902   1.641   8.184  0.00  0.00    +0.000 A 
ATOM      9  H   UNL     1      43.511   2.284  11.000  0.00  0.00    +0.000 HD
BRANCH   2  11
ATOM     10  N   UNL     1      47.315   3.146   5.267  0.00  0.00    +0.000 N 
ATOM     11  C   UNL     1      47.450   2.406   6.413  0.00  0.00    +0.000 C 
ATOM     12  O   UNL     1      48.345   1.578   6.530  0.00  0.00    +0.000 OA
ATOM     13  H   UNL     1      48.031   3.019   4.563  0.00  0.00    +0.000 HD
ATOM     14  H   UNL     1      46.762   3.992   5.224  0.00  0.00    +0.000 HD
ENDBRANCH   2  11
ENDBRANCH   1   6
BRANCH   1  15
ATOM     15  C   UNL     1      44.163   4.766  12.513  0.00  0.00    +0.000 C 
BRANCH  15  16
ATOM     16  C   UNL     1      45.072   5.961  12.334  0.00  0.00    +0.000 A 
ATOM     17  C   UNL     1      46.406   5.784  11.951  0.00  0.00    +0.000 A 
ATOM     18  C   UNL     1      47.254   6.884  11.827  0.00  0.00    +0.000 A 
ATOM     19  C   UNL     1      46.785   8.172  12.099  0.00  0.00    +0.000 A 
ATOM     20  C   UNL     1      45.460   8.375  12.491  0.00  0.00    +0.000 A 
ATOM     21  C   UNL     1      44.611   7.262  12.593  0.00  0.00    +0.000 A 
BRANCH  20  22
ATOM     22  N   UNL     1      44.922   9.653  12.757  0.00  0.00    +0.000 N 
ATOM     23  H   UNL     1      44.519   9.660  13.695  0.00  0.00    +0.000 HD
BRANCH  22  24
ATOM     24  C   UNL     1      44.179  10.468  11.829  0.00  0.00    +0.000 C 
ATOM     25  C   UNL     1      43.582   9.641  10.669  0.00  0.00    +0.000 C 
ATOM     26  N   UNL     1      44.103  10.626   9.703  0.00  0.00    +0.000 NA
ATOM     27  C   UNL     1      44.995  11.183  10.739  0.00  0.00    +0.000 C 
ATOM     28  H   UNL     1      43.395  11.283   9.376  0.00  0.00    +0.000 HD
ENDBRANCH  22  24
ENDBRANCH  20  22
ENDBRANCH  15  16
ENDBRANCH   1  15
TORSDOF 6
ENDMDL
MODEL 3
REMARK VINA RESULT:    -7.528      2.766      7.661
REMARK INTER + INTRA:         -10.708
REMARK INTER:                 -10.146
REMARK INTRA:                  -0.562
REMARK UNBOUND:                -0.540
REMARK  Name = 
REMARK  6 active torsions:
REMARK  status: ('A' for Active; 'I' for Inactive)
REMARK    1  A    between atoms: C_2  and  C_4
REMARK    2  A    between atoms: N_8  and  C_9
REMARK    3  A    between atoms: C_9  and  C_10
REMARK    4  A    between atoms: C_10  and  C_11
REMARK    5  A    between atoms: C_15  and  N_16
REMARK    6  A    between atoms: N_16  and  C_17
REMARK                            x       y       z     vdW  Elec       q    Type
REMARK                         _______ _______ _______ _____ _____    ______ ____
ROOT
ATOM      1  C   UNL     1      46.990   6.548  11.218  0.00  0.00    +0.000 C 
ENDROOT
BRANCH   1   6
ATOM      2  C   UNL     1      47.504   4.083  15.684  0.00  0.00    +0.000 A 
ATOM      3  C   UNL     1      47.042   3.655  14.445  0.00  0.00    +0.000 A 
ATOM      4  C   UNL     1      46.999   4.563  13.388  0.00  0.00    +0.000 A 
ATOM      5  C   UNL     1      47.409   5.880  13.580  0.00  0.00    +0.000 A 
ATOM      6  N   UNL     1      47.410   6.815  12.578  0.00  0.00    +0.000 N 
ATOM      7  N   UNL     1      47.841   6.309  14.779  0.00  0.00    +0.000 NA
ATOM      8  C   UNL     1      47.874   5.412  15.808  0.00  0.00    +0.000 A 
ATOM      9  H   UNL     1      47.693   7.742  12.875  0.00  0.00    +0.000 HD
BRANCH   2  11
ATOM     10  N   UNL     1      48.843   2.736  17.197  0.00  0.00    +0.000 N 
ATOM     11  C   UNL     1      47.595   3.188  16.852  0.00  0.00    +0.000 C 
ATOM     12  O   UNL     1      46.610   2.893  17.517  0.00  0.00    +0.000 OA
ATOM     13  H   UNL     1      48.908   2.212  18.060  0.00  0.00    +0.000 HD
ATOM     14  H   UNL     1      49.693   3.148  16.834  0.00  0.00    +0.000 HD
ENDBRANCH   2  11
ENDBRANCH   1   6
BRANCH   1  15
ATOM     15  C   UNL     1      45.472   6.408  11.110  0.00  0.00    +0.000 C 
BRANCH  15  16
ATOM     16  C   UNL     1      45.086   5.108  10.443  0.00  0.00    +0.000 A 
ATOM     17  C   UNL     1      44.294   4.173  11.120  0.00  0.00    +0.000 A 
ATOM     18  C   UNL     1      43.974   2.957  10.519  0.00  0.00    +0.000 A 
ATOM     19  C   UNL     1      44.456   2.650   9.243  0.00  0.00    +0.000 A 
ATOM     20  C   UNL     1      45.256   3.561   8.550  0.00  0.00    +0.000 A 
ATOM     21  C   UNL     1      45.554   4.791   9.157  0.00  0.00    +0.000 A 
BRANCH  20  22
ATOM     22  N   UNL     1      45.752   3.319   7.250  0.00  0.00    +0.000 N 
ATOM     23  H   UNL     1      45.130   2.669   6.769  0.00  0.00    +0.000 HD
BRANCH  22  24
ATOM     24  C   UNL     1      47.135   3.129   6.895  0.00  0.00    +0.000 C 
ATOM     25  C   UNL     1      47.319   2.823   5.391  0.00  0.00    +0.000 C 
ATOM     26  N   UNL     1      48.198   1.690   5.732  0.00  0.00    +0.000 NA
ATOM     27  C   UNL     1      47.716   1.723   7.127  0.00  0.00    +0.000 C 
ATOM     28  H   UNL     1      49.190   1.906   5.636  0.00  0.00    +0.000 HD
ENDBRANCH  22  24
ENDBRANCH  20  22
ENDBRANCH  15  16
ENDBRANCH   1  15
TORSDOF 6
ENDMDL
MODEL 4
REMARK VINA RESULT:    -7.218      2.393      2.944
REMARK INTER + INTRA:         -10.290
REMARK INTER:                  -9.460
REMARK INTRA:                  -0.830
REMARK UNBOUND:                -0.540
REMARK  Name = 
REMARK  6 active torsions:
REMARK  status: ('A' for Active; 'I' for Inactive)
REMARK    1  A    between atoms: C_2  and  C_4
REMARK    2  A    between atoms: N_8  and  C_9
REMARK    3  A    between atoms: C_9  and  C_10
REMARK    4  A    between atoms: C_10  and  C_11
REMARK    5  A    between atoms: C_15  and  N_16
REMARK    6  A    between atoms: N_16  and  C_17
REMARK                            x       y       z     vdW  Elec       q    Type
REMARK                         _______ _______ _______ _____ _____    ______ ____
ROOT
ATOM      1  C   UNL     1      43.108   4.483  11.592  0.00  0.00    +0.000 C 
ENDROOT
BRANCH   1   6
ATOM      2  C   UNL     1      46.062   2.737   7.783  0.00  0.00    +0.000 A 
ATOM      3  C   UNL     1      45.736   4.030   8.175  0.00  0.00    +0.000 A 
ATOM      4  C   UNL     1      44.882   4.212   9.263  0.00  0.00    +0.000 A 
ATOM      5  C   UNL     1      44.362   3.111   9.936  0.00  0.00    +0.000 A 
ATOM      6  N   UNL     1      43.535   3.222  11.023  0.00  0.00    +0.000 N 
ATOM      7  N   UNL     1      44.657   1.855   9.554  0.00  0.00    +0.000 NA
ATOM      8  C   UNL     1      45.490   1.689   8.485  0.00  0.00    +0.000 A 
ATOM      9  H   UNL     1      43.200   2.336  11.384  0.00  0.00    +0.000 HD
BRANCH   2  11
ATOM     10  N   UNL     1      47.196   3.471   5.765  0.00  0.00    +0.000 N 
ATOM     11  C   UNL     1      46.966   2.452   6.654  0.00  0.00    +0.000 C 
ATOM     12  O   UNL     1      47.526   1.369   6.533  0.00  0.00    +0.000 OA
ATOM     13  H   UNL     1      47.898   3.299   5.057  0.00  0.00    +0.000 HD
ATOM     14  H   UNL     1      46.957   4.434   5.964  0.00  0.00    +0.000 HD
ENDBRANCH   2  11
ENDBRANCH   1   6
BRANCH   1  15
ATOM     15  C   UNL     1      43.983   4.899  12.774  0.00  0.00    +0.000 C 
BRANCH  15  16
ATOM     16  C   UNL     1      44.654   6.229  12.520  0.00  0.00    +0.000 A 
ATOM     17  C   UNL     1      44.107   7.133  11.602  0.00  0.00    +0.000 A 
ATOM     18  C   UNL     1      44.750   8.341  11.338  0.00  0.00    +0.000 A 
ATOM     19  C   UNL     1      45.955   8.655  11.974  0.00  0.00    +0.000 A 
ATOM     20  C   UNL     1      46.526   7.767  12.887  0.00  0.00    +0.000 A 
ATOM     21  C   UNL     1      45.859   6.563  13.161  0.00  0.00    +0.000 A 
BRANCH  20  22
ATOM     22  N   UNL     1      47.727   8.038  13.579  0.00  0.00    +0.000 N 
ATOM     23  H   UNL     1      48.031   8.988  13.364  0.00  0.00    +0.000 HD
BRANCH  22  24
ATOM     24  C   UNL     1      48.830   7.127  13.747  0.00  0.00    +0.000 C 
ATOM     25  C   UNL     1      49.043   6.728  15.225  0.00  0.00    +0.000 C 
ATOM     26  N   UNL     1      50.484   7.009  15.090  0.00  0.00    +0.000 NA
ATOM     27  C   UNL     1      50.231   7.756  13.841  0.00  0.00    +0.000 C 
ATOM     28  H   UNL     1      51.048   6.170  14.958  0.00  0.00    +0.000 HD
ENDBRANCH  22  24
ENDBRANCH  20  22
ENDBRANCH  15  16
ENDBRANCH   1  15
TORSDOF 6
ENDMDL
MODEL 5
REMARK VINA RESULT:    -6.969      3.032      7.383
REMARK INTER + INTRA:          -9.954
REMARK INTER:                  -9.561
REMARK INTRA:                  -0.393
REMARK UNBOUND:                -0.540
REMARK  Name = 
REMARK  6 active torsions:
REMARK  status: ('A' for Active; 'I' for Inactive)
REMARK    1  A    between atoms: C_2  and  C_4
REMARK    2  A    between atoms: N_8  and  C_9
REMARK    3  A    between atoms: C_9  and  C_10
REMARK    4  A    between atoms: C_10  and  C_11
REMARK    5  A    between atoms: C_15  and  N_16
REMARK    6  A    between atoms: N_16  and  C_17
REMARK                            x       y       z     vdW  Elec       q    Type
REMARK                         _______ _______ _______ _____ _____    ______ ____
ROOT
ATOM      1  C   UNL     1      47.292   6.773  11.831  0.00  0.00    +0.000 C 
ENDROOT
BRANCH   1   6
ATOM      2  C   UNL     1      47.878   4.498  16.387  0.00  0.00    +0.000 A 
ATOM      3  C   UNL     1      47.130   4.142  15.272  0.00  0.00    +0.000 A 
ATOM      4  C   UNL     1      47.149   4.972  14.151  0.00  0.00    +0.000 A 
ATOM      5  C   UNL     1      47.902   6.143  14.161  0.00  0.00    +0.000 A 
ATOM      6  N   UNL     1      47.978   6.991  13.087  0.00  0.00    +0.000 N 
ATOM      7  N   UNL     1      48.615   6.505  15.242  0.00  0.00    +0.000 NA
ATOM      8  C   UNL     1      48.586   5.688  16.335  0.00  0.00    +0.000 A 
ATOM      9  H   UNL     1      48.530   7.825  13.253  0.00  0.00    +0.000 HD
BRANCH   2  11
ATOM     10  N   UNL     1      46.959   2.713  17.753  0.00  0.00    +0.000 N 
ATOM     11  C   UNL     1      47.926   3.674  17.609  0.00  0.00    +0.000 C 
ATOM     12  O   UNL     1      48.815   3.806  18.442  0.00  0.00    +0.000 OA
ATOM     13  H   UNL     1      47.063   2.084  18.539  0.00  0.00    +0.000 HD
ATOM     14  H   UNL     1      46.370   2.411  16.988  0.00  0.00    +0.000 HD
ENDBRANCH   2  11
ENDBRANCH   1   6
BRANCH   1  15
ATOM     15  C   UNL     1      45.814   7.153  11.918  0.00  0.00    +0.000 C 
BRANCH  15  16
ATOM     16  C   UNL     1      44.932   5.925  11.949  0.00  0.00    +0.000 A 
ATOM     17  C   UNL     1      43.798   5.890  12.768  0.00  0.00    +0.000 A 
ATOM     18  C   UNL     1      43.009   4.742  12.827  0.00  0.00    +0.000 A 
ATOM     19  C   UNL     1      43.352   3.609  12.084  0.00  0.00    +0.000 A 
ATOM     20  C   UNL     1      44.484   3.615  11.267  0.00  0.00    +0.000 A 
ATOM     21  C   UNL     1      45.259   4.783  11.199  0.00  0.00    +0.000 A 
BRANCH  20  22
ATOM     22  N   UNL     1      44.869   2.510  10.475  0.00  0.00    +0.000 N 
ATOM     23  H   UNL     1      45.786   2.181  10.782  0.00  0.00    +0.000 HD
BRANCH  22  24
ATOM     24  C   UNL     1      44.682   2.383   9.053  0.00  0.00    +0.000 C 
ATOM     25  C   UNL     1      45.963   1.912   8.330  0.00  0.00    +0.000 C 
ATOM     26  N   UNL     1      45.795   2.986   7.335  0.00  0.00    +0.000 NA
ATOM     27  C   UNL     1      44.833   3.670   8.223  0.00  0.00    +0.000 C 
ATOM     28  H   UNL     1      45.385   2.663   6.459  0.00  0.00    +0.000 HD
ENDBRANCH  22  24
ENDBRANCH  20  22
ENDBRANCH  15  16
ENDBRANCH   1  15
TORSDOF 6
ENDMDL
MODEL 6
REMARK VINA RESULT:    -6.887      3.493      7.395
REMARK INTER + INTRA:          -9.843
REMARK INTER:                  -9.487
REMARK INTRA:                  -0.356
REMARK UNBOUND:                -0.540
REMARK  Name = 
REMARK  6 active torsions:
REMARK  status: ('A' for Active; 'I' for Inactive)
REMARK    1  A    between atoms: C_2  and  C_4
REMARK    2  A    between atoms: N_8  and  C_9
REMARK    3  A    between atoms: C_9  and  C_10
REMARK    4  A    between atoms: C_10  and  C_11
REMARK    5  A    between atoms: C_15  and  N_16
REMARK    6  A    between atoms: N_16  and  C_17
REMARK                            x       y       z     vdW  Elec       q    Type
REMARK                         _______ _______ _______ _____ _____    ______ ____
ROOT
ATOM      1  C   UNL     1      44.302   5.771  12.569  0.00  0.00    +0.000 C 
ENDROOT
BRANCH   1   6
ATOM      2  C   UNL     1      48.938   7.957  12.485  0.00  0.00    +0.000 A 
ATOM      3  C   UNL     1      47.684   8.448  12.144  0.00  0.00    +0.000 A 
ATOM      4  C   UNL     1      46.575   7.610  12.256  0.00  0.00    +0.000 A 
ATOM      5  C   UNL     1      46.732   6.299  12.697  0.00  0.00    +0.000 A 
ATOM      6  N   UNL     1      45.681   5.432  12.848  0.00  0.00    +0.000 N 
ATOM      7  N   UNL     1      47.944   5.809  13.014  0.00  0.00    +0.000 NA
ATOM      8  C   UNL     1      49.022   6.637  12.895  0.00  0.00    +0.000 A 
ATOM      9  H   UNL     1      45.951   4.498  13.136  0.00  0.00    +0.000 HD
BRANCH   2  11
ATOM     10  N   UNL     1      51.359   8.128  12.574  0.00  0.00    +0.000 N 
ATOM     11  C   UNL     1      50.162   8.777  12.410  0.00  0.00    +0.000 C 
ATOM     12  O   UNL     1      50.121   9.977  12.166  0.00  0.00    +0.000 OA
ATOM     13  H   UNL     1      52.193   8.678  12.415  0.00  0.00    +0.000 HD
ATOM     14  H   UNL     1      51.446   7.121  12.529  0.00  0.00    +0.000 HD
ENDBRANCH   2  11
ENDBRANCH   1   6
BRANCH   1  15
ATOM     15  C   UNL     1      44.041   5.899  11.068  0.00  0.00    +0.000 C 
BRANCH  15  16
ATOM     16  C   UNL     1      44.236   4.576  10.363  0.00  0.00    +0.000 A 
ATOM     17  C   UNL     1      43.830   3.383  10.972  0.00  0.00    +0.000 A 
ATOM     18  C   UNL     1      44.049   2.160  10.339  0.00  0.00    +0.000 A 
ATOM     19  C   UNL     1      44.690   2.112   9.098  0.00  0.00    +0.000 A 
ATOM     20  C   UNL     1      45.113   3.286   8.473  0.00  0.00    +0.000 A 
ATOM     21  C   UNL     1      44.869   4.513   9.111  0.00  0.00    +0.000 A 
BRANCH  20  22
ATOM     22  N   UNL     1      45.745   3.304   7.210  0.00  0.00    +0.000 N 
ATOM     23  H   UNL     1      45.149   2.830   6.530  0.00  0.00    +0.000 HD
BRANCH  22  24
ATOM     24  C   UNL     1      47.148   3.089   6.962  0.00  0.00    +0.000 C 
ATOM     25  C   UNL     1      47.451   2.859   5.465  0.00  0.00    +0.000 C 
ATOM     26  N   UNL     1      48.268   1.682   5.814  0.00  0.00    +0.000 NA
ATOM     27  C   UNL     1      47.668   1.656   7.164  0.00  0.00    +0.000 C 
ATOM     28  H   UNL     1      49.270   1.872   5.815  0.00  0.00    +0.000 HD
ENDBRANCH  22  24
ENDBRANCH  20  22
ENDBRANCH  15  16
ENDBRANCH   1  15
TORSDOF 6
ENDMDL
MODEL 7
REMARK VINA RESULT:    -6.640      2.928      4.457
REMARK INTER + INTRA:          -9.508
REMARK INTER:                  -8.812
REMARK INTRA:                  -0.697
REMARK UNBOUND:                -0.540
REMARK  Name = 
REMARK  6 active torsions:
REMARK  status: ('A' for Active; 'I' for Inactive)
REMARK    1  A    between atoms: C_2  and  C_4
REMARK    2  A    between atoms: N_8  and  C_9
REMARK    3  A    between atoms: C_9  and  C_10
REMARK    4  A    between atoms: C_10  and  C_11
REMARK    5  A    between atoms: C_15  and  N_16
REMARK    6  A    between atoms: N_16  and  C_17
REMARK                            x       y       z     vdW  Elec       q    Type
REMARK                         _______ _______ _______ _____ _____    ______ ____
ROOT
ATOM      1  C   UNL     1      46.850   8.502  12.659  0.00  0.00    +0.000 C 
ENDROOT
BRANCH   1   6
ATOM      2  C   UNL     1      44.439   4.130  11.496  0.00  0.00    +0.000 A 
ATOM      3  C   UNL     1      45.333   4.909  10.770  0.00  0.00    +0.000 A 
ATOM      4  C   UNL     1      45.831   6.078  11.342  0.00  0.00    +0.000 A 
ATOM      5  C   UNL     1      45.428   6.458  12.619  0.00  0.00    +0.000 A 
ATOM      6  N   UNL     1      45.895   7.585  13.245  0.00  0.00    +0.000 N 
ATOM      7  N   UNL     1      44.550   5.721  13.323  0.00  0.00    +0.000 NA
ATOM      8  C   UNL     1      44.066   4.581  12.751  0.00  0.00    +0.000 A 
ATOM      9  H   UNL     1      45.482   7.757  14.154  0.00  0.00    +0.000 HD
BRANCH   2  11
ATOM     10  N   UNL     1      44.518   2.290   9.914  0.00  0.00    +0.000 N 
ATOM     11  C   UNL     1      43.873   2.872  10.974  0.00  0.00    +0.000 C 
ATOM     12  O   UNL     1      42.896   2.342  11.488  0.00  0.00    +0.000 OA
ATOM     13  H   UNL     1      44.186   1.376   9.633  0.00  0.00    +0.000 HD
ATOM     14  H   UNL     1      45.451   2.557   9.627  0.00  0.00    +0.000 HD
ENDBRANCH   2  11
ENDBRANCH   1   6
BRANCH   1  15
ATOM     15  C   UNL     1      48.286   8.149  13.041  0.00  0.00    +0.000 C 
BRANCH  15  16
ATOM     16  C   UNL     1      48.423   7.943  14.533  0.00  0.00    +0.000 A 
ATOM     17  C   UNL     1      48.237   9.014  15.415  0.00  0.00    +0.000 A 
ATOM     18  C   UNL     1      48.404   8.832  16.787  0.00  0.00    +0.000 A 
ATOM     19  C   UNL     1      48.776   7.583  17.294  0.00  0.00    +0.000 A 
ATOM     20  C   UNL     1      48.977   6.501  16.435  0.00  0.00    +0.000 A 
ATOM     21  C   UNL     1      48.785   6.691  15.058  0.00  0.00    +0.000 A 
BRANCH  20  22
ATOM     22  N   UNL     1      49.329   5.211  16.889  0.00  0.00    +0.000 N 
ATOM     23  H   UNL     1      49.779   4.699  16.129  0.00  0.00    +0.000 HD
BRANCH  22  24
ATOM     24  C   UNL     1      48.526   4.361  17.731  0.00  0.00    +0.000 C 
ATOM     25  C   UNL     1      48.161   3.028  17.042  0.00  0.00    +0.000 C 
ATOM     26  N   UNL     1      46.753   3.210  17.440  0.00  0.00    +0.000 NA
ATOM     27  C   UNL     1      47.012   4.634  17.735  0.00  0.00    +0.000 C 
ATOM     28  H   UNL     1      46.492   2.663  18.261  0.00  0.00    +0.000 HD
ENDBRANCH  22  24
ENDBRANCH  20  22
ENDBRANCH  15  16
ENDBRANCH   1  15
TORSDOF 6
ENDMDL
MODEL 8
REMARK VINA RESULT:    -6.584      2.835      5.090
REMARK INTER + INTRA:          -9.433
REMARK INTER:                  -9.103
REMARK INTRA:                  -0.330
REMARK UNBOUND:                -0.540
REMARK  Name = 
REMARK  6 active torsions:
REMARK  status: ('A' for Active; 'I' for Inactive)
REMARK    1  A    between atoms: C_2  and  C_4
REMARK    2  A    between atoms: N_8  and  C_9
REMARK    3  A    between atoms: C_9  and  C_10
REMARK    4  A    between atoms: C_10  and  C_11
REMARK    5  A    between atoms: C_15  and  N_16
REMARK    6  A    between atoms: N_16  and  C_17
REMARK                            x       y       z     vdW  Elec       q    Type
REMARK                         _______ _______ _______ _____ _____    ______ ____
ROOT
ATOM      1  C   UNL     1      48.244   7.413  13.979  0.00  0.00    +0.000 C 
ENDROOT
BRANCH   1   6
ATOM      2  C   UNL     1      45.006   4.589  11.183  0.00  0.00    +0.000 A 
ATOM      3  C   UNL     1      45.766   5.706  10.859  0.00  0.00    +0.000 A 
ATOM      4  C   UNL     1      46.565   6.289  11.843  0.00  0.00    +0.000 A 
ATOM      5  C   UNL     1      46.589   5.757  13.129  0.00  0.00    +0.000 A 
ATOM      6  N   UNL     1      47.367   6.271  14.134  0.00  0.00    +0.000 N 
ATOM      7  N   UNL     1      45.843   4.687  13.457  0.00  0.00    +0.000 NA
ATOM      8  C   UNL     1      45.062   4.128  12.488  0.00  0.00    +0.000 A 
ATOM      9  H   UNL     1      47.249   5.808  15.028  0.00  0.00    +0.000 HD
BRANCH   2  11
ATOM     10  N   UNL     1      44.081   4.439   8.942  0.00  0.00    +0.000 N 
ATOM     11  C   UNL     1      44.144   3.902  10.203  0.00  0.00    +0.000 C 
ATOM     12  O   UNL     1      43.542   2.872  10.482  0.00  0.00    +0.000 OA
ATOM     13  H   UNL     1      43.574   3.902   8.250  0.00  0.00    +0.000 HD
ATOM     14  H   UNL     1      44.742   5.127   8.607  0.00  0.00    +0.000 HD
ENDBRANCH   2  11
ENDBRANCH   1   6
BRANCH   1  15
ATOM     15  C   UNL     1      48.670   7.988  15.329  0.00  0.00    +0.000 C 
BRANCH  15  16
ATOM     16  C   UNL     1      49.690   7.101  16.007  0.00  0.00    +0.000 A 
ATOM     17  C   UNL     1      51.056   7.272  15.753  0.00  0.00    +0.000 A 
ATOM     18  C   UNL     1      51.992   6.426  16.346  0.00  0.00    +0.000 A 
ATOM     19  C   UNL     1      51.576   5.389  17.186  0.00  0.00    +0.000 A 
ATOM     20  C   UNL     1      50.219   5.192  17.448  0.00  0.00    +0.000 A 
ATOM     21  C   UNL     1      49.287   6.062  16.862  0.00  0.00    +0.000 A 
BRANCH  20  22
ATOM     22  N   UNL     1      49.738   4.178  18.306  0.00  0.00    +0.000 N 
ATOM     23  H   UNL     1      50.301   4.164  19.157  0.00  0.00    +0.000 HD
BRANCH  22  24
ATOM     24  C   UNL     1      49.309   2.862  17.904  0.00  0.00    +0.000 C 
ATOM     25  C   UNL     1      50.409   2.093  17.138  0.00  0.00    +0.000 C 
ATOM     26  N   UNL     1      49.430   1.735  16.096  0.00  0.00    +0.000 NA
ATOM     27  C   UNL     1      48.506   2.774  16.594  0.00  0.00    +0.000 C 
ATOM     28  H   UNL     1      49.069   0.786  16.192  0.00  0.00    +0.000 HD
ENDBRANCH  22  24
ENDBRANCH  20  22
ENDBRANCH  15  16
ENDBRANCH   1  15
TORSDOF 6
ENDMDL
MODEL 9
REMARK VINA RESULT:    -6.421      2.926      3.909
REMARK INTER + INTRA:          -9.213
REMARK INTER:                  -8.065
REMARK INTRA:                  -1.147
REMARK UNBOUND:                -0.540
REMARK  Name = 
REMARK  6 active torsions:
REMARK  status: ('A' for Active; 'I' for Inactive)
REMARK    1  A    between atoms: C_2  and  C_4
REMARK    2  A    between atoms: N_8  and  C_9
REMARK    3  A    between atoms: C_9  and  C_10
REMARK    4  A    between atoms: C_10  and  C_11
REMARK    5  A    between atoms: C_15  and  N_16
REMARK    6  A    between atoms: N_16  and  C_17
REMARK                            x       y       z     vdW  Elec       q    Type
REMARK                         _______ _______ _______ _____ _____    ______ ____
ROOT
ATOM      1  C   UNL     1      45.160   9.205  11.240  0.00  0.00    +0.000 C 
ENDROOT
BRANCH   1   6
ATOM      2  C   UNL     1      43.957   4.229  10.979  0.00  0.00    +0.000 A 
ATOM      3  C   UNL     1      45.106   4.918  10.611  0.00  0.00    +0.000 A 
ATOM      4  C   UNL     1      45.153   6.300  10.788  0.00  0.00    +0.000 A 
ATOM      5  C   UNL     1      44.057   6.974  11.319  0.00  0.00    +0.000 A 
ATOM      6  N   UNL     1      44.047   8.328  11.536  0.00  0.00    +0.000 N 
ATOM      7  N   UNL     1      42.933   6.320  11.662  0.00  0.00    +0.000 NA
ATOM      8  C   UNL     1      42.897   4.968  11.480  0.00  0.00    +0.000 A 
ATOM      9  H   UNL     1      43.166   8.686  11.887  0.00  0.00    +0.000 HD
BRANCH   2  11
ATOM     10  N   UNL     1      44.675   2.144   9.962  0.00  0.00    +0.000 N 
ATOM     11  C   UNL     1      43.825   2.767  10.840  0.00  0.00    +0.000 C 
ATOM     12  O   UNL     1      43.025   2.124  11.508  0.00  0.00    +0.000 OA
ATOM     13  H   UNL     1      44.650   1.133   9.953  0.00  0.00    +0.000 HD
ATOM     14  H   UNL     1      45.500   2.595   9.587  0.00  0.00    +0.000 HD
ENDBRANCH   2  11
ENDBRANCH   1   6
BRANCH   1  15
ATOM     15  C   UNL     1      45.907   9.622  12.507  0.00  0.00    +0.000 C 
BRANCH  15  16
ATOM     16  C   UNL     1      47.023   8.654  12.829  0.00  0.00    +0.000 A 
ATOM     17  C   UNL     1      47.949   8.289  11.845  0.00  0.00    +0.000 A 
ATOM     18  C   UNL     1      48.952   7.365  12.132  0.00  0.00    +0.000 A 
ATOM     19  C   UNL     1      49.033   6.780  13.399  0.00  0.00    +0.000 A 
ATOM     20  C   UNL     1      48.116   7.120  14.395  0.00  0.00    +0.000 A 
ATOM     21  C   UNL     1      47.123   8.067  14.101  0.00  0.00    +0.000 A 
BRANCH  20  22
ATOM     22  N   UNL     1      48.160   6.582  15.700  0.00  0.00    +0.000 N 
ATOM     23  H   UNL     1      48.771   7.158  16.281  0.00  0.00    +0.000 HD
BRANCH  22  24
ATOM     24  C   UNL     1      48.234   5.183  16.037  0.00  0.00    +0.000 C 
ATOM     25  C   UNL     1      47.097   4.362  15.390  0.00  0.00    +0.000 C 
ATOM     26  N   UNL     1      46.822   3.723  16.689  0.00  0.00    +0.000 NA
ATOM     27  C   UNL     1      47.607   4.766  17.379  0.00  0.00    +0.000 C 
ATOM     28  H   UNL     1      47.222   2.788  16.772  0.00  0.00    +0.000 HD
ENDBRANCH  22  24
ENDBRANCH  20  22
ENDBRANCH  15  16
ENDBRANCH   1  15
TORSDOF 6
ENDMDL
