MODEL 1
REMARK VINA RESULT:    -7.817      0.000      0.000
REMARK INTER + INTRA:         -10.265
REMARK INTER:                  -9.645
REMARK INTRA:                  -0.620
REMARK UNBOUND:                -0.620
REMARK  Name = 
REMARK  4 active torsions:
REMARK  status: ('A' for Active; 'I' for Inactive)
REMARK    1  A    between atoms: C_2  and  C_4
REMARK    2  A    between atoms: C_7  and  N_8
REMARK    3  A    between atoms: N_8  and  C_9
REMARK    4  A    between atoms: C_9  and  C_10
REMARK                            x       y       z     vdW  Elec       q    Type
REMARK                         _______ _______ _______ _____ _____    ______ ____
ROOT
ATOM      1  C   UNL     1      46.334   2.294   7.806  0.00  0.00    +0.000 A 
ATOM      2  C   UNL     1      45.429   1.744   8.717  0.00  0.00    +0.000 A 
ATOM      3  C   UNL     1      44.543   2.576   9.409  0.00  0.00    +0.000 A 
ATOM      4  C   UNL     1      44.515   3.957   9.191  0.00  0.00    +0.000 A 
ATOM      5  C   UNL     1      45.439   4.493   8.282  0.00  0.00    +0.000 A 
ATOM      6  C   UNL     1      46.346   3.674   7.598  0.00  0.00    +0.000 A 
ENDROOT
BRANCH   1   8
ATOM      7  N   UNL     1      48.440   2.074   6.603  0.00  0.00    +0.000 N 
ATOM      8  C   UNL     1      47.326   1.450   7.090  0.00  0.00    +0.000 C 
ATOM      9  O   UNL     1      47.174   0.241   6.965  0.00  0.00    +0.000 OA
ATOM     10  H   UNL     1      49.149   1.476   6.198  0.00  0.00    +0.000 HD
ATOM     11  H   UNL     1      48.717   2.997   6.900  0.00  0.00    +0.000 HD
ENDBRANCH   1   8
BRANCH   4  12
ATOM     12  N   UNL     1      43.716   4.836   9.921  0.00  0.00    +0.000 N 
ATOM     13  H   UNL     1      43.020   5.315   9.357  0.00  0.00    +0.000 HD
BRANCH  12  14
ATOM     14  C   UNL     1      43.314   4.522  11.285  0.00  0.00    +0.000 C 
BRANCH  14  15
ATOM     15  C   UNL     1      44.270   5.158  12.310  0.00  0.00    +0.000 C 
ATOM     16  C   UNL     1      44.943   6.423  11.750  0.00  0.00    +0.000 C 
ATOM     17  C   UNL     1      45.964   7.003  12.727  0.00  0.00    +0.000 C 
ATOM     18  C   UNL     1      47.009   5.968  13.125  0.00  0.00    +0.000 C 
ATOM     19  C   UNL     1      46.356   4.714  13.697  0.00  0.00    +0.000 C 
ATOM     20  C   UNL     1      45.328   4.126  12.735  0.00  0.00    +0.000 C 
ENDBRANCH  14  15
ENDBRANCH  12  14
ENDBRANCH   4  12
TORSDOF 4
ENDMDL
MODEL 2
REMARK VINA RESULT:    -7.233      2.996      6.240
REMARK INTER + INTRA:          -9.544
REMARK INTER:                  -9.144
REMARK INTRA:                  -0.400
REMARK UNBOUND:                -0.620
REMARK  Name = 
REMARK  4 active torsions:
REMARK  status: ('A' for Active; 'I' for Inactive)
REMARK    1  A    between atoms: C_2  and  C_4
REMARK    2  A    between atoms: C_7  and  N_8
REMARK    3  A    between atoms: N_8  and  C_9
REMARK    4  A    between atoms: C_9  and  C_10
REMARK                            x       y       z     vdW  Elec       q    Type
REMARK                         _______ _______ _______ _____ _____    ______ ____
ROOT
ATOM      1  C   UNL     1      46.536   4.977  13.302  0.00  0.00    +0.000 A 
ATOM      2  C   UNL     1      46.252   5.885  12.280  0.00  0.00    +0.000 A 
ATOM      3  C   UNL     1      45.473   5.486  11.187  0.00  0.00    +0.000 A 
ATOM      4  C   UNL     1      44.940   4.196  11.102  0.00  0.00    +0.000 A 
ATOM      5  C   UNL     1      45.247   3.294  12.131  0.00  0.00    +0.000 A 
ATOM      6  C   UNL     1      46.042   3.674  13.219  0.00  0.00    +0.000 A 
ENDROOT
BRANCH   1   8
ATOM      7  N   UNL     1      47.127   4.756  15.654  0.00  0.00    +0.000 N 
ATOM      8  C   UNL     1      47.401   5.347  14.452  0.00  0.00    +0.000 C 
ATOM      9  O   UNL     1      48.340   6.123  14.329  0.00  0.00    +0.000 OA
ATOM     10  H   UNL     1      47.777   4.946  16.406  0.00  0.00    +0.000 HD
ATOM     11  H   UNL     1      46.539   3.941  15.735  0.00  0.00    +0.000 HD
ENDBRANCH   1   8
BRANCH   4  12
ATOM     12  N   UNL     1      44.239   3.725   9.994  0.00  0.00    +0.000 N 
ATOM     13  H   UNL     1      43.255   3.554  10.179  0.00  0.00    +0.000 HD
BRANCH  12  14
ATOM     14  C   UNL     1      44.554   4.199   8.653  0.00  0.00    +0.000 C 
BRANCH  14  15
ATOM     15  C   UNL     1      45.215   3.095   7.810  0.00  0.00    +0.000 C 
ATOM     16  C   UNL     1      45.696   1.924   8.684  0.00  0.00    +0.000 C 
ATOM     17  C   UNL     1      46.438   0.871   7.865  0.00  0.00    +0.000 C 
ATOM     18  C   UNL     1      47.602   1.480   7.092  0.00  0.00    +0.000 C 
ATOM     19  C   UNL     1      47.136   2.632   6.207  0.00  0.00    +0.000 C 
ATOM     20  C   UNL     1      46.387   3.691   7.011  0.00  0.00    +0.000 C 
ENDBRANCH  14  15
ENDBRANCH  12  14
ENDBRANCH   4  12
TORSDOF 4
ENDMDL
MODEL 3
REMARK VINA RESULT:    -6.862      2.967      6.199
REMARK INTER + INTRA:          -9.086
REMARK INTER:                  -8.716
REMARK INTRA:                  -0.370
REMARK UNBOUND:                -0.620
REMARK  Name = 
REMARK  4 active torsions:
REMARK  status: ('A' for Active; 'I' for Inactive)
REMARK    1  A    between atoms: C_2  and  C_4
REMARK    2  A    between atoms: C_7  and  N_8
REMARK    3  A    between atoms: N_8  and  C_9
REMARK    4  A    between atoms: C_9  and  C_10
REMARK                            x       y       z     vdW  Elec       q    Type
REMARK                         _______ _______ _______ _____ _____    ______ ____
ROOT
ATOM      1  C   UNL     1      46.333   6.589  12.356  0.00  0.00    +0.000 A 
ATOM      2  C   UNL     1      45.562   6.546  11.192  0.00  0.00    +0.000 A 
ATOM      3  C   UNL     1      45.000   5.335  10.772  0.00  0.00    +0.000 A 
ATOM      4  C   UNL     1      45.165   4.157  11.508  0.00  0.00    +0.000 A 
ATOM      5  C   UNL     1      45.954   4.217  12.666  0.00  0.00    +0.000 A 
ATOM      6  C   UNL     1      46.539   5.418  13.087  0.00  0.00    +0.000 A 
ENDROOT
BRANCH   1   8
ATOM      7  N   UNL     1      46.275   8.654  13.646  0.00  0.00    +0.000 N 
ATOM      8  C   UNL     1      46.989   7.844  12.806  0.00  0.00    +0.000 C 
ATOM      9  O   UNL     1      48.130   8.132  12.471  0.00  0.00    +0.000 OA
ATOM     10  H   UNL     1      46.765   9.458  14.017  0.00  0.00    +0.000 HD
ATOM     11  H   UNL     1      45.453   8.335  14.136  0.00  0.00    +0.000 HD
ENDBRANCH   1   8
BRANCH   4  12
ATOM     12  N   UNL     1      44.705   2.913  11.083  0.00  0.00    +0.000 N 
ATOM     13  H   UNL     1      44.104   2.451  11.759  0.00  0.00    +0.000 HD
BRANCH  12  14
ATOM     14  C   UNL     1      44.379   2.674   9.684  0.00  0.00    +0.000 C 
BRANCH  14  15
ATOM     15  C   UNL     1      45.644   2.658   8.809  0.00  0.00    +0.000 C 
ATOM     16  C   UNL     1      45.523   3.622   7.616  0.00  0.00    +0.000 C 
ATOM     17  C   UNL     1      46.736   3.538   6.692  0.00  0.00    +0.000 C 
ATOM     18  C   UNL     1      46.976   2.112   6.211  0.00  0.00    +0.000 C 
ATOM     19  C   UNL     1      47.114   1.148   7.384  0.00  0.00    +0.000 C 
ATOM     20  C   UNL     1      45.912   1.224   8.320  0.00  0.00    +0.000 C 
ENDBRANCH  14  15
ENDBRANCH  12  14
ENDBRANCH   4  12
TORSDOF 4
ENDMDL
MODEL 4
REMARK VINA RESULT:    -5.561      3.762      6.573
REMARK INTER + INTRA:          -7.482
REMARK INTER:                  -6.978
REMARK INTRA:                  -0.504
REMARK UNBOUND:                -0.620
REMARK  Name = 
REMARK  4 active torsions:
REMARK  status: ('A' for Active; 'I' for Inactive)
REMARK    1  A    between atoms: C_2  and  C_4
REMARK    2  A    between atoms: C_7  and  N_8
REMARK    3  A    between atoms: N_8  and  C_9
REMARK    4  A    between atoms: C_9  and  C_10
REMARK                            x       y       z     vdW  Elec       q    Type
REMARK                         _______ _______ _______ _____ _____    ______ ____
ROOT
ATOM      1  C   UNL     1      47.869   5.900  14.750  0.00  0.00    +0.000 A 
ATOM      2  C   UNL     1      47.083   4.806  14.381  0.00  0.00    +0.000 A 
ATOM      3  C   UNL     1      46.357   4.839  13.185  0.00  0.00    +0.000 A 
ATOM      4  C   UNL     1      46.420   5.937  12.321  0.00  0.00    +0.000 A 
ATOM      5  C   UNL     1      47.204   7.032  12.714  0.00  0.00    +0.000 A 
ATOM      6  C   UNL     1      47.919   7.020  13.918  0.00  0.00    +0.000 A 
ENDROOT
BRANCH   1   8
ATOM      7  N   UNL     1      49.857   6.489  16.026  0.00  0.00    +0.000 N 
ATOM      8  C   UNL     1      48.612   5.925  16.035  0.00  0.00    +0.000 C 
ATOM      9  O   UNL     1      48.125   5.489  17.071  0.00  0.00    +0.000 OA
ATOM     10  H   UNL     1      50.315   6.582  16.924  0.00  0.00    +0.000 HD
ATOM     11  H   UNL     1      50.181   7.073  15.270  0.00  0.00    +0.000 HD
ENDBRANCH   1   8
BRANCH   4  12
ATOM     12  N   UNL     1      45.647   6.054  11.168  0.00  0.00    +0.000 N 
ATOM     13  H   UNL     1      46.197   6.145  10.318  0.00  0.00    +0.000 HD
BRANCH  12  14
ATOM     14  C   UNL     1      44.393   5.326  11.031  0.00  0.00    +0.000 C 
BRANCH  14  15
ATOM     15  C   UNL     1      44.431   4.369   9.827  0.00  0.00    +0.000 C 
ATOM     16  C   UNL     1      44.518   2.898  10.272  0.00  0.00    +0.000 C 
ATOM     17  C   UNL     1      44.653   1.951   9.082  0.00  0.00    +0.000 C 
ATOM     18  C   UNL     1      45.843   2.321   8.204  0.00  0.00    +0.000 C 
ATOM     19  C   UNL     1      45.760   3.772   7.741  0.00  0.00    +0.000 C 
ATOM     20  C   UNL     1      45.619   4.730   8.919  0.00  0.00    +0.000 C 
ENDBRANCH  14  15
ENDBRANCH  12  14
ENDBRANCH   4  12
TORSDOF 4
ENDMDL
MODEL 5
REMARK VINA RESULT:    -5.364      3.119      5.132
REMARK INTER + INTRA:          -7.239
REMARK INTER:                  -6.630
REMARK INTRA:                  -0.609
REMARK UNBOUND:                -0.620
REMARK  Name = 
REMARK  4 active torsions:
REMARK  status: ('A' for Active; 'I' for Inactive)
REMARK    1  A    between atoms: C_2  and  C_4
REMARK    2  A    between atoms: C_7  and  N_8
REMARK    3  A    between atoms: N_8  and  C_9
REMARK    4  A    between atoms: C_9  and  C_10
REMARK                            x       y       z     vdW  Elec       q    Type
REMARK                         _______ _______ _______ _____ _____    ______ ____
ROOT
ATOM      1  C   UNL     1      45.005   4.575  10.947  0.00  0.00    +0.000 A 
ATOM      2  C   UNL     1      45.496   5.849  10.653  0.00  0.00    +0.000 A 
ATOM      3  C   UNL     1      46.183   6.576  11.633  0.00  0.00    +0.000 A 
ATOM      4  C   UNL     1      46.421   6.045  12.905  0.00  0.00    +0.000 A 
ATOM      5  C   UNL     1      45.909   4.770  13.186  0.00  0.00    +0.000 A 
ATOM      6  C   UNL     1      45.202   4.041  12.221  0.00  0.00    +0.000 A 
ENDROOT
BRANCH   1   8
ATOM      7  N   UNL     1      44.063   4.350   8.713  0.00  0.00    +0.000 N 
ATOM      8  C   UNL     1      44.227   3.794   9.951  0.00  0.00    +0.000 C 
ATOM      9  O   UNL     1      43.776   2.685  10.210  0.00  0.00    +0.000 OA
ATOM     10  H   UNL     1      43.610   3.770   8.017  0.00  0.00    +0.000 HD
ATOM     11  H   UNL     1      44.620   5.125   8.389  0.00  0.00    +0.000 HD
ENDBRANCH   1   8
BRANCH   4  12
ATOM     12  N   UNL     1      47.017   6.763  13.939  0.00  0.00    +0.000 N 
ATOM     13  H   UNL     1      46.454   6.798  14.784  0.00  0.00    +0.000 HD
BRANCH  12  14
ATOM     14  C   UNL     1      48.458   6.724  14.143  0.00  0.00    +0.000 C 
BRANCH  14  15
ATOM     15  C   UNL     1      49.143   7.960  13.534  0.00  0.00    +0.000 C 
ATOM     16  C   UNL     1      48.187   9.163  13.464  0.00  0.00    +0.000 C 
ATOM     17  C   UNL     1      48.831  10.363  12.773  0.00  0.00    +0.000 C 
ATOM     18  C   UNL     1      49.343  10.000  11.384  0.00  0.00    +0.000 C 
ATOM     19  C   UNL     1      50.306   8.818  11.440  0.00  0.00    +0.000 C 
ATOM     20  C   UNL     1      49.678   7.613  12.133  0.00  0.00    +0.000 C 
ENDBRANCH  14  15
ENDBRANCH  12  14
ENDBRANCH   4  12
TORSDOF 4
ENDMDL
MODEL 6
REMARK VINA RESULT:    -5.270      3.821      5.727
REMARK INTER + INTRA:          -7.123
REMARK INTER:                  -6.736
REMARK INTRA:                  -0.387
REMARK UNBOUND:                -0.620
REMARK  Name = 
REMARK  4 active torsions:
REMARK  status: ('A' for Active; 'I' for Inactive)
REMARK    1  A    between atoms: C_2  and  C_4
REMARK    2  A    between atoms: C_7  and  N_8
REMARK    3  A    between atoms: N_8  and  C_9
REMARK    4  A    between atoms: C_9  and  C_10
REMARK                            x       y       z     vdW  Elec       q    Type
REMARK                         _______ _______ _______ _____ _____    ______ ____
ROOT
ATOM      1  C   UNL     1      45.179   4.291  11.505  0.00  0.00    +0.000 A 
ATOM      2  C   UNL     1      45.496   5.616  11.814  0.00  0.00    +0.000 A 
ATOM      3  C   UNL     1      46.218   5.909  12.976  0.00  0.00    +0.000 A 
ATOM      4  C   UNL     1      46.665   4.899  13.834  0.00  0.00    +0.000 A 
ATOM      5  C   UNL     1      46.327   3.576  13.515  0.00  0.00    +0.000 A 
ATOM      6  C   UNL     1      45.586   3.271  12.366  0.00  0.00    +0.000 A 
ENDROOT
BRANCH   1   8
ATOM      7  N   UNL     1      44.381   4.832   9.269  0.00  0.00    +0.000 N 
ATOM      8  C   UNL     1      44.370   3.944  10.309  0.00  0.00    +0.000 C 
ATOM      9  O   UNL     1      43.742   2.895  10.237  0.00  0.00    +0.000 OA
ATOM     10  H   UNL     1      43.900   4.543   8.427  0.00  0.00    +0.000 HD
ATOM     11  H   UNL     1      45.070   5.565   9.191  0.00  0.00    +0.000 HD
ENDBRANCH   1   8
BRANCH   4  12
ATOM     12  N   UNL     1      47.306   5.146  15.046  0.00  0.00    +0.000 N 
ATOM     13  H   UNL     1      47.373   6.134  15.275  0.00  0.00    +0.000 HD
BRANCH  12  14
ATOM     14  C   UNL     1      47.134   4.247  16.179  0.00  0.00    +0.000 C 
BRANCH  14  15
ATOM     15  C   UNL     1      48.364   4.271  17.103  0.00  0.00    +0.000 C 
ATOM     16  C   UNL     1      49.244   5.507  16.847  0.00  0.00    +0.000 C 
ATOM     17  C   UNL     1      50.515   5.486  17.694  0.00  0.00    +0.000 C 
ATOM     18  C   UNL     1      51.310   4.204  17.477  0.00  0.00    +0.000 C 
ATOM     19  C   UNL     1      50.455   2.970  17.743  0.00  0.00    +0.000 C 
ATOM     20  C   UNL     1      49.178   2.979  16.909  0.00  0.00    +0.000 C 
ENDBRANCH  14  15
ENDBRANCH  12  14
ENDBRANCH   4  12
TORSDOF 4
ENDMDL
MODEL 7
REMARK VINA RESULT:    -5.253      3.650      5.439
REMARK INTER + INTRA:          -7.102
REMARK INTER:                  -6.765
REMARK INTRA:                  -0.337
REMARK UNBOUND:                -0.620
REMARK  Name = 
REMARK  4 active torsions:
REMARK  status: ('A' for Active; 'I' for Inactive)
REMARK    1  A    between atoms: C_2  and  C_4
REMARK    2  A    between atoms: C_7  and  N_8
REMARK    3  A    between atoms: N_8  and  C_9
REMARK    4  A    between atoms: C_9  and  C_10
REMARK                            x       y       z     vdW  Elec       q    Type
REMARK                         _______ _______ _______ _____ _____    ______ ____
ROOT
ATOM      1  C   UNL     1      45.541   4.890  10.789  0.00  0.00    +0.000 A 
ATOM      2  C   UNL     1      45.349   3.830  11.677  0.00  0.00    +0.000 A 
ATOM      3  C   UNL     1      45.770   3.947  13.007  0.00  0.00    +0.000 A 
ATOM      4  C   UNL     1      46.358   5.122  13.486  0.00  0.00    +0.000 A 
ATOM      5  C   UNL     1      46.554   6.172  12.577  0.00  0.00    +0.000 A 
ATOM      6  C   UNL     1      46.156   6.059  11.239  0.00  0.00    +0.000 A 
ENDROOT
BRANCH   1   8
ATOM      7  N   UNL     1      43.882   4.366   9.085  0.00  0.00    +0.000 N 
ATOM      8  C   UNL     1      45.154   4.785   9.358  0.00  0.00    +0.000 C 
ATOM      9  O   UNL     1      45.926   5.088   8.457  0.00  0.00    +0.000 OA
ATOM     10  H   UNL     1      43.602   4.385   8.112  0.00  0.00    +0.000 HD
ATOM     11  H   UNL     1      43.155   4.352   9.784  0.00  0.00    +0.000 HD
ENDBRANCH   1   8
BRANCH   4  12
ATOM     12  N   UNL     1      46.876   5.254  14.773  0.00  0.00    +0.000 N 
ATOM     13  H   UNL     1      46.549   6.084  15.258  0.00  0.00    +0.000 HD
BRANCH  12  14
ATOM     14  C   UNL     1      47.105   4.084  15.610  0.00  0.00    +0.000 C 
BRANCH  14  15
ATOM     15  C   UNL     1      48.213   4.345  16.645  0.00  0.00    +0.000 C 
ATOM     16  C   UNL     1      47.818   3.835  18.042  0.00  0.00    +0.000 C 
ATOM     17  C   UNL     1      48.873   4.177  19.091  0.00  0.00    +0.000 C 
ATOM     18  C   UNL     1      49.164   5.672  19.126  0.00  0.00    +0.000 C 
ATOM     19  C   UNL     1      49.573   6.189  17.750  0.00  0.00    +0.000 C 
ATOM     20  C   UNL     1      48.532   5.849  16.689  0.00  0.00    +0.000 C 
ENDBRANCH  14  15
ENDBRANCH  12  14
ENDBRANCH   4  12
TORSDOF 4
ENDMDL
MODEL 8
REMARK VINA RESULT:    -5.220      3.301      5.225
REMARK INTER + INTRA:          -7.061
REMARK INTER:                  -6.675
REMARK INTRA:                  -0.386
REMARK UNBOUND:                -0.620
REMARK  Name = 
REMARK  4 active torsions:
REMARK  status: ('A' for Active; 'I' for Inactive)
REMARK    1  A    between atoms: C_2  and  C_4
REMARK    2  A    between atoms: C_7  and  N_8
REMARK    3  A    between atoms: N_8  and  C_9
REMARK    4  A    between atoms: C_9  and  C_10
REMARK                            x       y       z     vdW  Elec       q    Type
REMARK                         _______ _______ _______ _____ _____    ______ ____
ROOT
ATOM      1  C   UNL     1      44.630   3.958  11.721  0.00  0.00    +0.000 A 
ATOM      2  C   UNL     1      45.616   3.611  12.647  0.00  0.00    +0.000 A 
ATOM      3  C   UNL     1      46.340   4.612  13.304  0.00  0.00    +0.000 A 
ATOM      4  C   UNL     1      46.082   5.969  13.080  0.00  0.00    +0.000 A 
ATOM      5  C   UNL     1      45.097   6.298  12.137  0.00  0.00    +0.000 A 
ATOM      6  C   UNL     1      44.379   5.306  11.458  0.00  0.00    +0.000 A 
ENDROOT
BRANCH   1   8
ATOM      7  N   UNL     1      44.271   2.678   9.681  0.00  0.00    +0.000 N 
ATOM      8  C   UNL     1      43.875   2.925  10.966  0.00  0.00    +0.000 C 
ATOM      9  O   UNL     1      42.958   2.294  11.476  0.00  0.00    +0.000 OA
ATOM     10  H   UNL     1      43.810   1.911   9.208  0.00  0.00    +0.000 HD
ATOM     11  H   UNL     1      45.161   2.987   9.320  0.00  0.00    +0.000 HD
ENDBRANCH   1   8
BRANCH   4  12
ATOM     12  N   UNL     1      46.836   6.998  13.638  0.00  0.00    +0.000 N 
ATOM     13  H   UNL     1      47.727   6.689  14.016  0.00  0.00    +0.000 HD
BRANCH  12  14
ATOM     14  C   UNL     1      46.829   8.332  13.054  0.00  0.00    +0.000 C 
BRANCH  14  15
ATOM     15  C   UNL     1      47.975   8.506  12.042  0.00  0.00    +0.000 C 
ATOM     16  C   UNL     1      49.092   7.470  12.265  0.00  0.00    +0.000 C 
ATOM     17  C   UNL     1      50.275   7.699  11.327  0.00  0.00    +0.000 C 
ATOM     18  C   UNL     1      50.821   9.116  11.450  0.00  0.00    +0.000 C 
ATOM     19  C   UNL     1      49.729  10.154  11.215  0.00  0.00    +0.000 C 
ATOM     20  C   UNL     1      48.537   9.935  12.141  0.00  0.00    +0.000 C 
ENDBRANCH  14  15
ENDBRANCH  12  14
ENDBRANCH   4  12
TORSDOF 4
ENDMDL
MODEL 9
REMARK VINA RESULT:    -4.904      5.583      8.169
REMARK INTER + INTRA:          -6.671
REMARK INTER:                  -6.363
REMARK INTRA:                  -0.308
REMARK UNBOUND:                -0.620
REMARK  Name = 
REMARK  4 active torsions:
REMARK  status: ('A' for Active; 'I' for Inactive)
REMARK    1  A    between atoms: C_2  and  C_4
REMARK    2  A    between atoms: C_7  and  N_8
REMARK    3  A    between atoms: N_8  and  C_9
REMARK    4  A    between atoms: C_9  and  C_10
REMARK                            x       y       z     vdW  Elec       q    Type
REMARK                         _______ _______ _______ _____ _____    ______ ____
ROOT
ATOM      1  C   UNL     1      49.210   4.548  18.019  0.00  0.00    +0.000 A 
ATOM      2  C   UNL     1      48.334   3.464  17.919  0.00  0.00    +0.000 A 
ATOM      3  C   UNL     1      47.408   3.409  16.871  0.00  0.00    +0.000 A 
ATOM      4  C   UNL     1      47.352   4.405  15.891  0.00  0.00    +0.000 A 
ATOM      5  C   UNL     1      48.230   5.492  16.015  0.00  0.00    +0.000 A 
ATOM      6  C   UNL     1      49.148   5.569  17.070  0.00  0.00    +0.000 A 
ENDROOT
BRANCH   1   8
ATOM      7  N   UNL     1      51.323   3.936  19.062  0.00  0.00    +0.000 N 
ATOM      8  C   UNL     1      50.172   4.668  19.144  0.00  0.00    +0.000 C 
ATOM      9  O   UNL     1      49.964   5.414  20.093  0.00  0.00    +0.000 OA
ATOM     10  H   UNL     1      52.010   4.095  19.789  0.00  0.00    +0.000 HD
ATOM     11  H   UNL     1      51.639   3.518  18.200  0.00  0.00    +0.000 HD
ENDBRANCH   1   8
BRANCH   4  12
ATOM     12  N   UNL     1      46.390   4.441  14.884  0.00  0.00    +0.000 N 
ATOM     13  H   UNL     1      45.800   5.268  14.917  0.00  0.00    +0.000 HD
BRANCH  12  14
ATOM     14  C   UNL     1      46.681   3.927  13.553  0.00  0.00    +0.000 C 
BRANCH  14  15
ATOM     15  C   UNL     1      45.626   4.388  12.532  0.00  0.00    +0.000 C 
ATOM     16  C   UNL     1      44.949   5.700  12.968  0.00  0.00    +0.000 C 
ATOM     17  C   UNL     1      43.835   6.111  12.008  0.00  0.00    +0.000 C 
ATOM     18  C   UNL     1      42.804   5.002  11.839  0.00  0.00    +0.000 C 
ATOM     19  C   UNL     1      43.459   3.700  11.392  0.00  0.00    +0.000 C 
ATOM     20  C   UNL     1      44.579   3.279  12.338  0.00  0.00    +0.000 C 
ENDBRANCH  14  15
ENDBRANCH  12  14
ENDBRANCH   4  12
TORSDOF 4
ENDMDL
