MODEL 1
REMARK VINA RESULT:    -9.350      0.000      0.000
REMARK INTER + INTRA:         -12.116
REMARK INTER:                 -11.536
REMARK INTRA:                  -0.580
REMARK UNBOUND:                -0.580
REMARK  Name = 
REMARK  4 active torsions:
REMARK  status: ('A' for Active; 'I' for Inactive)
REMARK    1  A    between atoms: C_2  and  C_4
REMARK    2  A    between atoms: N_8  and  C_9
REMARK    3  A    between atoms: C_9  and  C_10
REMARK    4  A    between atoms: C_15  and  C_16
REMARK                            x       y       z     vdW  Elec       q    Type
REMARK                         _______ _______ _______ _____ _____    ______ ____
ROOT
ATOM      1  C   UNL     1      43.695   4.501  11.130  0.00  0.00    +0.000 C 
ENDROOT
BRANCH   1   6
ATOM      2  C   UNL     1      46.458   2.291   7.719  0.00  0.00    +0.000 A 
ATOM      3  C   UNL     1      45.662   1.844   8.742  0.00  0.00    +0.000 A 
ATOM      4  N   UNL     1      44.816   2.639   9.423  0.00  0.00    +0.000 NA
ATOM      5  C   UNL     1      44.771   3.936   9.079  0.00  0.00    +0.000 A 
ATOM      6  N   UNL     1      43.882   4.780   9.719  0.00  0.00    +0.000 N 
ATOM      7  N   UNL     1      45.525   4.474   8.111  0.00  0.00    +0.000 NA
ATOM      8  C   UNL     1      46.362   3.637   7.450  0.00  0.00    +0.000 A 
ATOM      9  H   UNL     1      44.152   5.733   9.502  0.00  0.00    +0.000 HD
BRANCH   2  11
ATOM     10  N   UNL     1      48.484   2.008   6.417  0.00  0.00    +0.000 N 
ATOM     11  C   UNL     1      47.382   1.424   6.978  0.00  0.00    +0.000 C 
ATOM     12  O   UNL     1      47.185   0.220   6.893  0.00  0.00    +0.000 OA
ATOM     13  H   UNL     1      49.150   1.380   5.978  0.00  0.00    +0.000 HD
ATOM     14  H   UNL     1      48.817   2.931   6.657  0.00  0.00    +0.000 HD
ENDBRANCH   2  11
ENDBRANCH   1   6
BRANCH   1  15
ATOM     15  C   UNL     1      44.966   4.825  11.878  0.00  0.00    +0.000 A 
ATOM     16  C   UNL     1      45.513   3.929  12.796  0.00  0.00    +0.000 A 
ATOM     17  C   UNL     1      46.662   4.282  13.489  0.00  0.00    +0.000 A 
ATOM     18  F   UNL     1      47.181   3.423  14.376  0.00  0.00    +0.000 F 
ATOM     19  C   UNL     1      47.284   5.514  13.289  0.00  0.00    +0.000 A 
ATOM     20  C   UNL     1      46.757   6.451  12.386  0.00  0.00    +0.000 A 
ATOM     21  C   UNL     1      45.587   6.079  11.696  0.00  0.00    +0.000 A 
BRANCH  20  22
ATOM     22  C   UNL     1      47.391   7.773  12.175  0.00  0.00    +0.000 A 
ATOM     23  C   UNL     1      48.733   7.909  11.782  0.00  0.00    +0.000 A 
ATOM     24  C   UNL     1      49.295   9.170  11.578  0.00  0.00    +0.000 A 
ATOM     25  C   UNL     1      48.503  10.284  11.785  0.00  0.00    +0.000 A 
ATOM     26  N   UNL     1      47.213  10.217  12.167  0.00  0.00    +0.000 NA
ATOM     27  C   UNL     1      46.696   8.975  12.346  0.00  0.00    +0.000 A 
ENDBRANCH  20  22
ENDBRANCH   1  15
TORSDOF 4
ENDMDL
MODEL 2
REMARK VINA RESULT:    -8.928      2.310      3.805
REMARK INTER + INTRA:         -11.596
REMARK INTER:                 -10.913
REMARK INTRA:                  -0.683
REMARK UNBOUND:                -0.580
REMARK  Name = 
REMARK  4 active torsions:
REMARK  status: ('A' for Active; 'I' for Inactive)
REMARK    1  A    between atoms: C_2  and  C_4
REMARK    2  A    between atoms: N_8  and  C_9
REMARK    3  A    between atoms: C_9  and  C_10
REMARK    4  A    between atoms: C_15  and  C_16
REMARK                            x       y       z     vdW  Elec       q    Type
REMARK                         _______ _______ _______ _____ _____    ______ ____
ROOT
ATOM      1  C   UNL     1      43.619   4.595  11.073  0.00  0.00    +0.000 C 
ENDROOT
BRANCH   1   6
ATOM      2  C   UNL     1      46.382   2.320   7.706  0.00  0.00    +0.000 A 
ATOM      3  C   UNL     1      45.583   1.893   8.735  0.00  0.00    +0.000 A 
ATOM      4  N   UNL     1      44.738   2.702   9.400  0.00  0.00    +0.000 NA
ATOM      5  C   UNL     1      44.697   3.993   9.034  0.00  0.00    +0.000 A 
ATOM      6  N   UNL     1      43.809   4.849   9.659  0.00  0.00    +0.000 N 
ATOM      7  N   UNL     1      45.454   4.512   8.059  0.00  0.00    +0.000 NA
ATOM      8  C   UNL     1      46.289   3.661   7.413  0.00  0.00    +0.000 A 
ATOM      9  H   UNL     1      44.081   5.798   9.425  0.00  0.00    +0.000 HD
BRANCH   2  11
ATOM     10  N   UNL     1      48.433   2.002   6.452  0.00  0.00    +0.000 N 
ATOM     11  C   UNL     1      47.305   1.438   6.982  0.00  0.00    +0.000 C 
ATOM     12  O   UNL     1      47.084   0.239   6.883  0.00  0.00    +0.000 OA
ATOM     13  H   UNL     1      49.096   1.363   6.025  0.00  0.00    +0.000 HD
ATOM     14  H   UNL     1      48.780   2.915   6.707  0.00  0.00    +0.000 HD
ENDBRANCH   2  11
ENDBRANCH   1   6
BRANCH   1  15
ATOM     15  C   UNL     1      44.687   5.316  11.860  0.00  0.00    +0.000 A 
ATOM     16  C   UNL     1      45.084   6.609  11.523  0.00  0.00    +0.000 A 
ATOM     17  C   UNL     1      46.095   7.221  12.250  0.00  0.00    +0.000 A 
ATOM     18  F   UNL     1      46.480   8.461  11.920  0.00  0.00    +0.000 F 
ATOM     19  C   UNL     1      46.723   6.573  13.313  0.00  0.00    +0.000 A 
ATOM     20  C   UNL     1      46.365   5.265  13.675  0.00  0.00    +0.000 A 
ATOM     21  C   UNL     1      45.341   4.656  12.922  0.00  0.00    +0.000 A 
BRANCH  20  22
ATOM     22  C   UNL     1      47.035   4.552  14.786  0.00  0.00    +0.000 A 
ATOM     23  C   UNL     1      47.227   5.137  16.048  0.00  0.00    +0.000 A 
ATOM     24  C   UNL     1      47.851   4.431  17.078  0.00  0.00    +0.000 A 
ATOM     25  C   UNL     1      48.287   3.145  16.823  0.00  0.00    +0.000 A 
ATOM     26  N   UNL     1      48.135   2.533  15.633  0.00  0.00    +0.000 NA
ATOM     27  C   UNL     1      47.516   3.245  14.658  0.00  0.00    +0.000 A 
ENDBRANCH  20  22
ENDBRANCH   1  15
TORSDOF 4
ENDMDL
MODEL 3
REMARK VINA RESULT:    -8.092      2.486      3.044
REMARK INTER + INTRA:         -10.564
REMARK INTER:                  -9.976
REMARK INTRA:                  -0.588
REMARK UNBOUND:                -0.580
REMARK  Name = 
REMARK  4 active torsions:
REMARK  status: ('A' for Active; 'I' for Inactive)
REMARK    1  A    between atoms: C_2  and  C_4
REMARK    2  A    between atoms: N_8  and  C_9
REMARK    3  A    between atoms: C_9  and  C_10
REMARK    4  A    between atoms: C_15  and  C_16
REMARK                            x       y       z     vdW  Elec       q    Type
REMARK                         _______ _______ _______ _____ _____    ______ ____
ROOT
ATOM      1  C   UNL     1      44.202   5.131  11.181  0.00  0.00    +0.000 C 
ENDROOT
BRANCH   1   6
ATOM      2  C   UNL     1      46.311   2.109   7.930  0.00  0.00    +0.000 A 
ATOM      3  C   UNL     1      45.639   1.926   9.111  0.00  0.00    +0.000 A 
ATOM      4  N   UNL     1      44.950   2.902   9.730  0.00  0.00    +0.000 NA
ATOM      5  C   UNL     1      44.941   4.115   9.155  0.00  0.00    +0.000 A 
ATOM      6  N   UNL     1      44.207   5.135   9.732  0.00  0.00    +0.000 N 
ATOM      7  N   UNL     1      45.585   4.402   8.017  0.00  0.00    +0.000 NA
ATOM      8  C   UNL     1      46.264   3.388   7.425  0.00  0.00    +0.000 A 
ATOM      9  H   UNL     1      44.504   6.007   9.305  0.00  0.00    +0.000 HD
BRANCH   2  11
ATOM     10  N   UNL     1      46.764  -0.248   7.585  0.00  0.00    +0.000 N 
ATOM     11  C   UNL     1      47.064   1.045   7.256  0.00  0.00    +0.000 C 
ATOM     12  O   UNL     1      47.910   1.309   6.413  0.00  0.00    +0.000 OA
ATOM     13  H   UNL     1      47.239  -0.969   7.051  0.00  0.00    +0.000 HD
ATOM     14  H   UNL     1      45.927  -0.523   8.079  0.00  0.00    +0.000 HD
ENDBRANCH   2  11
ENDBRANCH   1   6
BRANCH   1  15
ATOM     15  C   UNL     1      44.875   6.384  11.689  0.00  0.00    +0.000 A 
ATOM     16  C   UNL     1      44.405   7.649  11.339  0.00  0.00    +0.000 A 
ATOM     17  C   UNL     1      45.075   8.774  11.798  0.00  0.00    +0.000 A 
ATOM     18  F   UNL     1      44.626   9.989  11.454  0.00  0.00    +0.000 F 
ATOM     19  C   UNL     1      46.208   8.670  12.603  0.00  0.00    +0.000 A 
ATOM     20  C   UNL     1      46.724   7.415  12.966  0.00  0.00    +0.000 A 
ATOM     21  C   UNL     1      46.035   6.283  12.486  0.00  0.00    +0.000 A 
BRANCH  20  22
ATOM     22  C   UNL     1      47.938   7.283  13.802  0.00  0.00    +0.000 A 
ATOM     23  C   UNL     1      49.013   8.183  13.717  0.00  0.00    +0.000 A 
ATOM     24  C   UNL     1      50.137   8.037  14.530  0.00  0.00    +0.000 A 
ATOM     25  C   UNL     1      50.174   6.975  15.415  0.00  0.00    +0.000 A 
ATOM     26  N   UNL     1      49.178   6.077  15.539  0.00  0.00    +0.000 NA
ATOM     27  C   UNL     1      48.096   6.256  14.740  0.00  0.00    +0.000 A 
ENDBRANCH  20  22
ENDBRANCH   1  15
TORSDOF 4
ENDMDL
MODEL 4
REMARK VINA RESULT:    -8.067      3.462      7.135
REMARK INTER + INTRA:         -10.533
REMARK INTER:                 -10.343
REMARK INTRA:                  -0.190
REMARK UNBOUND:                -0.580
REMARK  Name = 
REMARK  4 active torsions:
REMARK  status: ('A' for Active; 'I' for Inactive)
REMARK    1  A    between atoms: C_2  and  C_4
REMARK    2  A    between atoms: N_8  and  C_9
REMARK    3  A    between atoms: C_9  and  C_10
REMARK    4  A    between atoms: C_15  and  C_16
REMARK                            x       y       z     vdW  Elec       q    Type
REMARK                         _______ _______ _______ _____ _____    ______ ____
ROOT
ATOM      1  C   UNL     1      44.994   6.462  11.252  0.00  0.00    +0.000 C 
ENDROOT
BRANCH   1   6
ATOM      2  C   UNL     1      47.817   5.547  15.169  0.00  0.00    +0.000 A 
ATOM      3  C   UNL     1      46.786   4.882  14.556  0.00  0.00    +0.000 A 
ATOM      4  N   UNL     1      46.299   5.224  13.349  0.00  0.00    +0.000 NA
ATOM      5  C   UNL     1      46.853   6.280  12.732  0.00  0.00    +0.000 A 
ATOM      6  N   UNL     1      46.417   6.637  11.470  0.00  0.00    +0.000 N 
ATOM      7  N   UNL     1      47.847   7.008  13.258  0.00  0.00    +0.000 NA
ATOM      8  C   UNL     1      48.308   6.628  14.475  0.00  0.00    +0.000 A 
ATOM      9  H   UNL     1      46.770   7.568  11.275  0.00  0.00    +0.000 HD
BRANCH   2  11
ATOM     10  N   UNL     1      47.484   5.217  17.548  0.00  0.00    +0.000 N 
ATOM     11  C   UNL     1      48.346   5.176  16.487  0.00  0.00    +0.000 C 
ATOM     12  O   UNL     1      49.507   4.818  16.622  0.00  0.00    +0.000 OA
ATOM     13  H   UNL     1      47.848   4.881  18.435  0.00  0.00    +0.000 HD
ATOM     14  H   UNL     1      46.479   5.267  17.457  0.00  0.00    +0.000 HD
ENDBRANCH   2  11
ENDBRANCH   1   6
BRANCH   1  15
ATOM     15  C   UNL     1      44.731   5.059  10.761  0.00  0.00    +0.000 A 
ATOM     16  C   UNL     1      43.838   4.217  11.424  0.00  0.00    +0.000 A 
ATOM     17  C   UNL     1      43.654   2.922  10.961  0.00  0.00    +0.000 A 
ATOM     18  F   UNL     1      42.801   2.113  11.604  0.00  0.00    +0.000 F 
ATOM     19  C   UNL     1      44.340   2.441   9.847  0.00  0.00    +0.000 A 
ATOM     20  C   UNL     1      45.259   3.250   9.161  0.00  0.00    +0.000 A 
ATOM     21  C   UNL     1      45.440   4.560   9.648  0.00  0.00    +0.000 A 
BRANCH  20  22
ATOM     22  C   UNL     1      46.014   2.752   7.988  0.00  0.00    +0.000 A 
ATOM     23  C   UNL     1      46.258   3.548   6.857  0.00  0.00    +0.000 A 
ATOM     24  C   UNL     1      46.985   3.050   5.774  0.00  0.00    +0.000 A 
ATOM     25  C   UNL     1      47.449   1.750   5.835  0.00  0.00    +0.000 A 
ATOM     26  N   UNL     1      47.242   0.937   6.890  0.00  0.00    +0.000 NA
ATOM     27  C   UNL     1      46.540   1.457   7.929  0.00  0.00    +0.000 A 
ENDBRANCH  20  22
ENDBRANCH   1  15
TORSDOF 4
ENDMDL
MODEL 5
REMARK VINA RESULT:    -7.850      3.236      7.029
REMARK INTER + INTRA:         -10.266
REMARK INTER:                  -9.607
REMARK INTRA:                  -0.659
REMARK UNBOUND:                -0.580
REMARK  Name = 
REMARK  4 active torsions:
REMARK  status: ('A' for Active; 'I' for Inactive)
REMARK    1  A    between atoms: C_2  and  C_4
REMARK    2  A    between atoms: N_8  and  C_9
REMARK    3  A    between atoms: C_9  and  C_10
REMARK    4  A    between atoms: C_15  and  C_16
REMARK                            x       y       z     vdW  Elec       q    Type
REMARK                         _______ _______ _______ _____ _____    ______ ____
ROOT
ATOM      1  C   UNL     1      44.761   6.561  11.071  0.00  0.00    +0.000 C 
ENDROOT
BRANCH   1   6
ATOM      2  C   UNL     1      49.015   7.476  13.356  0.00  0.00    +0.000 A 
ATOM      3  C   UNL     1      48.376   8.017  12.269  0.00  0.00    +0.000 A 
ATOM      4  N   UNL     1      47.098   7.745  11.951  0.00  0.00    +0.000 NA
ATOM      5  C   UNL     1      46.431   6.888  12.741  0.00  0.00    +0.000 A 
ATOM      6  N   UNL     1      45.100   6.616  12.479  0.00  0.00    +0.000 N 
ATOM      7  N   UNL     1      46.972   6.289  13.809  0.00  0.00    +0.000 NA
ATOM      8  C   UNL     1      48.262   6.594  14.095  0.00  0.00    +0.000 A 
ATOM      9  H   UNL     1      44.843   5.795  13.016  0.00  0.00    +0.000 HD
BRANCH   2  11
ATOM     10  N   UNL     1      51.266   8.069  12.675  0.00  0.00    +0.000 N 
ATOM     11  C   UNL     1      50.411   7.771  13.700  0.00  0.00    +0.000 C 
ATOM     12  O   UNL     1      50.785   7.777  14.865  0.00  0.00    +0.000 OA
ATOM     13  H   UNL     1      52.205   8.347  12.941  0.00  0.00    +0.000 HD
ATOM     14  H   UNL     1      50.964   8.314  11.743  0.00  0.00    +0.000 HD
ENDBRANCH   2  11
ENDBRANCH   1   6
BRANCH   1  15
ATOM     15  C   UNL     1      44.605   5.120  10.649  0.00  0.00    +0.000 A 
ATOM     16  C   UNL     1      43.786   4.243  11.361  0.00  0.00    +0.000 A 
ATOM     17  C   UNL     1      43.699   2.917  10.961  0.00  0.00    +0.000 A 
ATOM     18  F   UNL     1      42.918   2.075  11.650  0.00  0.00    +0.000 F 
ATOM     19  C   UNL     1      44.411   2.440   9.861  0.00  0.00    +0.000 A 
ATOM     20  C   UNL     1      45.258   3.285   9.127  0.00  0.00    +0.000 A 
ATOM     21  C   UNL     1      45.340   4.626   9.551  0.00  0.00    +0.000 A 
BRANCH  20  22
ATOM     22  C   UNL     1      46.039   2.792   7.969  0.00  0.00    +0.000 A 
ATOM     23  C   UNL     1      46.342   3.606   6.865  0.00  0.00    +0.000 A 
ATOM     24  C   UNL     1      47.092   3.113   5.796  0.00  0.00    +0.000 A 
ATOM     25  C   UNL     1      47.520   1.800   5.843  0.00  0.00    +0.000 A 
ATOM     26  N   UNL     1      47.256   0.970   6.871  0.00  0.00    +0.000 NA
ATOM     27  C   UNL     1      46.533   1.485   7.898  0.00  0.00    +0.000 A 
ENDBRANCH  20  22
ENDBRANCH   1  15
TORSDOF 4
ENDMDL
MODEL 6
REMARK VINA RESULT:    -7.541      4.852      7.709
REMARK INTER + INTRA:          -9.884
REMARK INTER:                  -9.407
REMARK INTRA:                  -0.477
REMARK UNBOUND:                -0.580
REMARK  Name = 
REMARK  4 active torsions:
REMARK  status: ('A' for Active; 'I' for Inactive)
REMARK    1  A    between atoms: C_2  and  C_4
REMARK    2  A    between atoms: N_8  and  C_9
REMARK    3  A    between atoms: C_9  and  C_10
REMARK    4  A    between atoms: C_15  and  C_16
REMARK                            x       y       z     vdW  Elec       q    Type
REMARK                         _______ _______ _______ _____ _____    ______ ____
ROOT
ATOM      1  C   UNL     1      46.218   5.330  13.883  0.00  0.00    +0.000 C 
ENDROOT
BRANCH   1   6
ATOM      2  C   UNL     1      49.445   3.744  17.233  0.00  0.00    +0.000 A 
ATOM      3  C   UNL     1      48.851   4.953  16.973  0.00  0.00    +0.000 A 
ATOM      4  N   UNL     1      47.817   5.102  16.124  0.00  0.00    +0.000 NA
ATOM      5  C   UNL     1      47.365   4.004  15.497  0.00  0.00    +0.000 A 
ATOM      6  N   UNL     1      46.275   4.103  14.652  0.00  0.00    +0.000 N 
ATOM      7  N   UNL     1      47.893   2.785  15.664  0.00  0.00    +0.000 NA
ATOM      8  C   UNL     1      48.931   2.679  16.530  0.00  0.00    +0.000 A 
ATOM      9  H   UNL     1      46.232   3.250  14.105  0.00  0.00    +0.000 HD
BRANCH   2  11
ATOM     10  N   UNL     1      51.306   2.431  18.064  0.00  0.00    +0.000 N 
ATOM     11  C   UNL     1      50.573   3.582  18.157  0.00  0.00    +0.000 C 
ATOM     12  O   UNL     1      50.861   4.459  18.960  0.00  0.00    +0.000 OA
ATOM     13  H   UNL     1      52.128   2.374  18.656  0.00  0.00    +0.000 HD
ATOM     14  H   UNL     1      51.266   1.800  17.277  0.00  0.00    +0.000 HD
ENDBRANCH   2  11
ENDBRANCH   1   6
BRANCH   1  15
ATOM     15  C   UNL     1      45.291   5.141  12.706  0.00  0.00    +0.000 A 
ATOM     16  C   UNL     1      43.955   5.535  12.768  0.00  0.00    +0.000 A 
ATOM     17  C   UNL     1      43.127   5.309  11.677  0.00  0.00    +0.000 A 
ATOM     18  F   UNL     1      41.842   5.682  11.741  0.00  0.00    +0.000 F 
ATOM     19  C   UNL     1      43.602   4.698  10.517  0.00  0.00    +0.000 A 
ATOM     20  C   UNL     1      44.936   4.272  10.419  0.00  0.00    +0.000 A 
ATOM     21  C   UNL     1      45.760   4.503  11.538  0.00  0.00    +0.000 A 
BRANCH  20  22
ATOM     22  C   UNL     1      45.454   3.602   9.204  0.00  0.00    +0.000 A 
ATOM     23  C   UNL     1      45.911   4.319   8.086  0.00  0.00    +0.000 A 
ATOM     24  C   UNL     1      46.406   3.656   6.963  0.00  0.00    +0.000 A 
ATOM     25  C   UNL     1      46.424   2.274   6.970  0.00  0.00    +0.000 A 
ATOM     26  N   UNL     1      45.994   1.532   8.009  0.00  0.00    +0.000 NA
ATOM     27  C   UNL     1      45.530   2.210   9.089  0.00  0.00    +0.000 A 
ENDBRANCH  20  22
ENDBRANCH   1  15
TORSDOF 4
ENDMDL
MODEL 7
REMARK VINA RESULT:    -7.433      5.384      7.916
REMARK INTER + INTRA:          -9.751
REMARK INTER:                  -9.112
REMARK INTRA:                  -0.639
REMARK UNBOUND:                -0.580
REMARK  Name = 
REMARK  4 active torsions:
REMARK  status: ('A' for Active; 'I' for Inactive)
REMARK    1  A    between atoms: C_2  and  C_4
REMARK    2  A    between atoms: N_8  and  C_9
REMARK    3  A    between atoms: C_9  and  C_10
REMARK    4  A    between atoms: C_15  and  C_16
REMARK                            x       y       z     vdW  Elec       q    Type
REMARK                         _______ _______ _______ _____ _____    ______ ____
ROOT
ATOM      1  C   UNL     1      48.680   6.548  15.795  0.00  0.00    +0.000 C 
ENDROOT
BRANCH   1   6
ATOM      2  C   UNL     1      50.999   2.521  17.396  0.00  0.00    +0.000 A 
ATOM      3  C   UNL     1      51.260   3.866  17.462  0.00  0.00    +0.000 A 
ATOM      4  N   UNL     1      50.360   4.811  17.137  0.00  0.00    +0.000 NA
ATOM      5  C   UNL     1      49.152   4.400  16.716  0.00  0.00    +0.000 A 
ATOM      6  N   UNL     1      48.181   5.337  16.418  0.00  0.00    +0.000 N 
ATOM      7  N   UNL     1      48.809   3.112  16.594  0.00  0.00    +0.000 NA
ATOM      8  C   UNL     1      49.746   2.193  16.934  0.00  0.00    +0.000 A 
ATOM      9  H   UNL     1      47.444   4.863  15.906  0.00  0.00    +0.000 HD
BRANCH   2  11
ATOM     10  N   UNL     1      51.507   0.262  18.114  0.00  0.00    +0.000 N 
ATOM     11  C   UNL     1      51.983   1.491  17.747  0.00  0.00    +0.000 C 
ATOM     12  O   UNL     1      53.183   1.718  17.687  0.00  0.00    +0.000 OA
ATOM     13  H   UNL     1      52.204  -0.459  18.276  0.00  0.00    +0.000 HD
ATOM     14  H   UNL     1      50.561  -0.048  17.949  0.00  0.00    +0.000 HD
ENDBRANCH   2  11
ENDBRANCH   1   6
BRANCH   1  15
ATOM     15  C   UNL     1      48.216   6.602  14.360  0.00  0.00    +0.000 A 
ATOM     16  C   UNL     1      48.773   7.504  13.454  0.00  0.00    +0.000 A 
ATOM     17  C   UNL     1      48.291   7.546  12.153  0.00  0.00    +0.000 A 
ATOM     18  F   UNL     1      48.823   8.419  11.286  0.00  0.00    +0.000 F 
ATOM     19  C   UNL     1      47.264   6.705  11.729  0.00  0.00    +0.000 A 
ATOM     20  C   UNL     1      46.664   5.794  12.613  0.00  0.00    +0.000 A 
ATOM     21  C   UNL     1      47.160   5.769  13.931  0.00  0.00    +0.000 A 
BRANCH  20  22
ATOM     22  C   UNL     1      45.557   4.908  12.188  0.00  0.00    +0.000 A 
ATOM     23  C   UNL     1      45.101   4.857  10.860  0.00  0.00    +0.000 A 
ATOM     24  C   UNL     1      44.063   4.000  10.491  0.00  0.00    +0.000 A 
ATOM     25  C   UNL     1      43.485   3.209  11.467  0.00  0.00    +0.000 A 
ATOM     26  N   UNL     1      43.876   3.218  12.756  0.00  0.00    +0.000 NA
ATOM     27  C   UNL     1      44.894   4.056  13.077  0.00  0.00    +0.000 A 
ENDBRANCH  20  22
ENDBRANCH   1  15
TORSDOF 4
ENDMDL
MODEL 8
REMARK VINA RESULT:    -6.874      5.021      8.065
REMARK INTER + INTRA:          -9.061
REMARK INTER:                  -8.585
REMARK INTRA:                  -0.476
REMARK UNBOUND:                -0.580
REMARK  Name = 
REMARK  4 active torsions:
REMARK  status: ('A' for Active; 'I' for Inactive)
REMARK    1  A    between atoms: C_2  and  C_4
REMARK    2  A    between atoms: N_8  and  C_9
REMARK    3  A    between atoms: C_9  and  C_10
REMARK    4  A    between atoms: C_15  and  C_16
REMARK                            x       y       z     vdW  Elec       q    Type
REMARK                         _______ _______ _______ _____ _____    ______ ____
ROOT
ATOM      1  C   UNL     1      48.328   7.099  14.108  0.00  0.00    +0.000 C 
ENDROOT
BRANCH   1   6
ATOM      2  C   UNL     1      50.833   4.659  17.562  0.00  0.00    +0.000 A 
ATOM      3  C   UNL     1      51.038   5.830  16.879  0.00  0.00    +0.000 A 
ATOM      4  N   UNL     1      50.094   6.421  16.122  0.00  0.00    +0.000 NA
ATOM      5  C   UNL     1      48.901   5.812  16.032  0.00  0.00    +0.000 A 
ATOM      6  N   UNL     1      47.887   6.408  15.304  0.00  0.00    +0.000 N 
ATOM      7  N   UNL     1      48.610   4.655  16.640  0.00  0.00    +0.000 NA
ATOM      8  C   UNL     1      49.589   4.096  17.394  0.00  0.00    +0.000 A 
ATOM      9  H   UNL     1      47.165   5.711  15.156  0.00  0.00    +0.000 HD
BRANCH   2  11
ATOM     10  N   UNL     1      51.718   4.078  19.743  0.00  0.00    +0.000 N 
ATOM     11  C   UNL     1      51.863   4.014  18.385  0.00  0.00    +0.000 C 
ATOM     12  O   UNL     1      52.799   3.419  17.870  0.00  0.00    +0.000 OA
ATOM     13  H   UNL     1      52.397   3.559  20.292  0.00  0.00    +0.000 HD
ATOM     14  H   UNL     1      50.859   4.336  20.207  0.00  0.00    +0.000 HD
ENDBRANCH   2  11
ENDBRANCH   1   6
BRANCH   1  15
ATOM     15  C   UNL     1      47.161   7.266  13.166  0.00  0.00    +0.000 A 
ATOM     16  C   UNL     1      46.401   8.435  13.158  0.00  0.00    +0.000 A 
ATOM     17  C   UNL     1      45.312   8.533  12.301  0.00  0.00    +0.000 A 
ATOM     18  F   UNL     1      44.579   9.654  12.300  0.00  0.00    +0.000 F 
ATOM     19  C   UNL     1      44.962   7.489  11.447  0.00  0.00    +0.000 A 
ATOM     20  C   UNL     1      45.691   6.289  11.435  0.00  0.00    +0.000 A 
ATOM     21  C   UNL     1      46.788   6.204  12.315  0.00  0.00    +0.000 A 
BRANCH  20  22
ATOM     22  C   UNL     1      45.322   5.161  10.549  0.00  0.00    +0.000 A 
ATOM     23  C   UNL     1      45.710   5.104   9.201  0.00  0.00    +0.000 A 
ATOM     24  C   UNL     1      45.357   4.019   8.398  0.00  0.00    +0.000 A 
ATOM     25  C   UNL     1      44.604   3.004   8.958  0.00  0.00    +0.000 A 
ATOM     26  N   UNL     1      44.198   3.005  10.243  0.00  0.00    +0.000 NA
ATOM     27  C   UNL     1      44.568   4.071  10.997  0.00  0.00    +0.000 A 
ENDBRANCH  20  22
ENDBRANCH   1  15
TORSDOF 4
ENDMDL
MODEL 9
REMARK VINA RESULT:    -6.714      5.564      7.146
REMARK INTER + INTRA:          -8.864
REMARK INTER:                  -8.366
REMARK INTRA:                  -0.498
REMARK UNBOUND:                -0.580
REMARK  Name = 
REMARK  4 active torsions:
REMARK  status: ('A' for Active; 'I' for Inactive)
REMARK    1  A    between atoms: C_2  and  C_4
REMARK    2  A    between atoms: N_8  and  C_9
REMARK    3  A    between atoms: C_9  and  C_10
REMARK    4  A    between atoms: C_15  and  C_16
REMARK                            x       y       z     vdW  Elec       q    Type
REMARK                         _______ _______ _______ _____ _____    ______ ____
ROOT
ATOM      1  C   UNL     1      47.148   3.826  15.584  0.00  0.00    +0.000 C 
ENDROOT
BRANCH   1   6
ATOM      2  C   UNL     1      45.528   4.877  11.064  0.00  0.00    +0.000 A 
ATOM      3  C   UNL     1      45.316   3.844  11.941  0.00  0.00    +0.000 A 
ATOM      4  N   UNL     1      45.702   3.876  13.229  0.00  0.00    +0.000 NA
ATOM      5  C   UNL     1      46.337   4.977  13.660  0.00  0.00    +0.000 A 
ATOM      6  N   UNL     1      46.709   5.073  14.989  0.00  0.00    +0.000 N 
ATOM      7  N   UNL     1      46.613   6.028  12.877  0.00  0.00    +0.000 NA
ATOM      8  C   UNL     1      46.205   5.955  11.587  0.00  0.00    +0.000 A 
ATOM      9  H   UNL     1      47.365   5.842  15.070  0.00  0.00    +0.000 HD
BRANCH   2  11
ATOM     10  N   UNL     1      43.829   4.445   9.390  0.00  0.00    +0.000 N 
ATOM     11  C   UNL     1      45.110   4.841   9.658  0.00  0.00    +0.000 C 
ATOM     12  O   UNL     1      45.874   5.180   8.765  0.00  0.00    +0.000 OA
ATOM     13  H   UNL     1      43.535   4.503   8.420  0.00  0.00    +0.000 HD
ATOM     14  H   UNL     1      43.098   4.392  10.084  0.00  0.00    +0.000 HD
ENDBRANCH   2  11
ENDBRANCH   1   6
BRANCH   1  15
ATOM     15  C   UNL     1      48.123   4.118  16.699  0.00  0.00    +0.000 A 
ATOM     16  C   UNL     1      47.913   5.175  17.584  0.00  0.00    +0.000 A 
ATOM     17  C   UNL     1      48.854   5.431  18.572  0.00  0.00    +0.000 A 
ATOM     18  F   UNL     1      48.654   6.452  19.416  0.00  0.00    +0.000 F 
ATOM     19  C   UNL     1      50.004   4.654  18.702  0.00  0.00    +0.000 A 
ATOM     20  C   UNL     1      50.261   3.591  17.822  0.00  0.00    +0.000 A 
ATOM     21  C   UNL     1      49.300   3.349  16.821  0.00  0.00    +0.000 A 
BRANCH  20  22
ATOM     22  C   UNL     1      51.487   2.768  17.930  0.00  0.00    +0.000 A 
ATOM     23  C   UNL     1      51.567   1.464  17.413  0.00  0.00    +0.000 A 
ATOM     24  C   UNL     1      52.743   0.721  17.520  0.00  0.00    +0.000 A 
ATOM     25  C   UNL     1      53.826   1.293  18.160  0.00  0.00    +0.000 A 
ATOM     26  N   UNL     1      53.808   2.536  18.681  0.00  0.00    +0.000 NA
ATOM     27  C   UNL     1      52.652   3.234  18.549  0.00  0.00    +0.000 A 
ENDBRANCH  20  22
ENDBRANCH   1  15
TORSDOF 4
ENDMDL
