MODEL 1
REMARK VINA RESULT:    -7.913      0.000      0.000
REMARK INTER + INTRA:         -11.852
REMARK INTER:                 -10.919
REMARK INTRA:                  -0.933
REMARK UNBOUND:                -0.933
REMARK  Name = 
REMARK  11 active torsions:
REMARK  status: ('A' for Active; 'I' for Inactive)
REMARK    1  A    between atoms: C_1  and  C_2
REMARK    2  A    between atoms: C_2  and  N_3
REMARK    3  A    between atoms: C_2  and  C_4
REMARK    4  A    between atoms: C_7  and  C_8
REMARK    5  A    between atoms: C_8  and  N_9
REMARK    6  A    between atoms: C_11  and  C_12
REMARK    7  A    between atoms: C_13  and  C_14
REMARK    8  A    between atoms: C_14  and  C_15
REMARK    9  A    between atoms: C_14  and  C_16
REMARK   10  A    between atoms: C_14  and  C_17
REMARK   11  A    between atoms: C_20  and  C_21
REMARK                            x       y       z     vdW  Elec       q    Type
REMARK                         _______ _______ _______ _____ _____    ______ ____
ROOT
ATOM      1  N   UNL     1      45.146   5.233  11.772  0.00  0.00    +0.000 N 
ATOM      2  C   UNL     1      45.540   4.318  12.727  0.00  0.00    +0.000 A 
ATOM      3  C   UNL     1      46.334   4.983  13.629  0.00  0.00    +0.000 A 
ATOM      4  C   UNL     1      46.430   6.329  13.234  0.00  0.00    +0.000 A 
ATOM      5  C   UNL     1      47.128   7.438  13.736  0.00  0.00    +0.000 A 
ATOM      6  C   UNL     1      47.023   8.636  13.038  0.00  0.00    +0.000 A 
ATOM      7  C   UNL     1      46.212   8.665  11.902  0.00  0.00    +0.000 A 
ATOM      8  N   UNL     1      45.483   7.624  11.395  0.00  0.00    +0.000 NA
ATOM      9  C   UNL     1      45.653   6.479  12.089  0.00  0.00    +0.000 A 
ENDROOT
BRANCH   6  10
ATOM     10  C   UNL     1      47.747   9.854  13.460  0.00  0.00    +0.000 C 
ATOM     11  N   UNL     1      48.227   9.930  14.737  0.00  0.00    +0.000 N 
ATOM     12  O   UNL     1      47.912  10.795  12.679  0.00  0.00    +0.000 OA
ATOM     13  H   UNL     1      48.107   9.228  15.450  0.00  0.00    +0.000 HD
ATOM     14  H   UNL     1      48.699  10.785  15.003  0.00  0.00    +0.000 HD
ENDBRANCH   6  10
BRANCH   3  15
ATOM     15  C   UNL     1      46.961   4.418  14.761  0.00  0.00    +0.000 C 
ATOM     16  C   UNL     1      47.571   3.945  15.812  0.00  0.00    +0.000 C 
BRANCH  16  17
ATOM     17  C   UNL     1      48.280   3.393  17.037  0.00  0.00    +0.000 C 
ATOM     18  C   UNL     1      49.107   4.513  17.682  0.00  0.00    +0.000 C 
ATOM     19  C   UNL     1      47.233   2.877  18.032  0.00  0.00    +0.000 C 
ATOM     20  C   UNL     1      49.202   2.246  16.608  0.00  0.00    +0.000 C 
ENDBRANCH  16  17
ENDBRANCH   3  15
BRANCH   1  21
ATOM     21  C   UNL     1      44.274   4.909  10.649  0.00  0.00    +0.000 C 
BRANCH  21  25
ATOM     22  C   UNL     1      46.143   2.254   7.762  0.00  0.00    +0.000 A 
ATOM     23  C   UNL     1      45.340   1.727   8.778  0.00  0.00    +0.000 A 
ATOM     24  C   UNL     1      44.708   2.568   9.700  0.00  0.00    +0.000 A 
ATOM     25  C   UNL     1      44.891   3.959   9.648  0.00  0.00    +0.000 A 
ATOM     26  C   UNL     1      45.669   4.485   8.610  0.00  0.00    +0.000 A 
ATOM     27  C   UNL     1      46.277   3.647   7.673  0.00  0.00    +0.000 A 
BRANCH  22  29
ATOM     28  C   UNL     1      46.826  -0.134   7.292  0.00  0.00    +0.000 C 
ATOM     29  C   UNL     1      46.836   1.314   6.800  0.00  0.00    +0.000 C 
BRANCH  29  30
ATOM     30  N   UNL     1      48.203   1.763   6.535  0.00  0.00    +0.000 NA
ATOM     31  H   UNL     1      48.381   2.609   7.074  0.00  0.00    +0.000 HD
ATOM     32  H   UNL     1      48.256   2.051   5.558  0.00  0.00    +0.000 HD
ENDBRANCH  29  30
ENDBRANCH  22  29
ENDBRANCH  21  25
ENDBRANCH   1  21
TORSDOF 7
ENDMDL
MODEL 2
REMARK VINA RESULT:    -7.853      2.252      4.807
REMARK INTER + INTRA:         -11.769
REMARK INTER:                 -10.839
REMARK INTRA:                  -0.931
REMARK UNBOUND:                -0.933
REMARK  Name = 
REMARK  11 active torsions:
REMARK  status: ('A' for Active; 'I' for Inactive)
REMARK    1  A    between atoms: C_1  and  C_2
REMARK    2  A    between atoms: C_2  and  N_3
REMARK    3  A    between atoms: C_2  and  C_4
REMARK    4  A    between atoms: C_7  and  C_8
REMARK    5  A    between atoms: C_8  and  N_9
REMARK    6  A    between atoms: C_11  and  C_12
REMARK    7  A    between atoms: C_13  and  C_14
REMARK    8  A    between atoms: C_14  and  C_15
REMARK    9  A    between atoms: C_14  and  C_16
REMARK   10  A    between atoms: C_14  and  C_17
REMARK   11  A    between atoms: C_20  and  C_21
REMARK                            x       y       z     vdW  Elec       q    Type
REMARK                         _______ _______ _______ _____ _____    ______ ____
ROOT
ATOM      1  N   UNL     1      45.416   5.700  11.439  0.00  0.00    +0.000 N 
ATOM      2  C   UNL     1      45.980   6.915  11.108  0.00  0.00    +0.000 A 
ATOM      3  C   UNL     1      46.884   7.229  12.092  0.00  0.00    +0.000 A 
ATOM      4  C   UNL     1      46.887   6.194  13.044  0.00  0.00    +0.000 A 
ATOM      5  C   UNL     1      47.561   5.998  14.259  0.00  0.00    +0.000 A 
ATOM      6  C   UNL     1      47.270   4.845  14.979  0.00  0.00    +0.000 A 
ATOM      7  C   UNL     1      46.350   3.947  14.436  0.00  0.00    +0.000 A 
ATOM      8  N   UNL     1      45.698   4.073  13.240  0.00  0.00    +0.000 NA
ATOM      9  C   UNL     1      45.989   5.227  12.604  0.00  0.00    +0.000 A 
ENDROOT
BRANCH   6  10
ATOM     10  C   UNL     1      47.896   4.560  16.289  0.00  0.00    +0.000 C 
ATOM     11  N   UNL     1      47.631   5.389  17.343  0.00  0.00    +0.000 N 
ATOM     12  O   UNL     1      48.652   3.596  16.433  0.00  0.00    +0.000 OA
ATOM     13  H   UNL     1      47.056   6.216  17.308  0.00  0.00    +0.000 HD
ATOM     14  H   UNL     1      48.091   5.181  18.220  0.00  0.00    +0.000 HD
ENDBRANCH   6  10
BRANCH   3  15
ATOM     15  C   UNL     1      47.677   8.396  12.153  0.00  0.00    +0.000 C 
ATOM     16  C   UNL     1      48.442   9.452  12.169  0.00  0.00    +0.000 C 
BRANCH  16  17
ATOM     17  C   UNL     1      49.333  10.683  12.188  0.00  0.00    +0.000 C 
ATOM     18  C   UNL     1      49.009  11.516  13.435  0.00  0.00    +0.000 C 
ATOM     19  C   UNL     1      50.800  10.238  12.224  0.00  0.00    +0.000 C 
ATOM     20  C   UNL     1      49.069  11.511  10.925  0.00  0.00    +0.000 C 
ENDBRANCH  16  17
ENDBRANCH   3  15
BRANCH   1  21
ATOM     21  C   UNL     1      44.416   5.020  10.623  0.00  0.00    +0.000 C 
BRANCH  21  25
ATOM     22  C   UNL     1      46.188   2.272   7.763  0.00  0.00    +0.000 A 
ATOM     23  C   UNL     1      45.377   1.782   8.793  0.00  0.00    +0.000 A 
ATOM     24  C   UNL     1      44.777   2.655   9.706  0.00  0.00    +0.000 A 
ATOM     25  C   UNL     1      44.999   4.039   9.632  0.00  0.00    +0.000 A 
ATOM     26  C   UNL     1      45.783   4.527   8.581  0.00  0.00    +0.000 A 
ATOM     27  C   UNL     1      46.360   3.659   7.652  0.00  0.00    +0.000 A 
BRANCH  22  29
ATOM     28  C   UNL     1      46.772  -0.145   7.309  0.00  0.00    +0.000 C 
ATOM     29  C   UNL     1      46.847   1.298   6.810  0.00  0.00    +0.000 C 
BRANCH  29  30
ATOM     30  N   UNL     1      48.234   1.688   6.553  0.00  0.00    +0.000 NA
ATOM     31  H   UNL     1      48.541   2.315   7.294  0.00  0.00    +0.000 HD
ATOM     32  H   UNL     1      48.249   2.250   5.702  0.00  0.00    +0.000 HD
ENDBRANCH  29  30
ENDBRANCH  22  29
ENDBRANCH  21  25
ENDBRANCH   1  21
TORSDOF 7
ENDMDL
MODEL 3
REMARK VINA RESULT:    -7.267      2.021      2.566
REMARK INTER + INTRA:         -10.961
REMARK INTER:                 -10.001
REMARK INTRA:                  -0.960
REMARK UNBOUND:                -0.933
REMARK  Name = 
REMARK  11 active torsions:
REMARK  status: ('A' for Active; 'I' for Inactive)
REMARK    1  A    between atoms: C_1  and  C_2
REMARK    2  A    between atoms: C_2  and  N_3
REMARK    3  A    between atoms: C_2  and  C_4
REMARK    4  A    between atoms: C_7  and  C_8
REMARK    5  A    between atoms: C_8  and  N_9
REMARK    6  A    between atoms: C_11  and  C_12
REMARK    7  A    between atoms: C_13  and  C_14
REMARK    8  A    between atoms: C_14  and  C_15
REMARK    9  A    between atoms: C_14  and  C_16
REMARK   10  A    between atoms: C_14  and  C_17
REMARK   11  A    between atoms: C_20  and  C_21
REMARK                            x       y       z     vdW  Elec       q    Type
REMARK                         _______ _______ _______ _____ _____    ______ ____
ROOT
ATOM      1  N   UNL     1      44.908   5.306  11.749  0.00  0.00    +0.000 N 
ATOM      2  C   UNL     1      45.922   5.062  12.651  0.00  0.00    +0.000 A 
ATOM      3  C   UNL     1      46.357   6.277  13.119  0.00  0.00    +0.000 A 
ATOM      4  C   UNL     1      45.600   7.290  12.505  0.00  0.00    +0.000 A 
ATOM      5  C   UNL     1      45.631   8.692  12.562  0.00  0.00    +0.000 A 
ATOM      6  C   UNL     1      44.739   9.390  11.757  0.00  0.00    +0.000 A 
ATOM      7  C   UNL     1      43.854   8.654  10.966  0.00  0.00    +0.000 A 
ATOM      8  N   UNL     1      43.758   7.291  10.904  0.00  0.00    +0.000 NA
ATOM      9  C   UNL     1      44.673   6.666  11.676  0.00  0.00    +0.000 A 
ENDROOT
BRANCH   6  10
ATOM     10  C   UNL     1      44.714  10.868  11.714  0.00  0.00    +0.000 C 
ATOM     11  N   UNL     1      43.525  11.516  11.898  0.00  0.00    +0.000 N 
ATOM     12  O   UNL     1      45.745  11.513  11.507  0.00  0.00    +0.000 OA
ATOM     13  H   UNL     1      42.631  11.071  12.036  0.00  0.00    +0.000 HD
ATOM     14  H   UNL     1      43.536  12.526  11.841  0.00  0.00    +0.000 HD
ENDBRANCH   6  10
BRANCH   3  15
ATOM     15  C   UNL     1      47.396   6.486  14.053  0.00  0.00    +0.000 C 
ATOM     16  C   UNL     1      48.316   6.676  14.957  0.00  0.00    +0.000 C 
BRANCH  16  17
ATOM     17  C   UNL     1      49.389   6.897  16.010  0.00  0.00    +0.000 C 
ATOM     18  C   UNL     1      50.695   7.303  15.316  0.00  0.00    +0.000 C 
ATOM     19  C   UNL     1      48.935   8.011  16.961  0.00  0.00    +0.000 C 
ATOM     20  C   UNL     1      49.597   5.595  16.793  0.00  0.00    +0.000 C 
ENDBRANCH  16  17
ENDBRANCH   3  15
BRANCH   1  21
ATOM     21  C   UNL     1      44.175   4.259  11.047  0.00  0.00    +0.000 C 
BRANCH  21  25
ATOM     22  C   UNL     1      46.381   2.695   7.646  0.00  0.00    +0.000 A 
ATOM     23  C   UNL     1      45.735   1.818   8.523  0.00  0.00    +0.000 A 
ATOM     24  C   UNL     1      44.999   2.304   9.607  0.00  0.00    +0.000 A 
ATOM     25  C   UNL     1      44.915   3.683   9.861  0.00  0.00    +0.000 A 
ATOM     26  C   UNL     1      45.535   4.559   8.963  0.00  0.00    +0.000 A 
ATOM     27  C   UNL     1      46.248   4.075   7.864  0.00  0.00    +0.000 A 
BRANCH  22  29
ATOM     28  C   UNL     1      46.739   2.671   5.144  0.00  0.00    +0.000 C 
ATOM     29  C   UNL     1      47.196   2.135   6.500  0.00  0.00    +0.000 C 
BRANCH  29  30
ATOM     30  N   UNL     1      47.169   0.672   6.517  0.00  0.00    +0.000 NA
ATOM     31  H   UNL     1      47.647   0.344   7.354  0.00  0.00    +0.000 HD
ATOM     32  H   UNL     1      47.735   0.338   5.737  0.00  0.00    +0.000 HD
ENDBRANCH  29  30
ENDBRANCH  22  29
ENDBRANCH  21  25
ENDBRANCH   1  21
TORSDOF 7
ENDMDL
MODEL 4
REMARK VINA RESULT:    -6.880      3.179      7.985
REMARK INTER + INTRA:         -10.427
REMARK INTER:                  -9.808
REMARK INTRA:                  -0.619
REMARK UNBOUND:                -0.933
REMARK  Name = 
REMARK  11 active torsions:
REMARK  status: ('A' for Active; 'I' for Inactive)
REMARK    1  A    between atoms: C_1  and  C_2
REMARK    2  A    between atoms: C_2  and  N_3
REMARK    3  A    between atoms: C_2  and  C_4
REMARK    4  A    between atoms: C_7  and  C_8
REMARK    5  A    between atoms: C_8  and  N_9
REMARK    6  A    between atoms: C_11  and  C_12
REMARK    7  A    between atoms: C_13  and  C_14
REMARK    8  A    between atoms: C_14  and  C_15
REMARK    9  A    between atoms: C_14  and  C_16
REMARK   10  A    between atoms: C_14  and  C_17
REMARK   11  A    between atoms: C_20  and  C_21
REMARK                            x       y       z     vdW  Elec       q    Type
REMARK                         _______ _______ _______ _____ _____    ______ ____
ROOT
ATOM      1  N   UNL     1      47.362   5.071  15.111  0.00  0.00    +0.000 N 
ATOM      2  C   UNL     1      48.219   6.135  14.919  0.00  0.00    +0.000 A 
ATOM      3  C   UNL     1      47.959   6.652  13.674  0.00  0.00    +0.000 A 
ATOM      4  C   UNL     1      46.924   5.905  13.087  0.00  0.00    +0.000 A 
ATOM      5  C   UNL     1      46.289   5.946  11.836  0.00  0.00    +0.000 A 
ATOM      6  C   UNL     1      45.311   4.992  11.576  0.00  0.00    +0.000 A 
ATOM      7  C   UNL     1      45.007   4.075  12.583  0.00  0.00    +0.000 A 
ATOM      8  N   UNL     1      45.567   4.017  13.829  0.00  0.00    +0.000 NA
ATOM      9  C   UNL     1      46.535   4.941  14.011  0.00  0.00    +0.000 A 
ENDROOT
BRANCH   6  10
ATOM     10  C   UNL     1      44.609   4.924  10.277  0.00  0.00    +0.000 C 
ATOM     11  N   UNL     1      45.333   5.054   9.125  0.00  0.00    +0.000 N 
ATOM     12  O   UNL     1      43.387   4.760  10.226  0.00  0.00    +0.000 OA
ATOM     13  H   UNL     1      46.324   5.227   9.073  0.00  0.00    +0.000 HD
ATOM     14  H   UNL     1      44.821   5.026   8.253  0.00  0.00    +0.000 HD
ENDBRANCH   6  10
BRANCH   3  15
ATOM     15  C   UNL     1      48.621   7.744  13.071  0.00  0.00    +0.000 C 
ATOM     16  C   UNL     1      49.188   8.785  12.528  0.00  0.00    +0.000 C 
BRANCH  16  17
ATOM     17  C   UNL     1      49.849   9.998  11.895  0.00  0.00    +0.000 C 
ATOM     18  C   UNL     1      48.822  10.724  11.016  0.00  0.00    +0.000 C 
ATOM     19  C   UNL     1      50.342  10.935  13.004  0.00  0.00    +0.000 C 
ATOM     20  C   UNL     1      51.033   9.534  11.038  0.00  0.00    +0.000 C 
ENDBRANCH  16  17
ENDBRANCH   3  15
BRANCH   1  21
ATOM     21  C   UNL     1      47.320   4.271  16.330  0.00  0.00    +0.000 C 
BRANCH  21  25
ATOM     22  C   UNL     1      51.212   2.770  17.544  0.00  0.00    +0.000 A 
ATOM     23  C   UNL     1      50.887   4.115  17.749  0.00  0.00    +0.000 A 
ATOM     24  C   UNL     1      49.630   4.609  17.389  0.00  0.00    +0.000 A 
ATOM     25  C   UNL     1      48.674   3.776  16.784  0.00  0.00    +0.000 A 
ATOM     26  C   UNL     1      48.991   2.424  16.611  0.00  0.00    +0.000 A 
ATOM     27  C   UNL     1      50.237   1.924  16.996  0.00  0.00    +0.000 A 
BRANCH  22  29
ATOM     28  C   UNL     1      52.718   0.755  17.795  0.00  0.00    +0.000 C 
ATOM     29  C   UNL     1      52.593   2.274  17.916  0.00  0.00    +0.000 C 
BRANCH  29  30
ATOM     30  N   UNL     1      52.954   2.720  19.262  0.00  0.00    +0.000 NA
ATOM     31  H   UNL     1      52.746   1.973  19.922  0.00  0.00    +0.000 HD
ATOM     32  H   UNL     1      52.330   3.485  19.518  0.00  0.00    +0.000 HD
ENDBRANCH  29  30
ENDBRANCH  22  29
ENDBRANCH  21  25
ENDBRANCH   1  21
TORSDOF 7
ENDMDL
MODEL 5
REMARK VINA RESULT:    -6.658      3.261      7.633
REMARK INTER + INTRA:         -10.120
REMARK INTER:                  -9.150
REMARK INTRA:                  -0.970
REMARK UNBOUND:                -0.933
REMARK  Name = 
REMARK  11 active torsions:
REMARK  status: ('A' for Active; 'I' for Inactive)
REMARK    1  A    between atoms: C_1  and  C_2
REMARK    2  A    between atoms: C_2  and  N_3
REMARK    3  A    between atoms: C_2  and  C_4
REMARK    4  A    between atoms: C_7  and  C_8
REMARK    5  A    between atoms: C_8  and  N_9
REMARK    6  A    between atoms: C_11  and  C_12
REMARK    7  A    between atoms: C_13  and  C_14
REMARK    8  A    between atoms: C_14  and  C_15
REMARK    9  A    between atoms: C_14  and  C_16
REMARK   10  A    between atoms: C_14  and  C_17
REMARK   11  A    between atoms: C_20  and  C_21
REMARK                            x       y       z     vdW  Elec       q    Type
REMARK                         _______ _______ _______ _____ _____    ______ ____
ROOT
ATOM      1  N   UNL     1      48.082   5.146  15.993  0.00  0.00    +0.000 N 
ATOM      2  C   UNL     1      47.065   4.426  15.400  0.00  0.00    +0.000 A 
ATOM      3  C   UNL     1      46.949   4.871  14.106  0.00  0.00    +0.000 A 
ATOM      4  C   UNL     1      47.908   5.875  13.889  0.00  0.00    +0.000 A 
ATOM      5  C   UNL     1      48.217   6.701  12.798  0.00  0.00    +0.000 A 
ATOM      6  C   UNL     1      49.227   7.642  12.965  0.00  0.00    +0.000 A 
ATOM      7  C   UNL     1      49.885   7.685  14.195  0.00  0.00    +0.000 A 
ATOM      8  N   UNL     1      49.649   6.879  15.275  0.00  0.00    +0.000 NA
ATOM      9  C   UNL     1      48.634   6.012  15.069  0.00  0.00    +0.000 A 
ENDROOT
BRANCH   6  10
ATOM     10  C   UNL     1      49.604   8.585  11.891  0.00  0.00    +0.000 C 
ATOM     11  N   UNL     1      50.831   8.461  11.302  0.00  0.00    +0.000 N 
ATOM     12  O   UNL     1      48.832   9.478  11.532  0.00  0.00    +0.000 OA
ATOM     13  H   UNL     1      51.537   7.788  11.556  0.00  0.00    +0.000 HD
ATOM     14  H   UNL     1      51.069   9.135  10.586  0.00  0.00    +0.000 HD
ENDBRANCH   6  10
BRANCH   3  15
ATOM     15  C   UNL     1      46.019   4.411  13.148  0.00  0.00    +0.000 C 
ATOM     16  C   UNL     1      45.195   4.003  12.222  0.00  0.00    +0.000 C 
BRANCH  16  17
ATOM     17  C   UNL     1      44.236   3.528  11.144  0.00  0.00    +0.000 C 
ATOM     18  C   UNL     1      43.253   2.522  11.757  0.00  0.00    +0.000 C 
ATOM     19  C   UNL     1      43.470   4.735  10.588  0.00  0.00    +0.000 C 
ATOM     20  C   UNL     1      45.037   2.856  10.022  0.00  0.00    +0.000 C 
ENDBRANCH  16  17
ENDBRANCH   3  15
BRANCH   1  21
ATOM     21  C   UNL     1      48.520   4.948  17.370  0.00  0.00    +0.000 C 
BRANCH  21  25
ATOM     22  C   UNL     1      51.933   2.306  17.865  0.00  0.00    +0.000 A 
ATOM     23  C   UNL     1      50.724   1.801  17.376  0.00  0.00    +0.000 A 
ATOM     24  C   UNL     1      49.623   2.642  17.184  0.00  0.00    +0.000 A 
ATOM     25  C   UNL     1      49.694   4.007  17.509  0.00  0.00    +0.000 A 
ATOM     26  C   UNL     1      50.915   4.514  17.966  0.00  0.00    +0.000 A 
ATOM     27  C   UNL     1      52.023   3.680  18.131  0.00  0.00    +0.000 A 
BRANCH  22  29
ATOM     28  C   UNL     1      54.219   1.573  17.075  0.00  0.00    +0.000 C 
ATOM     29  C   UNL     1      53.095   1.363  18.089  0.00  0.00    +0.000 C 
BRANCH  29  30
ATOM     30  N   UNL     1      52.639  -0.027  18.079  0.00  0.00    +0.000 NA
ATOM     31  H   UNL     1      52.037  -0.169  17.270  0.00  0.00    +0.000 HD
ATOM     32  H   UNL     1      52.036  -0.166  18.891  0.00  0.00    +0.000 HD
ENDBRANCH  29  30
ENDBRANCH  22  29
ENDBRANCH  21  25
ENDBRANCH   1  21
TORSDOF 7
ENDMDL
MODEL 6
REMARK VINA RESULT:    -6.383      3.351      6.389
REMARK INTER + INTRA:          -9.741
REMARK INTER:                  -9.028
REMARK INTRA:                  -0.713
REMARK UNBOUND:                -0.933
REMARK  Name = 
REMARK  11 active torsions:
REMARK  status: ('A' for Active; 'I' for Inactive)
REMARK    1  A    between atoms: C_1  and  C_2
REMARK    2  A    between atoms: C_2  and  N_3
REMARK    3  A    between atoms: C_2  and  C_4
REMARK    4  A    between atoms: C_7  and  C_8
REMARK    5  A    between atoms: C_8  and  N_9
REMARK    6  A    between atoms: C_11  and  C_12
REMARK    7  A    between atoms: C_13  and  C_14
REMARK    8  A    between atoms: C_14  and  C_15
REMARK    9  A    between atoms: C_14  and  C_16
REMARK   10  A    between atoms: C_14  and  C_17
REMARK   11  A    between atoms: C_20  and  C_21
REMARK                            x       y       z     vdW  Elec       q    Type
REMARK                         _______ _______ _______ _____ _____    ______ ____
ROOT
ATOM      1  N   UNL     1      46.977   7.340  12.680  0.00  0.00    +0.000 N 
ATOM      2  C   UNL     1      47.545   6.889  13.853  0.00  0.00    +0.000 A 
ATOM      3  C   UNL     1      47.142   5.589  14.031  0.00  0.00    +0.000 A 
ATOM      4  C   UNL     1      46.319   5.224  12.952  0.00  0.00    +0.000 A 
ATOM      5  C   UNL     1      45.600   4.062  12.631  0.00  0.00    +0.000 A 
ATOM      6  C   UNL     1      44.831   4.077  11.473  0.00  0.00    +0.000 A 
ATOM      7  C   UNL     1      44.844   5.234  10.693  0.00  0.00    +0.000 A 
ATOM      8  N   UNL     1      45.556   6.376  10.941  0.00  0.00    +0.000 NA
ATOM      9  C   UNL     1      46.252   6.318  12.096  0.00  0.00    +0.000 A 
ENDROOT
BRANCH   6  10
ATOM     10  C   UNL     1      44.008   2.919  11.064  0.00  0.00    +0.000 C 
ATOM     11  N   UNL     1      44.408   2.168   9.995  0.00  0.00    +0.000 N 
ATOM     12  O   UNL     1      42.971   2.634  11.669  0.00  0.00    +0.000 OA
ATOM     13  H   UNL     1      45.217   2.348   9.422  0.00  0.00    +0.000 HD
ATOM     14  H   UNL     1      43.812   1.395   9.725  0.00  0.00    +0.000 HD
ENDBRANCH   6  10
BRANCH   3  15
ATOM     15  C   UNL     1      47.484   4.752  15.117  0.00  0.00    +0.000 C 
ATOM     16  C   UNL     1      47.847   4.010  16.126  0.00  0.00    +0.000 C 
BRANCH  16  17
ATOM     17  C   UNL     1      48.270   3.146  17.302  0.00  0.00    +0.000 C 
ATOM     18  C   UNL     1      49.265   2.086  16.811  0.00  0.00    +0.000 C 
ATOM     19  C   UNL     1      48.933   4.033  18.362  0.00  0.00    +0.000 C 
ATOM     20  C   UNL     1      47.030   2.463  17.893  0.00  0.00    +0.000 C 
ENDBRANCH  16  17
ENDBRANCH   3  15
BRANCH   1  21
ATOM     21  C   UNL     1      47.186   8.678  12.138  0.00  0.00    +0.000 C 
BRANCH  21  25
ATOM     22  C   UNL     1      51.262   9.545  10.911  0.00  0.00    +0.000 A 
ATOM     23  C   UNL     1      50.874   8.225  11.160  0.00  0.00    +0.000 A 
ATOM     24  C   UNL     1      49.559   7.924  11.529  0.00  0.00    +0.000 A 
ATOM     25  C   UNL     1      48.606   8.942  11.692  0.00  0.00    +0.000 A 
ATOM     26  C   UNL     1      48.990  10.258  11.409  0.00  0.00    +0.000 A 
ATOM     27  C   UNL     1      50.295  10.556  11.013  0.00  0.00    +0.000 A 
BRANCH  22  29
ATOM     28  C   UNL     1      52.821  10.568   9.204  0.00  0.00    +0.000 C 
ATOM     29  C   UNL     1      52.700   9.839  10.542  0.00  0.00    +0.000 C 
BRANCH  29  30
ATOM     30  N   UNL     1      53.493   8.609  10.538  0.00  0.00    +0.000 NA
ATOM     31  H   UNL     1      52.880   7.824  10.752  0.00  0.00    +0.000 HD
ATOM     32  H   UNL     1      54.151   8.656  11.316  0.00  0.00    +0.000 HD
ENDBRANCH  29  30
ENDBRANCH  22  29
ENDBRANCH  21  25
ENDBRANCH   1  21
TORSDOF 7
ENDMDL
MODEL 7
REMARK VINA RESULT:    -6.277      2.948      5.102
REMARK INTER + INTRA:          -9.594
REMARK INTER:                  -8.894
REMARK INTRA:                  -0.701
REMARK UNBOUND:                -0.933
REMARK  Name = 
REMARK  11 active torsions:
REMARK  status: ('A' for Active; 'I' for Inactive)
REMARK    1  A    between atoms: C_1  and  C_2
REMARK    2  A    between atoms: C_2  and  N_3
REMARK    3  A    between atoms: C_2  and  C_4
REMARK    4  A    between atoms: C_7  and  C_8
REMARK    5  A    between atoms: C_8  and  N_9
REMARK    6  A    between atoms: C_11  and  C_12
REMARK    7  A    between atoms: C_13  and  C_14
REMARK    8  A    between atoms: C_14  and  C_15
REMARK    9  A    between atoms: C_14  and  C_16
REMARK   10  A    between atoms: C_14  and  C_17
REMARK   11  A    between atoms: C_20  and  C_21
REMARK                            x       y       z     vdW  Elec       q    Type
REMARK                         _______ _______ _______ _____ _____    ______ ____
ROOT
ATOM      1  N   UNL     1      46.107   5.783  13.446  0.00  0.00    +0.000 N 
ATOM      2  C   UNL     1      46.820   6.898  13.060  0.00  0.00    +0.000 A 
ATOM      3  C   UNL     1      47.909   6.996  13.890  0.00  0.00    +0.000 A 
ATOM      4  C   UNL     1      47.877   5.926  14.799  0.00  0.00    +0.000 A 
ATOM      5  C   UNL     1      48.687   5.548  15.882  0.00  0.00    +0.000 A 
ATOM      6  C   UNL     1      48.312   4.424  16.608  0.00  0.00    +0.000 A 
ATOM      7  C   UNL     1      47.172   3.730  16.200  0.00  0.00    +0.000 A 
ATOM      8  N   UNL     1      46.372   4.033  15.132  0.00  0.00    +0.000 NA
ATOM      9  C   UNL     1      46.762   5.154  14.488  0.00  0.00    +0.000 A 
ENDROOT
BRANCH   6  10
ATOM     10  C   UNL     1      49.074   3.963  17.788  0.00  0.00    +0.000 C 
ATOM     11  N   UNL     1      48.435   3.868  18.993  0.00  0.00    +0.000 N 
ATOM     12  O   UNL     1      50.270   3.675  17.696  0.00  0.00    +0.000 OA
ATOM     13  H   UNL     1      47.474   4.116  19.168  0.00  0.00    +0.000 HD
ATOM     14  H   UNL     1      48.989   3.571  19.786  0.00  0.00    +0.000 HD
ENDBRANCH   6  10
BRANCH   3  15
ATOM     15  C   UNL     1      48.898   8.004  13.851  0.00  0.00    +0.000 C 
ATOM     16  C   UNL     1      49.783   8.959  13.771  0.00  0.00    +0.000 C 
BRANCH  16  17
ATOM     17  C   UNL     1      50.814  10.072  13.679  0.00  0.00    +0.000 C 
ATOM     18  C   UNL     1      50.817  10.860  14.996  0.00  0.00    +0.000 C 
ATOM     19  C   UNL     1      52.196   9.454  13.437  0.00  0.00    +0.000 C 
ATOM     20  C   UNL     1      50.445  11.001  12.516  0.00  0.00    +0.000 C 
ENDBRANCH  16  17
ENDBRANCH   3  15
BRANCH   1  21
ATOM     21  C   UNL     1      44.886   5.332  12.788  0.00  0.00    +0.000 C 
BRANCH  21  25
ATOM     22  C   UNL     1      45.625   3.716   8.824  0.00  0.00    +0.000 A 
ATOM     23  C   UNL     1      45.172   2.877   9.847  0.00  0.00    +0.000 A 
ATOM     24  C   UNL     1      44.903   3.385  11.122  0.00  0.00    +0.000 A 
ATOM     25  C   UNL     1      45.112   4.742  11.415  0.00  0.00    +0.000 A 
ATOM     26  C   UNL     1      45.533   5.585  10.380  0.00  0.00    +0.000 A 
ATOM     27  C   UNL     1      45.775   5.083   9.099  0.00  0.00    +0.000 A 
BRANCH  22  29
ATOM     28  C   UNL     1      46.679   1.796   7.562  0.00  0.00    +0.000 C 
ATOM     29  C   UNL     1      45.936   3.129   7.464  0.00  0.00    +0.000 C 
BRANCH  29  30
ATOM     30  N   UNL     1      46.687   4.084   6.649  0.00  0.00    +0.000 NA
ATOM     31  H   UNL     1      46.395   3.988   5.679  0.00  0.00    +0.000 HD
ATOM     32  H   UNL     1      47.668   3.807   6.664  0.00  0.00    +0.000 HD
ENDBRANCH  29  30
ENDBRANCH  22  29
ENDBRANCH  21  25
ENDBRANCH   1  21
TORSDOF 7
ENDMDL
MODEL 8
REMARK VINA RESULT:    -6.053      4.450      7.212
REMARK INTER + INTRA:          -9.286
REMARK INTER:                  -8.648
REMARK INTRA:                  -0.638
REMARK UNBOUND:                -0.933
REMARK  Name = 
REMARK  11 active torsions:
REMARK  status: ('A' for Active; 'I' for Inactive)
REMARK    1  A    between atoms: C_1  and  C_2
REMARK    2  A    between atoms: C_2  and  N_3
REMARK    3  A    between atoms: C_2  and  C_4
REMARK    4  A    between atoms: C_7  and  C_8
REMARK    5  A    between atoms: C_8  and  N_9
REMARK    6  A    between atoms: C_11  and  C_12
REMARK    7  A    between atoms: C_13  and  C_14
REMARK    8  A    between atoms: C_14  and  C_15
REMARK    9  A    between atoms: C_14  and  C_16
REMARK   10  A    between atoms: C_14  and  C_17
REMARK   11  A    between atoms: C_20  and  C_21
REMARK                            x       y       z     vdW  Elec       q    Type
REMARK                         _______ _______ _______ _____ _____    ______ ____
ROOT
ATOM      1  N   UNL     1      48.734   7.453  13.608  0.00  0.00    +0.000 N 
ATOM      2  C   UNL     1      47.783   7.174  12.648  0.00  0.00    +0.000 A 
ATOM      3  C   UNL     1      47.037   6.117  13.105  0.00  0.00    +0.000 A 
ATOM      4  C   UNL     1      47.524   5.737  14.368  0.00  0.00    +0.000 A 
ATOM      5  C   UNL     1      47.188   4.714  15.269  0.00  0.00    +0.000 A 
ATOM      6  C   UNL     1      47.940   4.607  16.433  0.00  0.00    +0.000 A 
ATOM      7  C   UNL     1      48.960   5.537  16.643  0.00  0.00    +0.000 A 
ATOM      8  N   UNL     1      49.301   6.573  15.817  0.00  0.00    +0.000 NA
ATOM      9  C   UNL     1      48.564   6.605  14.686  0.00  0.00    +0.000 A 
ENDROOT
BRANCH   6  10
ATOM     10  C   UNL     1      47.694   3.543  17.430  0.00  0.00    +0.000 C 
ATOM     11  N   UNL     1      48.667   3.256  18.346  0.00  0.00    +0.000 N 
ATOM     12  O   UNL     1      46.632   2.915  17.436  0.00  0.00    +0.000 OA
ATOM     13  H   UNL     1      49.575   3.691  18.392  0.00  0.00    +0.000 HD
ATOM     14  H   UNL     1      48.477   2.508  19.001  0.00  0.00    +0.000 HD
ENDBRANCH   6  10
BRANCH   3  15
ATOM     15  C   UNL     1      45.963   5.500  12.426  0.00  0.00    +0.000 C 
ATOM     16  C   UNL     1      44.937   4.949  11.840  0.00  0.00    +0.000 C 
BRANCH  16  17
ATOM     17  C   UNL     1      43.741   4.306  11.156  0.00  0.00    +0.000 C 
ATOM     18  C   UNL     1      44.022   4.203   9.651  0.00  0.00    +0.000 C 
ATOM     19  C   UNL     1      43.521   2.907  11.744  0.00  0.00    +0.000 C 
ATOM     20  C   UNL     1      42.501   5.175  11.396  0.00  0.00    +0.000 C 
ENDBRANCH  16  17
ENDBRANCH   3  15
BRANCH   1  21
ATOM     21  C   UNL     1      49.710   8.530  13.495  0.00  0.00    +0.000 C 
BRANCH  21  25
ATOM     22  C   UNL     1      52.975   7.699  10.752  0.00  0.00    +0.000 A 
ATOM     23  C   UNL     1      51.659   7.406  10.381  0.00  0.00    +0.000 A 
ATOM     24  C   UNL     1      50.593   7.691  11.240  0.00  0.00    +0.000 A 
ATOM     25  C   UNL     1      50.820   8.249  12.509  0.00  0.00    +0.000 A 
ATOM     26  C   UNL     1      52.135   8.572  12.862  0.00  0.00    +0.000 A 
ATOM     27  C   UNL     1      53.197   8.313  11.994  0.00  0.00    +0.000 A 
BRANCH  22  29
ATOM     28  C   UNL     1      53.652   7.276   8.354  0.00  0.00    +0.000 C 
ATOM     29  C   UNL     1      54.108   7.349   9.811  0.00  0.00    +0.000 C 
BRANCH  29  30
ATOM     30  N   UNL     1      54.748   6.098  10.219  0.00  0.00    +0.000 NA
ATOM     31  H   UNL     1      54.767   5.464   9.422  0.00  0.00    +0.000 HD
ATOM     32  H   UNL     1      54.146   5.646  10.908  0.00  0.00    +0.000 HD
ENDBRANCH  29  30
ENDBRANCH  22  29
ENDBRANCH  21  25
ENDBRANCH   1  21
TORSDOF 7
ENDMDL
MODEL 9
REMARK VINA RESULT:    -5.841      4.080      6.154
REMARK INTER + INTRA:          -8.993
REMARK INTER:                  -8.071
REMARK INTRA:                  -0.922
REMARK UNBOUND:                -0.933
REMARK  Name = 
REMARK  11 active torsions:
REMARK  status: ('A' for Active; 'I' for Inactive)
REMARK    1  A    between atoms: C_1  and  C_2
REMARK    2  A    between atoms: C_2  and  N_3
REMARK    3  A    between atoms: C_2  and  C_4
REMARK    4  A    between atoms: C_7  and  C_8
REMARK    5  A    between atoms: C_8  and  N_9
REMARK    6  A    between atoms: C_11  and  C_12
REMARK    7  A    between atoms: C_13  and  C_14
REMARK    8  A    between atoms: C_14  and  C_15
REMARK    9  A    between atoms: C_14  and  C_16
REMARK   10  A    between atoms: C_14  and  C_17
REMARK   11  A    between atoms: C_20  and  C_21
REMARK                            x       y       z     vdW  Elec       q    Type
REMARK                         _______ _______ _______ _____ _____    ______ ____
ROOT
ATOM      1  N   UNL     1      47.962   8.006  12.788  0.00  0.00    +0.000 N 
ATOM      2  C   UNL     1      48.634   7.649  11.638  0.00  0.00    +0.000 A 
ATOM      3  C   UNL     1      49.975   7.823  11.875  0.00  0.00    +0.000 A 
ATOM      4  C   UNL     1      50.140   8.289  13.191  0.00  0.00    +0.000 A 
ATOM      5  C   UNL     1      51.256   8.676  13.949  0.00  0.00    +0.000 A 
ATOM      6  C   UNL     1      51.030   9.144  15.238  0.00  0.00    +0.000 A 
ATOM      7  C   UNL     1      49.714   9.174  15.703  0.00  0.00    +0.000 A 
ATOM      8  N   UNL     1      48.599   8.773  15.020  0.00  0.00    +0.000 NA
ATOM      9  C   UNL     1      48.874   8.365  13.763  0.00  0.00    +0.000 A 
ENDROOT
BRANCH   6  10
ATOM     10  C   UNL     1      52.131   9.611  16.107  0.00  0.00    +0.000 C 
ATOM     11  N   UNL     1      52.990   8.691  16.639  0.00  0.00    +0.000 N 
ATOM     12  O   UNL     1      52.274  10.811  16.358  0.00  0.00    +0.000 OA
ATOM     13  H   UNL     1      52.928   7.693  16.518  0.00  0.00    +0.000 HD
ATOM     14  H   UNL     1      53.720   9.040  17.247  0.00  0.00    +0.000 HD
ENDBRANCH   6  10
BRANCH   3  15
ATOM     15  C   UNL     1      51.021   7.587  10.956  0.00  0.00    +0.000 C 
ATOM     16  C   UNL     1      51.974   7.313  10.109  0.00  0.00    +0.000 C 
BRANCH  16  17
ATOM     17  C   UNL     1      53.085   6.995   9.122  0.00  0.00    +0.000 C 
ATOM     18  C   UNL     1      52.471   6.769   7.734  0.00  0.00    +0.000 C 
ATOM     19  C   UNL     1      54.065   8.173   9.074  0.00  0.00    +0.000 C 
ATOM     20  C   UNL     1      53.815   5.727   9.582  0.00  0.00    +0.000 C 
ENDBRANCH  16  17
ENDBRANCH   3  15
BRANCH   1  21
ATOM     21  C   UNL     1      46.513   7.939  12.936  0.00  0.00    +0.000 C 
BRANCH  21  25
ATOM     22  C   UNL     1      44.803   4.184  11.576  0.00  0.00    +0.000 A 
ATOM     23  C   UNL     1      45.551   4.224  12.757  0.00  0.00    +0.000 A 
ATOM     24  C   UNL     1      46.086   5.428  13.224  0.00  0.00    +0.000 A 
ATOM     25  C   UNL     1      45.913   6.621  12.503  0.00  0.00    +0.000 A 
ATOM     26  C   UNL     1      45.136   6.583  11.340  0.00  0.00    +0.000 A 
ATOM     27  C   UNL     1      44.578   5.385  10.888  0.00  0.00    +0.000 A 
BRANCH  22  29
ATOM     28  C   UNL     1      44.362   2.719   9.564  0.00  0.00    +0.000 C 
ATOM     29  C   UNL     1      44.264   2.859  11.083  0.00  0.00    +0.000 C 
BRANCH  29  30
ATOM     30  N   UNL     1      42.886   2.662  11.535  0.00  0.00    +0.000 NA
ATOM     31  H   UNL     1      42.265   2.718  10.730  0.00  0.00    +0.000 HD
ATOM     32  H   UNL     1      42.633   3.456  12.125  0.00  0.00    +0.000 HD
ENDBRANCH  29  30
ENDBRANCH  22  29
ENDBRANCH  21  25
ENDBRANCH   1  21
TORSDOF 7
ENDMDL
