MODEL 1
REMARK VINA RESULT:    -7.492      0.000      0.000
REMARK INTER + INTRA:         -12.452
REMARK INTER:                 -10.996
REMARK INTRA:                  -1.456
REMARK UNBOUND:                -1.456
REMARK  Name = 
REMARK  9 active torsions:
REMARK  status: ('A' for Active; 'I' for Inactive)
REMARK    1  A    between atoms: C_1  and  O_2
REMARK    2  A    between atoms: O_2  and  C_3
REMARK    3  A    between atoms: C_3  and  C_5
REMARK    4  A    between atoms: C_5  and  N_6
REMARK    5  A    between atoms: C_5  and  C_19
REMARK    6  A    between atoms: C_7  and  C_9
REMARK    7  A    between atoms: C_22  and  C_23
REMARK    8  A    between atoms: C_23  and  N_24
REMARK    9  A    between atoms: C_25  and  C_27
REMARK                            x       y       z     vdW  Elec       q    Type
REMARK                         _______ _______ _______ _____ _____    ______ ____
ROOT
ATOM      1  C   UNL     1      47.319   7.658  12.836  0.00  0.00    +0.000 C 
ENDROOT
BRANCH   1   2
ATOM      2  C   UNL     1      46.382   6.717  12.060  0.00  0.00    +0.000 A 
ATOM      3  C   UNL     1      46.528   6.584  10.669  0.00  0.00    +0.000 A 
ATOM      4  C   UNL     1      45.752   5.672   9.940  0.00  0.00    +0.000 A 
ATOM      5  C   UNL     1      44.772   4.887  10.563  0.00  0.00    +0.000 A 
ATOM      6  C   UNL     1      44.611   5.024  11.950  0.00  0.00    +0.000 A 
ATOM      7  C   UNL     1      45.409   5.920  12.687  0.00  0.00    +0.000 A 
BRANCH   5   8
ATOM      8  C   UNL     1      43.912   3.925   9.764  0.00  0.00    +0.000 C 
BRANCH   8   9
ATOM      9  N   UNL     1      44.540   3.519   8.519  0.00  0.00    +0.000 N 
ATOM     10  C   UNL     1      45.409   2.449   8.444  0.00  0.00    +0.000 C 
ATOM     11  O   UNL     1      45.706   1.765   9.412  0.00  0.00    +0.000 OA
ATOM     12  H   UNL     1      44.363   4.085   7.705  0.00  0.00    +0.000 HD
BRANCH  10  13
ATOM     13  C   UNL     1      45.903   2.159   7.020  0.00  0.00    +0.000 C 
ATOM     14  C   UNL     1      47.039   1.145   6.950  0.00  0.00    +0.000 C 
ATOM     15  C   UNL     1      48.280   2.001   6.800  0.00  0.00    +0.000 C 
ATOM     16  N   UNL     1      47.847   3.092   5.919  0.00  0.00    +0.000 NA
ATOM     17  C   UNL     1      46.470   3.402   6.334  0.00  0.00    +0.000 C 
ATOM     18  H   UNL     1      47.838   2.746   4.959  0.00  0.00    +0.000 HD
ENDBRANCH  10  13
ENDBRANCH   8   9
ENDBRANCH   5   8
ENDBRANCH   1   2
BRANCH   1  19
ATOM     19  N   UNL     1      47.516   7.144  14.190  0.00  0.00    +0.000 N 
ATOM     20  C   UNL     1      48.755   6.977  14.759  0.00  0.00    +0.000 C 
ATOM     21  O   UNL     1      49.792   7.299  14.192  0.00  0.00    +0.000 OA
ATOM     22  H   UNL     1      46.734   6.631  14.581  0.00  0.00    +0.000 HD
BRANCH  20  23
ATOM     23  C   UNL     1      48.768   6.411  16.115  0.00  0.00    +0.000 A 
ATOM     24  C   UNL     1      49.313   7.115  17.186  0.00  0.00    +0.000 A 
ATOM     25  S   UNL     1      49.209   6.280  18.671  0.00  0.00    +0.000 S 
ATOM     26  C   UNL     1      48.490   4.925  17.929  0.00  0.00    +0.000 A 
ATOM     27  N   UNL     1      48.175   3.812  18.638  0.00  0.00    +0.000 NA
ATOM     28  C   UNL     1      47.672   2.851  17.932  0.00  0.00    +0.000 A 
ATOM     29  N   UNL     1      47.441   2.912  16.584  0.00  0.00    +0.000 N 
ATOM     30  C   UNL     1      47.690   4.030  15.840  0.00  0.00    +0.000 A 
ATOM     31  O   UNL     1      47.385   4.082  14.652  0.00  0.00    +0.000 OA
ATOM     32  C   UNL     1      48.292   5.130  16.576  0.00  0.00    +0.000 A 
ATOM     33  H   UNL     1      47.020   2.140  16.092  0.00  0.00    +0.000 HD
ENDBRANCH  20  23
ENDBRANCH   1  19
BRANCH   1  34
ATOM     34  C   UNL     1      46.814   9.124  12.853  0.00  0.00    +0.000 C 
ATOM     35  O   UNL     1      47.520  10.123  12.776  0.00  0.00    +0.000 OA
BRANCH  34  37
ATOM     36  C   UNL     1      44.837  10.061  11.972  0.00  0.00    +0.000 C 
ATOM     37  O   UNL     1      45.446   9.165  12.906  0.00  0.00    +0.000 OA
ENDBRANCH  34  37
ENDBRANCH   1  34
TORSDOF 8
ENDMDL
MODEL 2
REMARK VINA RESULT:    -7.418      2.369      4.647
REMARK INTER + INTRA:         -12.344
REMARK INTER:                 -11.020
REMARK INTRA:                  -1.324
REMARK UNBOUND:                -1.456
REMARK  Name = 
REMARK  9 active torsions:
REMARK  status: ('A' for Active; 'I' for Inactive)
REMARK    1  A    between atoms: C_1  and  O_2
REMARK    2  A    between atoms: O_2  and  C_3
REMARK    3  A    between atoms: C_3  and  C_5
REMARK    4  A    between atoms: C_5  and  N_6
REMARK    5  A    between atoms: C_5  and  C_19
REMARK    6  A    between atoms: C_7  and  C_9
REMARK    7  A    between atoms: C_22  and  C_23
REMARK    8  A    between atoms: C_23  and  N_24
REMARK    9  A    between atoms: C_25  and  C_27
REMARK                            x       y       z     vdW  Elec       q    Type
REMARK                         _______ _______ _______ _____ _____    ______ ____
ROOT
ATOM      1  C   UNL     1      46.992   5.187  14.266  0.00  0.00    +0.000 C 
ENDROOT
BRANCH   1   2
ATOM      2  C   UNL     1      46.268   4.996  12.922  0.00  0.00    +0.000 A 
ATOM      3  C   UNL     1      45.466   3.860  12.721  0.00  0.00    +0.000 A 
ATOM      4  C   UNL     1      44.723   3.695  11.544  0.00  0.00    +0.000 A 
ATOM      5  C   UNL     1      44.781   4.635  10.506  0.00  0.00    +0.000 A 
ATOM      6  C   UNL     1      45.590   5.765  10.694  0.00  0.00    +0.000 A 
ATOM      7  C   UNL     1      46.316   5.945  11.887  0.00  0.00    +0.000 A 
BRANCH   5   8
ATOM      8  C   UNL     1      44.000   4.434   9.220  0.00  0.00    +0.000 C 
BRANCH   8   9
ATOM      9  N   UNL     1      44.565   3.392   8.381  0.00  0.00    +0.000 N 
ATOM     10  C   UNL     1      45.696   3.594   7.615  0.00  0.00    +0.000 C 
ATOM     11  O   UNL     1      46.305   4.654   7.594  0.00  0.00    +0.000 OA
ATOM     12  H   UNL     1      44.068   2.518   8.329  0.00  0.00    +0.000 HD
BRANCH  10  13
ATOM     13  C   UNL     1      46.155   2.341   6.857  0.00  0.00    +0.000 C 
ATOM     14  C   UNL     1      47.217   1.527   7.586  0.00  0.00    +0.000 C 
ATOM     15  C   UNL     1      48.513   1.942   6.920  0.00  0.00    +0.000 C 
ATOM     16  N   UNL     1      48.148   2.086   5.506  0.00  0.00    +0.000 NA
ATOM     17  C   UNL     1      46.800   2.675   5.512  0.00  0.00    +0.000 C 
ATOM     18  H   UNL     1      48.106   1.156   5.088  0.00  0.00    +0.000 HD
ENDBRANCH  10  13
ENDBRANCH   8   9
ENDBRANCH   5   8
ENDBRANCH   1   2
BRANCH   1  19
ATOM     19  N   UNL     1      48.247   5.904  14.047  0.00  0.00    +0.000 N 
ATOM     20  C   UNL     1      48.758   6.816  14.938  0.00  0.00    +0.000 C 
ATOM     21  O   UNL     1      48.226   7.059  16.014  0.00  0.00    +0.000 OA
ATOM     22  H   UNL     1      48.570   5.936  13.087  0.00  0.00    +0.000 HD
BRANCH  20  23
ATOM     23  C   UNL     1      50.011   7.471  14.538  0.00  0.00    +0.000 A 
ATOM     24  C   UNL     1      51.164   7.355  15.310  0.00  0.00    +0.000 A 
ATOM     25  S   UNL     1      52.506   8.181  14.653  0.00  0.00    +0.000 S 
ATOM     26  C   UNL     1      51.581   8.774  13.351  0.00  0.00    +0.000 A 
ATOM     27  N   UNL     1      52.119   9.600  12.418  0.00  0.00    +0.000 NA
ATOM     28  C   UNL     1      51.285  10.000  11.512  0.00  0.00    +0.000 A 
ATOM     29  N   UNL     1      49.968   9.634  11.448  0.00  0.00    +0.000 N 
ATOM     30  C   UNL     1      49.398   8.761  12.332  0.00  0.00    +0.000 A 
ATOM     31  O   UNL     1      48.239   8.382  12.191  0.00  0.00    +0.000 OA
ATOM     32  C   UNL     1      50.280   8.308  13.395  0.00  0.00    +0.000 A 
ATOM     33  H   UNL     1      49.372   9.955  10.701  0.00  0.00    +0.000 HD
ENDBRANCH  20  23
ENDBRANCH   1  19
BRANCH   1  34
ATOM     34  C   UNL     1      47.224   3.850  15.015  0.00  0.00    +0.000 C 
ATOM     35  O   UNL     1      47.900   2.911  14.607  0.00  0.00    +0.000 OA
BRANCH  34  37
ATOM     36  C   UNL     1      47.514   3.853  17.355  0.00  0.00    +0.000 C 
ATOM     37  O   UNL     1      46.617   3.869  16.242  0.00  0.00    +0.000 OA
ENDBRANCH  34  37
ENDBRANCH   1  34
TORSDOF 8
ENDMDL
MODEL 3
REMARK VINA RESULT:    -7.336      2.585      4.274
REMARK INTER + INTRA:         -12.223
REMARK INTER:                 -11.062
REMARK INTRA:                  -1.161
REMARK UNBOUND:                -1.456
REMARK  Name = 
REMARK  9 active torsions:
REMARK  status: ('A' for Active; 'I' for Inactive)
REMARK    1  A    between atoms: C_1  and  O_2
REMARK    2  A    between atoms: O_2  and  C_3
REMARK    3  A    between atoms: C_3  and  C_5
REMARK    4  A    between atoms: C_5  and  N_6
REMARK    5  A    between atoms: C_5  and  C_19
REMARK    6  A    between atoms: C_7  and  C_9
REMARK    7  A    between atoms: C_22  and  C_23
REMARK    8  A    between atoms: C_23  and  N_24
REMARK    9  A    between atoms: C_25  and  C_27
REMARK                            x       y       z     vdW  Elec       q    Type
REMARK                         _______ _______ _______ _____ _____    ______ ____
ROOT
ATOM      1  C   UNL     1      46.902   5.273  14.106  0.00  0.00    +0.000 C 
ENDROOT
BRANCH   1   2
ATOM      2  C   UNL     1      46.201   5.056  12.755  0.00  0.00    +0.000 A 
ATOM      3  C   UNL     1      45.385   3.927  12.569  0.00  0.00    +0.000 A 
ATOM      4  C   UNL     1      44.662   3.739  11.384  0.00  0.00    +0.000 A 
ATOM      5  C   UNL     1      44.754   4.648  10.321  0.00  0.00    +0.000 A 
ATOM      6  C   UNL     1      45.577   5.771  10.493  0.00  0.00    +0.000 A 
ATOM      7  C   UNL     1      46.283   5.974  11.695  0.00  0.00    +0.000 A 
BRANCH   5   8
ATOM      8  C   UNL     1      43.994   4.423   9.027  0.00  0.00    +0.000 C 
BRANCH   8   9
ATOM      9  N   UNL     1      44.578   3.371   8.213  0.00  0.00    +0.000 N 
ATOM     10  C   UNL     1      45.730   3.561   7.476  0.00  0.00    +0.000 C 
ATOM     11  O   UNL     1      46.343   4.618   7.461  0.00  0.00    +0.000 OA
ATOM     12  H   UNL     1      44.079   2.499   8.157  0.00  0.00    +0.000 HD
BRANCH  10  13
ATOM     13  C   UNL     1      46.204   2.298   6.744  0.00  0.00    +0.000 C 
ATOM     14  C   UNL     1      47.242   1.486   7.509  0.00  0.00    +0.000 C 
ATOM     15  C   UNL     1      48.557   1.890   6.876  0.00  0.00    +0.000 C 
ATOM     16  N   UNL     1      48.232   2.021   5.451  0.00  0.00    +0.000 NA
ATOM     17  C   UNL     1      46.888   2.617   5.414  0.00  0.00    +0.000 C 
ATOM     18  H   UNL     1      48.198   1.087   5.041  0.00  0.00    +0.000 HD
ENDBRANCH  10  13
ENDBRANCH   8   9
ENDBRANCH   5   8
ENDBRANCH   1   2
BRANCH   1  19
ATOM     19  N   UNL     1      48.158   5.991  13.894  0.00  0.00    +0.000 N 
ATOM     20  C   UNL     1      48.274   7.355  14.010  0.00  0.00    +0.000 C 
ATOM     21  O   UNL     1      47.342   8.071  14.353  0.00  0.00    +0.000 OA
ATOM     22  H   UNL     1      48.863   5.491  13.366  0.00  0.00    +0.000 HD
BRANCH  20  23
ATOM     23  C   UNL     1      49.603   7.912  13.724  0.00  0.00    +0.000 A 
ATOM     24  C   UNL     1      49.822   8.721  12.611  0.00  0.00    +0.000 A 
ATOM     25  S   UNL     1      51.432   9.271  12.478  0.00  0.00    +0.000 S 
ATOM     26  C   UNL     1      51.909   8.402  13.863  0.00  0.00    +0.000 A 
ATOM     27  N   UNL     1      53.196   8.402  14.292  0.00  0.00    +0.000 NA
ATOM     28  C   UNL     1      53.414   7.664  15.334  0.00  0.00    +0.000 A 
ATOM     29  N   UNL     1      52.456   6.942  15.992  0.00  0.00    +0.000 N 
ATOM     30  C   UNL     1      51.138   6.957  15.630  0.00  0.00    +0.000 A 
ATOM     31  O   UNL     1      50.290   6.371  16.298  0.00  0.00    +0.000 OA
ATOM     32  C   UNL     1      50.841   7.740  14.442  0.00  0.00    +0.000 A 
ATOM     33  H   UNL     1      52.680   6.407  16.817  0.00  0.00    +0.000 HD
ENDBRANCH  20  23
ENDBRANCH   1  19
BRANCH   1  34
ATOM     34  C   UNL     1      47.127   3.951  14.883  0.00  0.00    +0.000 C 
ATOM     35  O   UNL     1      47.764   2.985  14.478  0.00  0.00    +0.000 OA
BRANCH  34  37
ATOM     36  C   UNL     1      47.467   4.384  17.176  0.00  0.00    +0.000 C 
ATOM     37  O   UNL     1      46.564   4.019  16.129  0.00  0.00    +0.000 OA
ENDBRANCH  34  37
ENDBRANCH   1  34
TORSDOF 8
ENDMDL
MODEL 4
REMARK VINA RESULT:    -7.191      1.734      2.487
REMARK INTER + INTRA:         -12.010
REMARK INTER:                 -10.718
REMARK INTRA:                  -1.293
REMARK UNBOUND:                -1.456
REMARK  Name = 
REMARK  9 active torsions:
REMARK  status: ('A' for Active; 'I' for Inactive)
REMARK    1  A    between atoms: C_1  and  O_2
REMARK    2  A    between atoms: O_2  and  C_3
REMARK    3  A    between atoms: C_3  and  C_5
REMARK    4  A    between atoms: C_5  and  N_6
REMARK    5  A    between atoms: C_5  and  C_19
REMARK    6  A    between atoms: C_7  and  C_9
REMARK    7  A    between atoms: C_22  and  C_23
REMARK    8  A    between atoms: C_23  and  N_24
REMARK    9  A    between atoms: C_25  and  C_27
REMARK                            x       y       z     vdW  Elec       q    Type
REMARK                         _______ _______ _______ _____ _____    ______ ____
ROOT
ATOM      1  C   UNL     1      47.971   6.704  13.555  0.00  0.00    +0.000 C 
ENDROOT
BRANCH   1   2
ATOM      2  C   UNL     1      46.895   6.043  12.676  0.00  0.00    +0.000 A 
ATOM      3  C   UNL     1      46.617   6.571  11.404  0.00  0.00    +0.000 A 
ATOM      4  C   UNL     1      45.706   5.946  10.541  0.00  0.00    +0.000 A 
ATOM      5  C   UNL     1      45.008   4.793  10.928  0.00  0.00    +0.000 A 
ATOM      6  C   UNL     1      45.270   4.269  12.202  0.00  0.00    +0.000 A 
ATOM      7  C   UNL     1      46.205   4.881  13.059  0.00  0.00    +0.000 A 
BRANCH   5   8
ATOM      8  C   UNL     1      43.999   4.140  10.002  0.00  0.00    +0.000 C 
BRANCH   8   9
ATOM      9  N   UNL     1      44.580   3.751   8.729  0.00  0.00    +0.000 N 
ATOM     10  C   UNL     1      45.306   2.587   8.573  0.00  0.00    +0.000 C 
ATOM     11  O   UNL     1      45.504   1.799   9.487  0.00  0.00    +0.000 OA
ATOM     12  H   UNL     1      44.485   4.394   7.961  0.00  0.00    +0.000 HD
BRANCH  10  13
ATOM     13  C   UNL     1      45.771   2.343   7.132  0.00  0.00    +0.000 C 
ATOM     14  C   UNL     1      46.809   1.235   6.991  0.00  0.00    +0.000 C 
ATOM     15  C   UNL     1      48.124   1.980   6.889  0.00  0.00    +0.000 C 
ATOM     16  N   UNL     1      47.794   3.160   6.081  0.00  0.00    +0.000 NA
ATOM     17  C   UNL     1      46.452   3.569   6.522  0.00  0.00    +0.000 C 
ATOM     18  H   UNL     1      47.754   2.878   5.101  0.00  0.00    +0.000 HD
ENDBRANCH  10  13
ENDBRANCH   8   9
ENDBRANCH   5   8
ENDBRANCH   1   2
BRANCH   1  19
ATOM     19  N   UNL     1      47.889   6.170  14.913  0.00  0.00    +0.000 N 
ATOM     20  C   UNL     1      48.955   6.148  15.779  0.00  0.00    +0.000 C 
ATOM     21  O   UNL     1      50.047   6.626  15.496  0.00  0.00    +0.000 OA
ATOM     22  H   UNL     1      47.112   5.543  15.090  0.00  0.00    +0.000 HD
BRANCH  20  23
ATOM     23  C   UNL     1      48.703   5.538  17.092  0.00  0.00    +0.000 A 
ATOM     24  C   UNL     1      48.788   4.160  17.274  0.00  0.00    +0.000 A 
ATOM     25  S   UNL     1      48.472   3.667  18.878  0.00  0.00    +0.000 S 
ATOM     26  C   UNL     1      48.150   5.266  19.371  0.00  0.00    +0.000 A 
ATOM     27  N   UNL     1      47.770   5.554  20.641  0.00  0.00    +0.000 NA
ATOM     28  C   UNL     1      47.522   6.806  20.856  0.00  0.00    +0.000 A 
ATOM     29  N   UNL     1      47.637   7.796  19.918  0.00  0.00    +0.000 N 
ATOM     30  C   UNL     1      48.070   7.562  18.643  0.00  0.00    +0.000 A 
ATOM     31  O   UNL     1      48.249   8.485  17.854  0.00  0.00    +0.000 OA
ATOM     32  C   UNL     1      48.327   6.165  18.334  0.00  0.00    +0.000 A 
ATOM     33  H   UNL     1      47.457   8.760  20.152  0.00  0.00    +0.000 HD
ENDBRANCH  20  23
ENDBRANCH   1  19
BRANCH   1  34
ATOM     34  C   UNL     1      47.882   8.252  13.546  0.00  0.00    +0.000 C 
ATOM     35  O   UNL     1      46.951   8.916  13.991  0.00  0.00    +0.000 OA
BRANCH  34  37
ATOM     36  C   UNL     1      49.886   7.871  12.365  0.00  0.00    +0.000 C 
ATOM     37  O   UNL     1      49.021   8.801  13.023  0.00  0.00    +0.000 OA
ENDBRANCH  34  37
ENDBRANCH   1  34
TORSDOF 8
ENDMDL
MODEL 5
REMARK VINA RESULT:    -6.882      2.248      3.354
REMARK INTER + INTRA:         -11.557
REMARK INTER:                 -10.062
REMARK INTRA:                  -1.495
REMARK UNBOUND:                -1.456
REMARK  Name = 
REMARK  9 active torsions:
REMARK  status: ('A' for Active; 'I' for Inactive)
REMARK    1  A    between atoms: C_1  and  O_2
REMARK    2  A    between atoms: O_2  and  C_3
REMARK    3  A    between atoms: C_3  and  C_5
REMARK    4  A    between atoms: C_5  and  N_6
REMARK    5  A    between atoms: C_5  and  C_19
REMARK    6  A    between atoms: C_7  and  C_9
REMARK    7  A    between atoms: C_22  and  C_23
REMARK    8  A    between atoms: C_23  and  N_24
REMARK    9  A    between atoms: C_25  and  C_27
REMARK                            x       y       z     vdW  Elec       q    Type
REMARK                         _______ _______ _______ _____ _____    ______ ____
ROOT
ATOM      1  C   UNL     1      48.761   6.955  14.032  0.00  0.00    +0.000 C 
ENDROOT
BRANCH   1   2
ATOM      2  C   UNL     1      47.560   6.467  13.204  0.00  0.00    +0.000 A 
ATOM      3  C   UNL     1      47.350   6.982  11.914  0.00  0.00    +0.000 A 
ATOM      4  C   UNL     1      46.319   6.500  11.097  0.00  0.00    +0.000 A 
ATOM      5  C   UNL     1      45.430   5.514  11.549  0.00  0.00    +0.000 A 
ATOM      6  C   UNL     1      45.625   5.004  12.841  0.00  0.00    +0.000 A 
ATOM      7  C   UNL     1      46.678   5.469  13.652  0.00  0.00    +0.000 A 
BRANCH   5   8
ATOM      8  C   UNL     1      44.295   5.019  10.673  0.00  0.00    +0.000 C 
BRANCH   8   9
ATOM      9  N   UNL     1      44.744   4.622   9.350  0.00  0.00    +0.000 N 
ATOM     10  C   UNL     1      45.236   3.359   9.086  0.00  0.00    +0.000 C 
ATOM     11  O   UNL     1      45.321   2.487   9.938  0.00  0.00    +0.000 OA
ATOM     12  H   UNL     1      44.738   5.324   8.629  0.00  0.00    +0.000 HD
BRANCH  10  13
ATOM     13  C   UNL     1      45.591   3.136   7.610  0.00  0.00    +0.000 C 
ATOM     14  C   UNL     1      46.089   1.731   7.294  0.00  0.00    +0.000 C 
ATOM     15  C   UNL     1      47.595   1.882   7.242  0.00  0.00    +0.000 C 
ATOM     16  N   UNL     1      47.793   3.188   6.603  0.00  0.00    +0.000 NA
ATOM     17  C   UNL     1      46.726   4.047   7.138  0.00  0.00    +0.000 C 
ATOM     18  H   UNL     1      47.661   3.077   5.597  0.00  0.00    +0.000 HD
ENDBRANCH  10  13
ENDBRANCH   8   9
ENDBRANCH   5   8
ENDBRANCH   1   2
BRANCH   1  19
ATOM     19  N   UNL     1      48.385   7.028  15.442  0.00  0.00    +0.000 N 
ATOM     20  C   UNL     1      49.179   6.555  16.459  0.00  0.00    +0.000 C 
ATOM     21  O   UNL     1      50.291   6.081  16.263  0.00  0.00    +0.000 OA
ATOM     22  H   UNL     1      47.397   7.160  15.625  0.00  0.00    +0.000 HD
BRANCH  20  23
ATOM     23  C   UNL     1      48.625   6.676  17.815  0.00  0.00    +0.000 A 
ATOM     24  C   UNL     1      48.454   5.556  18.626  0.00  0.00    +0.000 A 
ATOM     25  S   UNL     1      47.811   5.926  20.164  0.00  0.00    +0.000 S 
ATOM     26  C   UNL     1      47.681   7.581  19.780  0.00  0.00    +0.000 A 
ATOM     27  N   UNL     1      47.157   8.473  20.658  0.00  0.00    +0.000 NA
ATOM     28  C   UNL     1      47.086   9.686  20.212  0.00  0.00    +0.000 A 
ATOM     29  N   UNL     1      47.509  10.087  18.973  0.00  0.00    +0.000 N 
ATOM     30  C   UNL     1      48.094   9.236  18.079  0.00  0.00    +0.000 A 
ATOM     31  O   UNL     1      48.546   9.647  17.014  0.00  0.00    +0.000 OA
ATOM     32  C   UNL     1      48.165   7.850  18.513  0.00  0.00    +0.000 A 
ATOM     33  H   UNL     1      47.455  11.053  18.691  0.00  0.00    +0.000 HD
ENDBRANCH  20  23
ENDBRANCH   1  19
BRANCH   1  34
ATOM     34  C   UNL     1      49.329   8.305  13.523  0.00  0.00    +0.000 C 
ATOM     35  O   UNL     1      48.767   9.392  13.607  0.00  0.00    +0.000 OA
BRANCH  34  37
ATOM     36  C   UNL     1      51.636   8.704  13.806  0.00  0.00    +0.000 C 
ATOM     37  O   UNL     1      50.588   8.139  13.012  0.00  0.00    +0.000 OA
ENDBRANCH  34  37
ENDBRANCH   1  34
TORSDOF 8
ENDMDL
MODEL 6
REMARK VINA RESULT:    -6.857      1.925      2.523
REMARK INTER + INTRA:         -11.520
REMARK INTER:                 -10.467
REMARK INTRA:                  -1.053
REMARK UNBOUND:                -1.456
REMARK  Name = 
REMARK  9 active torsions:
REMARK  status: ('A' for Active; 'I' for Inactive)
REMARK    1  A    between atoms: C_1  and  O_2
REMARK    2  A    between atoms: O_2  and  C_3
REMARK    3  A    between atoms: C_3  and  C_5
REMARK    4  A    between atoms: C_5  and  N_6
REMARK    5  A    between atoms: C_5  and  C_19
REMARK    6  A    between atoms: C_7  and  C_9
REMARK    7  A    between atoms: C_22  and  C_23
REMARK    8  A    between atoms: C_23  and  N_24
REMARK    9  A    between atoms: C_25  and  C_27
REMARK                            x       y       z     vdW  Elec       q    Type
REMARK                         _______ _______ _______ _____ _____    ______ ____
ROOT
ATOM      1  C   UNL     1      48.668   6.963  13.834  0.00  0.00    +0.000 C 
ENDROOT
BRANCH   1   2
ATOM      2  C   UNL     1      47.393   6.524  13.094  0.00  0.00    +0.000 A 
ATOM      3  C   UNL     1      46.433   5.749  13.765  0.00  0.00    +0.000 A 
ATOM      4  C   UNL     1      45.220   5.403  13.153  0.00  0.00    +0.000 A 
ATOM      5  C   UNL     1      44.935   5.781  11.834  0.00  0.00    +0.000 A 
ATOM      6  C   UNL     1      45.895   6.543  11.152  0.00  0.00    +0.000 A 
ATOM      7  C   UNL     1      47.102   6.914  11.776  0.00  0.00    +0.000 A 
BRANCH   5   8
ATOM      8  C   UNL     1      43.635   5.375  11.165  0.00  0.00    +0.000 C 
BRANCH   8   9
ATOM      9  N   UNL     1      43.849   4.629   9.937  0.00  0.00    +0.000 N 
ATOM     10  C   UNL     1      44.441   3.382   9.924  0.00  0.00    +0.000 C 
ATOM     11  O   UNL     1      44.817   2.814  10.939  0.00  0.00    +0.000 OA
ATOM     12  H   UNL     1      43.599   5.080   9.072  0.00  0.00    +0.000 HD
BRANCH  10  13
ATOM     13  C   UNL     1      44.508   2.750   8.527  0.00  0.00    +0.000 C 
ATOM     14  C   UNL     1      45.124   1.356   8.503  0.00  0.00    +0.000 C 
ATOM     15  C   UNL     1      46.549   1.597   8.050  0.00  0.00    +0.000 C 
ATOM     16  N   UNL     1      46.421   2.659   7.045  0.00  0.00    +0.000 NA
ATOM     17  C   UNL     1      45.378   3.558   7.562  0.00  0.00    +0.000 C 
ATOM     18  H   UNL     1      46.100   2.239   6.172  0.00  0.00    +0.000 HD
ENDBRANCH  10  13
ENDBRANCH   8   9
ENDBRANCH   5   8
ENDBRANCH   1   2
BRANCH   1  19
ATOM     19  N   UNL     1      48.390   7.071  15.265  0.00  0.00    +0.000 N 
ATOM     20  C   UNL     1      49.290   6.706  16.236  0.00  0.00    +0.000 C 
ATOM     21  O   UNL     1      50.420   6.311  15.976  0.00  0.00    +0.000 OA
ATOM     22  H   UNL     1      47.410   7.134  15.516  0.00  0.00    +0.000 HD
BRANCH  20  23
ATOM     23  C   UNL     1      48.827   6.845  17.624  0.00  0.00    +0.000 A 
ATOM     24  C   UNL     1      48.486   8.089  18.149  0.00  0.00    +0.000 A 
ATOM     25  S   UNL     1      47.961   8.018  19.772  0.00  0.00    +0.000 S 
ATOM     26  C   UNL     1      48.229   6.338  19.851  0.00  0.00    +0.000 A 
ATOM     27  N   UNL     1      48.017   5.639  20.994  0.00  0.00    +0.000 NA
ATOM     28  C   UNL     1      48.302   4.378  20.913  0.00  0.00    +0.000 A 
ATOM     29  N   UNL     1      48.763   3.755  19.785  0.00  0.00    +0.000 N 
ATOM     30  C   UNL     1      48.938   4.406  18.597  0.00  0.00    +0.000 A 
ATOM     31  O   UNL     1      49.265   3.798  17.582  0.00  0.00    +0.000 OA
ATOM     32  C   UNL     1      48.669   5.834  18.640  0.00  0.00    +0.000 A 
ATOM     33  H   UNL     1      48.941   2.762  19.774  0.00  0.00    +0.000 HD
ENDBRANCH  20  23
ENDBRANCH   1  19
BRANCH   1  34
ATOM     34  C   UNL     1      49.263   8.279  13.269  0.00  0.00    +0.000 C 
ATOM     35  O   UNL     1      50.244   8.363  12.539  0.00  0.00    +0.000 OA
BRANCH  34  37
ATOM     36  C   UNL     1      49.172  10.618  13.559  0.00  0.00    +0.000 C 
ATOM     37  O   UNL     1      48.506   9.355  13.648  0.00  0.00    +0.000 OA
ENDBRANCH  34  37
ENDBRANCH   1  34
TORSDOF 8
ENDMDL
MODEL 7
REMARK VINA RESULT:    -6.719      3.561      8.341
REMARK INTER + INTRA:         -11.317
REMARK INTER:                  -9.802
REMARK INTRA:                  -1.515
REMARK UNBOUND:                -1.456
REMARK  Name = 
REMARK  9 active torsions:
REMARK  status: ('A' for Active; 'I' for Inactive)
REMARK    1  A    between atoms: C_1  and  O_2
REMARK    2  A    between atoms: O_2  and  C_3
REMARK    3  A    between atoms: C_3  and  C_5
REMARK    4  A    between atoms: C_5  and  N_6
REMARK    5  A    between atoms: C_5  and  C_19
REMARK    6  A    between atoms: C_7  and  C_9
REMARK    7  A    between atoms: C_22  and  C_23
REMARK    8  A    between atoms: C_23  and  N_24
REMARK    9  A    between atoms: C_25  and  C_27
REMARK                            x       y       z     vdW  Elec       q    Type
REMARK                         _______ _______ _______ _____ _____    ______ ____
ROOT
ATOM      1  C   UNL     1      47.651   7.104  13.563  0.00  0.00    +0.000 C 
ENDROOT
BRANCH   1   2
ATOM      2  C   UNL     1      48.068   6.344  14.833  0.00  0.00    +0.000 A 
ATOM      3  C   UNL     1      47.477   5.104  15.127  0.00  0.00    +0.000 A 
ATOM      4  C   UNL     1      47.894   4.342  16.227  0.00  0.00    +0.000 A 
ATOM      5  C   UNL     1      48.887   4.804  17.101  0.00  0.00    +0.000 A 
ATOM      6  C   UNL     1      49.472   6.048  16.823  0.00  0.00    +0.000 A 
ATOM      7  C   UNL     1      49.073   6.802  15.702  0.00  0.00    +0.000 A 
BRANCH   5   8
ATOM      8  C   UNL     1      49.310   3.991  18.310  0.00  0.00    +0.000 C 
BRANCH   8   9
ATOM      9  N   UNL     1      50.753   3.866  18.421  0.00  0.00    +0.000 N 
ATOM     10  C   UNL     1      51.473   2.941  17.691  0.00  0.00    +0.000 C 
ATOM     11  O   UNL     1      50.953   2.170  16.898  0.00  0.00    +0.000 OA
ATOM     12  H   UNL     1      51.217   4.448  19.099  0.00  0.00    +0.000 HD
BRANCH  10  13
ATOM     13  C   UNL     1      52.988   3.029  17.916  0.00  0.00    +0.000 C 
ATOM     14  C   UNL     1      53.762   1.811  17.424  0.00  0.00    +0.000 C 
ATOM     15  C   UNL     1      54.003   1.001  18.681  0.00  0.00    +0.000 C 
ATOM     16  N   UNL     1      54.270   2.018  19.705  0.00  0.00    +0.000 NA
ATOM     17  C   UNL     1      53.354   3.127  19.398  0.00  0.00    +0.000 C 
ATOM     18  H   UNL     1      55.233   2.339  19.597  0.00  0.00    +0.000 HD
ENDBRANCH  10  13
ENDBRANCH   8   9
ENDBRANCH   5   8
ENDBRANCH   1   2
BRANCH   1  19
ATOM     19  N   UNL     1      47.074   6.167  12.601  0.00  0.00    +0.000 N 
ATOM     20  C   UNL     1      46.060   6.503  11.738  0.00  0.00    +0.000 C 
ATOM     21  O   UNL     1      45.595   7.634  11.672  0.00  0.00    +0.000 OA
ATOM     22  H   UNL     1      47.234   5.185  12.797  0.00  0.00    +0.000 HD
BRANCH  20  23
ATOM     23  C   UNL     1      45.575   5.424  10.865  0.00  0.00    +0.000 A 
ATOM     24  C   UNL     1      45.759   5.475   9.486  0.00  0.00    +0.000 A 
ATOM     25  S   UNL     1      45.133   4.113   8.668  0.00  0.00    +0.000 S 
ATOM     26  C   UNL     1      44.542   3.438  10.116  0.00  0.00    +0.000 A 
ATOM     27  N   UNL     1      43.851   2.270  10.124  0.00  0.00    +0.000 NA
ATOM     28  C   UNL     1      43.431   1.903  11.292  0.00  0.00    +0.000 A 
ATOM     29  N   UNL     1      43.657   2.591  12.453  0.00  0.00    +0.000 N 
ATOM     30  C   UNL     1      44.395   3.740  12.502  0.00  0.00    +0.000 A 
ATOM     31  O   UNL     1      44.655   4.282  13.572  0.00  0.00    +0.000 OA
ATOM     32  C   UNL     1      44.860   4.221  11.211  0.00  0.00    +0.000 A 
ATOM     33  H   UNL     1      43.329   2.240  13.340  0.00  0.00    +0.000 HD
ENDBRANCH  20  23
ENDBRANCH   1  19
BRANCH   1  34
ATOM     34  C   UNL     1      48.817   7.914  12.940  0.00  0.00    +0.000 C 
ATOM     35  O   UNL     1      49.010   9.115  13.087  0.00  0.00    +0.000 OA
BRANCH  34  37
ATOM     36  C   UNL     1      50.632   7.770  11.441  0.00  0.00    +0.000 C 
ATOM     37  O   UNL     1      49.657   7.091  12.238  0.00  0.00    +0.000 OA
ENDBRANCH  34  37
ENDBRANCH   1  34
TORSDOF 8
ENDMDL
MODEL 8
REMARK VINA RESULT:    -6.476      2.415      3.183
REMARK INTER + INTRA:         -10.961
REMARK INTER:                 -10.024
REMARK INTRA:                  -0.938
REMARK UNBOUND:                -1.456
REMARK  Name = 
REMARK  9 active torsions:
REMARK  status: ('A' for Active; 'I' for Inactive)
REMARK    1  A    between atoms: C_1  and  O_2
REMARK    2  A    between atoms: O_2  and  C_3
REMARK    3  A    between atoms: C_3  and  C_5
REMARK    4  A    between atoms: C_5  and  N_6
REMARK    5  A    between atoms: C_5  and  C_19
REMARK    6  A    between atoms: C_7  and  C_9
REMARK    7  A    between atoms: C_22  and  C_23
REMARK    8  A    between atoms: C_23  and  N_24
REMARK    9  A    between atoms: C_25  and  C_27
REMARK                            x       y       z     vdW  Elec       q    Type
REMARK                         _______ _______ _______ _____ _____    ______ ____
ROOT
ATOM      1  C   UNL     1      47.615   8.672  13.378  0.00  0.00    +0.000 C 
ENDROOT
BRANCH   1   2
ATOM      2  C   UNL     1      47.066   7.263  13.095  0.00  0.00    +0.000 A 
ATOM      3  C   UNL     1      47.545   6.169  13.834  0.00  0.00    +0.000 A 
ATOM      4  C   UNL     1      47.008   4.886  13.665  0.00  0.00    +0.000 A 
ATOM      5  C   UNL     1      45.999   4.635  12.724  0.00  0.00    +0.000 A 
ATOM      6  C   UNL     1      45.525   5.720  11.972  0.00  0.00    +0.000 A 
ATOM      7  C   UNL     1      46.045   7.015  12.161  0.00  0.00    +0.000 A 
BRANCH   5   8
ATOM      8  C   UNL     1      45.444   3.237  12.522  0.00  0.00    +0.000 C 
BRANCH   8   9
ATOM      9  N   UNL     1      45.338   2.877  11.119  0.00  0.00    +0.000 N 
ATOM     10  C   UNL     1      44.138   2.908  10.437  0.00  0.00    +0.000 C 
ATOM     11  O   UNL     1      43.086   3.248  10.958  0.00  0.00    +0.000 OA
ATOM     12  H   UNL     1      46.171   2.544  10.662  0.00  0.00    +0.000 HD
BRANCH  10  13
ATOM     13  C   UNL     1      44.268   2.552   8.950  0.00  0.00    +0.000 C 
ATOM     14  C   UNL     1      45.355   1.527   8.648  0.00  0.00    +0.000 C 
ATOM     15  C   UNL     1      46.519   2.366   8.161  0.00  0.00    +0.000 C 
ATOM     16  N   UNL     1      45.880   3.421   7.366  0.00  0.00    +0.000 NA
ATOM     17  C   UNL     1      44.646   3.760   8.091  0.00  0.00    +0.000 C 
ATOM     18  H   UNL     1      45.637   3.034   6.453  0.00  0.00    +0.000 HD
ENDBRANCH  10  13
ENDBRANCH   8   9
ENDBRANCH   5   8
ENDBRANCH   1   2
BRANCH   1  19
ATOM     19  N   UNL     1      47.437   8.990  14.794  0.00  0.00    +0.000 N 
ATOM     20  C   UNL     1      48.473   9.019  15.695  0.00  0.00    +0.000 C 
ATOM     21  O   UNL     1      49.639   8.832  15.368  0.00  0.00    +0.000 OA
ATOM     22  H   UNL     1      46.493   8.889  15.149  0.00  0.00    +0.000 HD
BRANCH  20  23
ATOM     23  C   UNL     1      48.106   9.319  17.086  0.00  0.00    +0.000 A 
ATOM     24  C   UNL     1      47.851  10.624  17.499  0.00  0.00    +0.000 A 
ATOM     25  S   UNL     1      47.427  10.743  19.148  0.00  0.00    +0.000 S 
ATOM     26  C   UNL     1      47.630   9.068  19.385  0.00  0.00    +0.000 A 
ATOM     27  N   UNL     1      47.462   8.498  20.605  0.00  0.00    +0.000 NA
ATOM     28  C   UNL     1      47.689   7.224  20.638  0.00  0.00    +0.000 A 
ATOM     29  N   UNL     1      48.051   6.469  19.555  0.00  0.00    +0.000 N 
ATOM     30  C   UNL     1      48.177   6.988  18.298  0.00  0.00    +0.000 A 
ATOM     31  O   UNL     1      48.414   6.266  17.334  0.00  0.00    +0.000 OA
ATOM     32  C   UNL     1      47.971   8.425  18.209  0.00  0.00    +0.000 A 
ATOM     33  H   UNL     1      48.187   5.473  19.636  0.00  0.00    +0.000 HD
ENDBRANCH  20  23
ENDBRANCH   1  19
BRANCH   1  34
ATOM     34  C   UNL     1      46.981   9.755  12.468  0.00  0.00    +0.000 C 
ATOM     35  O   UNL     1      45.796  10.072  12.455  0.00  0.00    +0.000 OA
BRANCH  34  37
ATOM     36  C   UNL     1      49.223   9.740  11.737  0.00  0.00    +0.000 C 
ATOM     37  O   UNL     1      47.938  10.369  11.706  0.00  0.00    +0.000 OA
ENDBRANCH  34  37
ENDBRANCH   1  34
TORSDOF 8
ENDMDL
MODEL 9
REMARK VINA RESULT:    -6.468      3.827      9.961
REMARK INTER + INTRA:         -10.949
REMARK INTER:                  -9.855
REMARK INTRA:                  -1.094
REMARK UNBOUND:                -1.456
REMARK  Name = 
REMARK  9 active torsions:
REMARK  status: ('A' for Active; 'I' for Inactive)
REMARK    1  A    between atoms: C_1  and  O_2
REMARK    2  A    between atoms: O_2  and  C_3
REMARK    3  A    between atoms: C_3  and  C_5
REMARK    4  A    between atoms: C_5  and  N_6
REMARK    5  A    between atoms: C_5  and  C_19
REMARK    6  A    between atoms: C_7  and  C_9
REMARK    7  A    between atoms: C_22  and  C_23
REMARK    8  A    between atoms: C_23  and  N_24
REMARK    9  A    between atoms: C_25  and  C_27
REMARK                            x       y       z     vdW  Elec       q    Type
REMARK                         _______ _______ _______ _____ _____    ______ ____
ROOT
ATOM      1  C   UNL     1      48.061   4.676  16.228  0.00  0.00    +0.000 C 
ENDROOT
BRANCH   1   2
ATOM      2  C   UNL     1      48.020   5.766  17.314  0.00  0.00    +0.000 A 
ATOM      3  C   UNL     1      47.431   5.484  18.557  0.00  0.00    +0.000 A 
ATOM      4  C   UNL     1      47.451   6.421  19.600  0.00  0.00    +0.000 A 
ATOM      5  C   UNL     1      48.023   7.689  19.430  0.00  0.00    +0.000 A 
ATOM      6  C   UNL     1      48.601   7.983  18.187  0.00  0.00    +0.000 A 
ATOM      7  C   UNL     1      48.605   7.032  17.148  0.00  0.00    +0.000 A 
BRANCH   5   8
ATOM      8  C   UNL     1      48.012   8.712  20.552  0.00  0.00    +0.000 C 
BRANCH   8   9
ATOM      9  N   UNL     1      48.866   9.853  20.274  0.00  0.00    +0.000 N 
ATOM     10  C   UNL     1      50.208   9.869  20.600  0.00  0.00    +0.000 C 
ATOM     11  O   UNL     1      50.773   8.927  21.136  0.00  0.00    +0.000 OA
ATOM     12  H   UNL     1      48.432  10.671  19.878  0.00  0.00    +0.000 HD
BRANCH  10  13
ATOM     13  C   UNL     1      50.931  11.148  20.157  0.00  0.00    +0.000 C 
ATOM     14  C   UNL     1      51.111  11.271  18.649  0.00  0.00    +0.000 C 
ATOM     15  C   UNL     1      52.542  10.832  18.417  0.00  0.00    +0.000 C 
ATOM     16  N   UNL     1      53.267  11.386  19.566  0.00  0.00    +0.000 NA
ATOM     17  C   UNL     1      52.354  11.235  20.710  0.00  0.00    +0.000 C 
ATOM     18  H   UNL     1      53.430  12.379  19.396  0.00  0.00    +0.000 HD
ENDBRANCH  10  13
ENDBRANCH   8   9
ENDBRANCH   5   8
ENDBRANCH   1   2
BRANCH   1  19
ATOM     19  N   UNL     1      47.108   5.005  15.169  0.00  0.00    +0.000 N 
ATOM     20  C   UNL     1      47.467   5.639  14.004  0.00  0.00    +0.000 C 
ATOM     21  O   UNL     1      48.627   5.930  13.740  0.00  0.00    +0.000 OA
ATOM     22  H   UNL     1      46.135   5.027  15.449  0.00  0.00    +0.000 HD
BRANCH  20  23
ATOM     23  C   UNL     1      46.373   5.927  13.067  0.00  0.00    +0.000 A 
ATOM     24  C   UNL     1      46.058   7.235  12.706  0.00  0.00    +0.000 A 
ATOM     25  S   UNL     1      44.765   7.339  11.597  0.00  0.00    +0.000 S 
ATOM     26  C   UNL     1      44.539   5.651  11.606  0.00  0.00    +0.000 A 
ATOM     27  N   UNL     1      43.547   5.064  10.889  0.00  0.00    +0.000 NA
ATOM     28  C   UNL     1      43.474   3.779  11.027  0.00  0.00    +0.000 A 
ATOM     29  N   UNL     1      44.316   3.029  11.804  0.00  0.00    +0.000 N 
ATOM     30  C   UNL     1      45.362   3.569  12.498  0.00  0.00    +0.000 A 
ATOM     31  O   UNL     1      46.152   2.857  13.111  0.00  0.00    +0.000 OA
ATOM     32  C   UNL     1      45.468   5.016  12.410  0.00  0.00    +0.000 A 
ATOM     33  H   UNL     1      44.228   2.025  11.850  0.00  0.00    +0.000 HD
ENDBRANCH  20  23
ENDBRANCH   1  19
BRANCH   1  34
ATOM     34  C   UNL     1      47.811   3.256  16.797  0.00  0.00    +0.000 C 
ATOM     35  O   UNL     1      46.796   2.888  17.378  0.00  0.00    +0.000 OA
BRANCH  34  37
ATOM     36  C   UNL     1      49.980   2.551  17.396  0.00  0.00    +0.000 C 
ATOM     37  O   UNL     1      48.863   2.427  16.512  0.00  0.00    +0.000 OA
ENDBRANCH  34  37
ENDBRANCH   1  34
TORSDOF 8
ENDMDL
