MODEL 1
REMARK VINA RESULT:    -7.822      0.000      0.000
REMARK INTER + INTRA:         -10.943
REMARK INTER:                 -10.108
REMARK INTRA:                  -0.835
REMARK UNBOUND:                -0.835
REMARK  Name = 
REMARK  7 active torsions:
REMARK  status: ('A' for Active; 'I' for Inactive)
REMARK    1  A    between atoms: C_1  and  C_2
REMARK    2  A    between atoms: C_2  and  C_3
REMARK    3  A    between atoms: C_2  and  C_4
REMARK    4  A    between atoms: C_2  and  C_19
REMARK    5  A    between atoms: C_4  and  O_5
REMARK    6  A    between atoms: O_5  and  C_6
REMARK    7  A    between atoms: C_10  and  C_11
REMARK                            x       y       z     vdW  Elec       q    Type
REMARK                         _______ _______ _______ _____ _____    ______ ____
ROOT
ATOM      1  C   UNL     1      45.013   6.384  11.324  0.00  0.00    +0.000 A 
ATOM      2  C   UNL     1      43.676   6.255  11.691  0.00  0.00    +0.000 A 
ATOM      3  N   UNL     1      42.865   5.278  11.223  0.00  0.00    +0.000 NA
ATOM      4  C   UNL     1      43.455   4.425  10.362  0.00  0.00    +0.000 A 
ATOM      5  C   UNL     1      44.793   4.514   9.976  0.00  0.00    +0.000 A 
ATOM      6  N   UNL     1      45.584   5.511  10.460  0.00  0.00    +0.000 NA
ENDROOT
BRANCH   5   7
ATOM      7  C   UNL     1      45.396   3.582   9.010  0.00  0.00    +0.000 A 
ATOM      8  C   UNL     1      46.092   4.016   7.869  0.00  0.00    +0.000 A 
ATOM      9  C   UNL     1      46.720   3.098   7.028  0.00  0.00    +0.000 A 
ATOM     10  C   UNL     1      46.624   1.756   7.337  0.00  0.00    +0.000 A 
ATOM     11  F   UNL     1      47.248   0.873   6.545  0.00  0.00    +0.000 F 
ATOM     12  N   UNL     1      45.945   1.280   8.396  0.00  0.00    +0.000 NA
ATOM     13  C   UNL     1      45.343   2.199   9.196  0.00  0.00    +0.000 A 
ENDBRANCH   5   7
BRANCH   1  14
ATOM     14  O   UNL     1      45.863   7.367  11.772  0.00  0.00    +0.000 OA
BRANCH  14  15
ATOM     15  C   UNL     1      47.247   7.000  11.791  0.00  0.00    +0.000 C 
BRANCH  15  17
ATOM     16  C   UNL     1      49.467   7.610  12.799  0.00  0.00    +0.000 C 
ATOM     17  C   UNL     1      47.974   7.370  13.114  0.00  0.00    +0.000 C 
ATOM     18  C   UNL     1      47.359   8.680  13.655  0.00  0.00    +0.000 C 
BRANCH  17  19
ATOM     19  C   UNL     1      47.856   6.243  14.170  0.00  0.00    +0.000 A 
ATOM     20  C   UNL     1      47.141   5.065  13.870  0.00  0.00    +0.000 A 
ATOM     21  C   UNL     1      46.981   4.047  14.817  0.00  0.00    +0.000 A 
ATOM     22  C   UNL     1      47.536   4.191  16.079  0.00  0.00    +0.000 A 
ATOM     23  F   UNL     1      47.371   3.225  16.992  0.00  0.00    +0.000 F 
ATOM     24  C   UNL     1      48.254   5.328  16.409  0.00  0.00    +0.000 A 
ATOM     25  C   UNL     1      48.414   6.345  15.462  0.00  0.00    +0.000 A 
ENDBRANCH  17  19
ENDBRANCH  15  17
ENDBRANCH  14  15
ENDBRANCH   1  14
TORSDOF 5
ENDMDL
MODEL 2
REMARK VINA RESULT:    -7.371      2.406      7.732
REMARK INTER + INTRA:         -10.361
REMARK INTER:                  -9.696
REMARK INTRA:                  -0.665
REMARK UNBOUND:                -0.835
REMARK  Name = 
REMARK  7 active torsions:
REMARK  status: ('A' for Active; 'I' for Inactive)
REMARK    1  A    between atoms: C_1  and  C_2
REMARK    2  A    between atoms: C_2  and  C_3
REMARK    3  A    between atoms: C_2  and  C_4
REMARK    4  A    between atoms: C_2  and  C_19
REMARK    5  A    between atoms: C_4  and  O_5
REMARK    6  A    between atoms: O_5  and  C_6
REMARK    7  A    between atoms: C_10  and  C_11
REMARK                            x       y       z     vdW  Elec       q    Type
REMARK                         _______ _______ _______ _____ _____    ______ ____
ROOT
ATOM      1  C   UNL     1      46.923   6.211  12.626  0.00  0.00    +0.000 A 
ATOM      2  C   UNL     1      47.752   7.316  12.455  0.00  0.00    +0.000 A 
ATOM      3  N   UNL     1      48.653   7.725  13.378  0.00  0.00    +0.000 NA
ATOM      4  C   UNL     1      48.692   6.971  14.495  0.00  0.00    +0.000 A 
ATOM      5  C   UNL     1      47.885   5.851  14.703  0.00  0.00    +0.000 A 
ATOM      6  N   UNL     1      46.983   5.466  13.757  0.00  0.00    +0.000 NA
ENDROOT
BRANCH   5   7
ATOM      7  C   UNL     1      47.932   5.068  15.948  0.00  0.00    +0.000 A 
ATOM      8  C   UNL     1      47.484   3.739  16.027  0.00  0.00    +0.000 A 
ATOM      9  C   UNL     1      47.627   3.009  17.207  0.00  0.00    +0.000 A 
ATOM     10  C   UNL     1      48.205   3.633  18.295  0.00  0.00    +0.000 A 
ATOM     11  F   UNL     1      48.368   2.927  19.422  0.00  0.00    +0.000 F 
ATOM     12  N   UNL     1      48.623   4.912  18.288  0.00  0.00    +0.000 NA
ATOM     13  C   UNL     1      48.469   5.596  17.124  0.00  0.00    +0.000 A 
ENDBRANCH   5   7
BRANCH   1  14
ATOM     14  O   UNL     1      45.992   5.773  11.716  0.00  0.00    +0.000 OA
BRANCH  14  15
ATOM     15  C   UNL     1      45.325   4.559  12.076  0.00  0.00    +0.000 C 
BRANCH  15  17
ATOM     16  C   UNL     1      43.477   2.916  11.623  0.00  0.00    +0.000 C 
ATOM     17  C   UNL     1      44.311   4.062  11.007  0.00  0.00    +0.000 C 
ATOM     18  C   UNL     1      43.369   5.233  10.652  0.00  0.00    +0.000 C 
BRANCH  17  19
ATOM     19  C   UNL     1      45.025   3.539   9.736  0.00  0.00    +0.000 A 
ATOM     20  C   UNL     1      45.482   4.447   8.758  0.00  0.00    +0.000 A 
ATOM     21  C   UNL     1      46.092   4.004   7.579  0.00  0.00    +0.000 A 
ATOM     22  C   UNL     1      46.257   2.645   7.362  0.00  0.00    +0.000 A 
ATOM     23  F   UNL     1      46.828   2.218   6.228  0.00  0.00    +0.000 F 
ATOM     24  C   UNL     1      45.833   1.722   8.303  0.00  0.00    +0.000 A 
ATOM     25  C   UNL     1      45.223   2.166   9.481  0.00  0.00    +0.000 A 
ENDBRANCH  17  19
ENDBRANCH  15  17
ENDBRANCH  14  15
ENDBRANCH   1  14
TORSDOF 5
ENDMDL
MODEL 3
REMARK VINA RESULT:    -7.294      2.804      3.712
REMARK INTER + INTRA:         -10.261
REMARK INTER:                  -9.556
REMARK INTRA:                  -0.706
REMARK UNBOUND:                -0.835
REMARK  Name = 
REMARK  7 active torsions:
REMARK  status: ('A' for Active; 'I' for Inactive)
REMARK    1  A    between atoms: C_1  and  C_2
REMARK    2  A    between atoms: C_2  and  C_3
REMARK    3  A    between atoms: C_2  and  C_4
REMARK    4  A    between atoms: C_2  and  C_19
REMARK    5  A    between atoms: C_4  and  O_5
REMARK    6  A    between atoms: O_5  and  C_6
REMARK    7  A    between atoms: C_10  and  C_11
REMARK                            x       y       z     vdW  Elec       q    Type
REMARK                         _______ _______ _______ _____ _____    ______ ____
ROOT
ATOM      1  C   UNL     1      44.649   6.339  11.311  0.00  0.00    +0.000 A 
ATOM      2  C   UNL     1      43.437   5.944  11.870  0.00  0.00    +0.000 A 
ATOM      3  N   UNL     1      42.817   4.781  11.564  0.00  0.00    +0.000 NA
ATOM      4  C   UNL     1      43.468   4.020  10.662  0.00  0.00    +0.000 A 
ATOM      5  C   UNL     1      44.688   4.375  10.084  0.00  0.00    +0.000 A 
ATOM      6  N   UNL     1      45.287   5.554  10.409  0.00  0.00    +0.000 NA
ENDROOT
BRANCH   5   7
ATOM      7  C   UNL     1      45.356   3.533   9.079  0.00  0.00    +0.000 A 
ATOM      8  C   UNL     1      46.036   4.067   7.971  0.00  0.00    +0.000 A 
ATOM      9  C   UNL     1      46.726   3.234   7.092  0.00  0.00    +0.000 A 
ATOM     10  C   UNL     1      46.711   1.874   7.332  0.00  0.00    +0.000 A 
ATOM     11  F   UNL     1      47.395   1.073   6.503  0.00  0.00    +0.000 F 
ATOM     12  N   UNL     1      46.052   1.303   8.356  0.00  0.00    +0.000 NA
ATOM     13  C   UNL     1      45.388   2.142   9.194  0.00  0.00    +0.000 A 
ENDBRANCH   5   7
BRANCH   1  14
ATOM     14  O   UNL     1      45.303   7.515  11.592  0.00  0.00    +0.000 OA
BRANCH  14  15
ATOM     15  C   UNL     1      46.607   7.355  12.160  0.00  0.00    +0.000 C 
BRANCH  15  17
ATOM     16  C   UNL     1      46.427   9.856  11.991  0.00  0.00    +0.000 C 
ATOM     17  C   UNL     1      47.298   8.699  12.528  0.00  0.00    +0.000 C 
ATOM     18  C   UNL     1      47.371   8.799  14.068  0.00  0.00    +0.000 C 
BRANCH  17  19
ATOM     19  C   UNL     1      48.715   8.806  11.914  0.00  0.00    +0.000 A 
ATOM     20  C   UNL     1      49.461   7.639  11.650  0.00  0.00    +0.000 A 
ATOM     21  C   UNL     1      50.760   7.704  11.134  0.00  0.00    +0.000 A 
ATOM     22  C   UNL     1      51.332   8.939  10.872  0.00  0.00    +0.000 A 
ATOM     23  F   UNL     1      52.582   9.004  10.392  0.00  0.00    +0.000 F 
ATOM     24  C   UNL     1      50.629  10.107  11.106  0.00  0.00    +0.000 A 
ATOM     25  C   UNL     1      49.329  10.042  11.621  0.00  0.00    +0.000 A 
ENDBRANCH  17  19
ENDBRANCH  15  17
ENDBRANCH  14  15
ENDBRANCH   1  14
TORSDOF 5
ENDMDL
MODEL 4
REMARK VINA RESULT:    -7.151      3.156      7.351
REMARK INTER + INTRA:         -10.076
REMARK INTER:                  -9.265
REMARK INTRA:                  -0.812
REMARK UNBOUND:                -0.835
REMARK  Name = 
REMARK  7 active torsions:
REMARK  status: ('A' for Active; 'I' for Inactive)
REMARK    1  A    between atoms: C_1  and  C_2
REMARK    2  A    between atoms: C_2  and  C_3
REMARK    3  A    between atoms: C_2  and  C_4
REMARK    4  A    between atoms: C_2  and  C_19
REMARK    5  A    between atoms: C_4  and  O_5
REMARK    6  A    between atoms: O_5  and  C_6
REMARK    7  A    between atoms: C_10  and  C_11
REMARK                            x       y       z     vdW  Elec       q    Type
REMARK                         _______ _______ _______ _____ _____    ______ ____
ROOT
ATOM      1  C   UNL     1      46.670   4.767  14.211  0.00  0.00    +0.000 A 
ATOM      2  C   UNL     1      47.188   4.371  15.441  0.00  0.00    +0.000 A 
ATOM      3  N   UNL     1      48.186   5.026  16.078  0.00  0.00    +0.000 NA
ATOM      4  C   UNL     1      48.651   6.109  15.423  0.00  0.00    +0.000 A 
ATOM      5  C   UNL     1      48.155   6.545  14.194  0.00  0.00    +0.000 A 
ATOM      6  N   UNL     1      47.152   5.862  13.574  0.00  0.00    +0.000 NA
ENDROOT
BRANCH   5   7
ATOM      7  C   UNL     1      48.708   7.715  13.493  0.00  0.00    +0.000 A 
ATOM      8  C   UNL     1      48.772   7.800  12.092  0.00  0.00    +0.000 A 
ATOM      9  C   UNL     1      49.225   8.964  11.471  0.00  0.00    +0.000 A 
ATOM     10  C   UNL     1      49.622  10.018  12.269  0.00  0.00    +0.000 A 
ATOM     11  F   UNL     1      50.034  11.147  11.675  0.00  0.00    +0.000 F 
ATOM     12  N   UNL     1      49.613   9.982  13.614  0.00  0.00    +0.000 NA
ATOM     13  C   UNL     1      49.167   8.835  14.188  0.00  0.00    +0.000 A 
ENDBRANCH   5   7
BRANCH   1  14
ATOM     14  O   UNL     1      45.664   4.122  13.533  0.00  0.00    +0.000 OA
BRANCH  14  15
ATOM     15  C   UNL     1      44.903   4.956  12.652  0.00  0.00    +0.000 C 
BRANCH  15  17
ATOM     16  C   UNL     1      43.552   2.851  12.407  0.00  0.00    +0.000 C 
ATOM     17  C   UNL     1      43.957   4.166  11.705  0.00  0.00    +0.000 C 
ATOM     18  C   UNL     1      42.690   5.017  11.465  0.00  0.00    +0.000 C 
BRANCH  17  19
ATOM     19  C   UNL     1      44.642   3.828  10.357  0.00  0.00    +0.000 A 
ATOM     20  C   UNL     1      45.256   4.848   9.601  0.00  0.00    +0.000 A 
ATOM     21  C   UNL     1      45.846   4.582   8.360  0.00  0.00    +0.000 A 
ATOM     22  C   UNL     1      45.834   3.290   7.858  0.00  0.00    +0.000 A 
ATOM     23  F   UNL     1      46.385   3.036   6.664  0.00  0.00    +0.000 F 
ATOM     24  C   UNL     1      45.251   2.260   8.575  0.00  0.00    +0.000 A 
ATOM     25  C   UNL     1      44.661   2.525   9.816  0.00  0.00    +0.000 A 
ENDBRANCH  17  19
ENDBRANCH  15  17
ENDBRANCH  14  15
ENDBRANCH   1  14
TORSDOF 5
ENDMDL
MODEL 5
REMARK VINA RESULT:    -6.900      1.598      2.021
REMARK INTER + INTRA:          -9.752
REMARK INTER:                  -9.237
REMARK INTRA:                  -0.515
REMARK UNBOUND:                -0.835
REMARK  Name = 
REMARK  7 active torsions:
REMARK  status: ('A' for Active; 'I' for Inactive)
REMARK    1  A    between atoms: C_1  and  C_2
REMARK    2  A    between atoms: C_2  and  C_3
REMARK    3  A    between atoms: C_2  and  C_4
REMARK    4  A    between atoms: C_2  and  C_19
REMARK    5  A    between atoms: C_4  and  O_5
REMARK    6  A    between atoms: O_5  and  C_6
REMARK    7  A    between atoms: C_10  and  C_11
REMARK                            x       y       z     vdW  Elec       q    Type
REMARK                         _______ _______ _______ _____ _____    ______ ____
ROOT
ATOM      1  C   UNL     1      44.763   4.269  11.589  0.00  0.00    +0.000 A 
ATOM      2  C   UNL     1      43.682   3.476  11.961  0.00  0.00    +0.000 A 
ATOM      3  N   UNL     1      43.248   2.418  11.239  0.00  0.00    +0.000 NA
ATOM      4  C   UNL     1      43.951   2.183  10.112  0.00  0.00    +0.000 A 
ATOM      5  C   UNL     1      45.046   2.947   9.708  0.00  0.00    +0.000 A 
ATOM      6  N   UNL     1      45.457   4.010  10.454  0.00  0.00    +0.000 NA
ENDROOT
BRANCH   5   7
ATOM      7  C   UNL     1      45.772   2.680   8.456  0.00  0.00    +0.000 A 
ATOM      8  C   UNL     1      45.979   3.664   7.474  0.00  0.00    +0.000 A 
ATOM      9  C   UNL     1      46.747   3.387   6.343  0.00  0.00    +0.000 A 
ATOM     10  C   UNL     1      47.281   2.121   6.209  0.00  0.00    +0.000 A 
ATOM     11  F   UNL     1      48.041   1.860   5.136  0.00  0.00    +0.000 F 
ATOM     12  N   UNL     1      47.091   1.132   7.100  0.00  0.00    +0.000 NA
ATOM     13  C   UNL     1      46.337   1.432   8.190  0.00  0.00    +0.000 A 
ENDBRANCH   5   7
BRANCH   1  14
ATOM     14  O   UNL     1      45.225   5.355  12.293  0.00  0.00    +0.000 OA
BRANCH  14  15
ATOM     15  C   UNL     1      46.454   5.907  11.807  0.00  0.00    +0.000 C 
BRANCH  15  17
ATOM     16  C   UNL     1      48.031   7.864  11.780  0.00  0.00    +0.000 C 
ATOM     17  C   UNL     1      46.944   7.145  12.609  0.00  0.00    +0.000 C 
ATOM     18  C   UNL     1      45.747   8.102  12.803  0.00  0.00    +0.000 C 
BRANCH  17  19
ATOM     19  C   UNL     1      47.539   6.743  13.982  0.00  0.00    +0.000 A 
ATOM     20  C   UNL     1      48.350   7.651  14.694  0.00  0.00    +0.000 A 
ATOM     21  C   UNL     1      48.936   7.303  15.916  0.00  0.00    +0.000 A 
ATOM     22  C   UNL     1      48.719   6.041  16.445  0.00  0.00    +0.000 A 
ATOM     23  F   UNL     1      49.291   5.700  17.608  0.00  0.00    +0.000 F 
ATOM     24  C   UNL     1      47.920   5.125  15.782  0.00  0.00    +0.000 A 
ATOM     25  C   UNL     1      47.334   5.473  14.561  0.00  0.00    +0.000 A 
ENDBRANCH  17  19
ENDBRANCH  15  17
ENDBRANCH  14  15
ENDBRANCH   1  14
TORSDOF 5
ENDMDL
MODEL 6
REMARK VINA RESULT:    -6.666      3.292      5.190
REMARK INTER + INTRA:          -9.450
REMARK INTER:                  -8.607
REMARK INTRA:                  -0.843
REMARK UNBOUND:                -0.835
REMARK  Name = 
REMARK  7 active torsions:
REMARK  status: ('A' for Active; 'I' for Inactive)
REMARK    1  A    between atoms: C_1  and  C_2
REMARK    2  A    between atoms: C_2  and  C_3
REMARK    3  A    between atoms: C_2  and  C_4
REMARK    4  A    between atoms: C_2  and  C_19
REMARK    5  A    between atoms: C_4  and  O_5
REMARK    6  A    between atoms: O_5  and  C_6
REMARK    7  A    between atoms: C_10  and  C_11
REMARK                            x       y       z     vdW  Elec       q    Type
REMARK                         _______ _______ _______ _____ _____    ______ ____
ROOT
ATOM      1  C   UNL     1      48.789   6.615  14.872  0.00  0.00    +0.000 A 
ATOM      2  C   UNL     1      49.006   7.896  14.373  0.00  0.00    +0.000 A 
ATOM      3  N   UNL     1      48.362   8.397  13.294  0.00  0.00    +0.000 NA
ATOM      4  C   UNL     1      47.478   7.551  12.727  0.00  0.00    +0.000 A 
ATOM      5  C   UNL     1      47.223   6.263  13.201  0.00  0.00    +0.000 A 
ATOM      6  N   UNL     1      47.891   5.785  14.287  0.00  0.00    +0.000 NA
ENDROOT
BRANCH   5   7
ATOM      7  C   UNL     1      46.273   5.356  12.539  0.00  0.00    +0.000 A 
ATOM      8  C   UNL     1      45.695   5.641  11.290  0.00  0.00    +0.000 A 
ATOM      9  C   UNL     1      44.865   4.713  10.662  0.00  0.00    +0.000 A 
ATOM     10  C   UNL     1      44.616   3.518  11.307  0.00  0.00    +0.000 A 
ATOM     11  F   UNL     1      43.841   2.612  10.695  0.00  0.00    +0.000 F 
ATOM     12  N   UNL     1      45.115   3.203  12.516  0.00  0.00    +0.000 NA
ATOM     13  C   UNL     1      45.918   4.129  13.102  0.00  0.00    +0.000 A 
ENDBRANCH   5   7
BRANCH   1  14
ATOM     14  O   UNL     1      49.430   6.071  15.958  0.00  0.00    +0.000 OA
BRANCH  14  15
ATOM     15  C   UNL     1      48.742   6.231  17.204  0.00  0.00    +0.000 C 
BRANCH  15  17
ATOM     16  C   UNL     1      48.342   5.223  19.471  0.00  0.00    +0.000 C 
ATOM     17  C   UNL     1      48.521   4.897  17.972  0.00  0.00    +0.000 C 
ATOM     18  C   UNL     1      47.226   4.243  17.443  0.00  0.00    +0.000 C 
BRANCH  17  19
ATOM     19  C   UNL     1      49.720   3.931  17.805  0.00  0.00    +0.000 A 
ATOM     20  C   UNL     1      49.531   2.666  17.211  0.00  0.00    +0.000 A 
ATOM     21  C   UNL     1      50.585   1.754  17.085  0.00  0.00    +0.000 A 
ATOM     22  C   UNL     1      51.845   2.096  17.548  0.00  0.00    +0.000 A 
ATOM     23  F   UNL     1      52.853   1.219  17.441  0.00  0.00    +0.000 F 
ATOM     24  C   UNL     1      52.074   3.332  18.127  0.00  0.00    +0.000 A 
ATOM     25  C   UNL     1      51.020   4.243  18.253  0.00  0.00    +0.000 A 
ENDBRANCH  17  19
ENDBRANCH  15  17
ENDBRANCH  14  15
ENDBRANCH   1  14
TORSDOF 5
ENDMDL
MODEL 7
REMARK VINA RESULT:    -6.282      3.866      5.996
REMARK INTER + INTRA:          -8.954
REMARK INTER:                  -8.224
REMARK INTRA:                  -0.730
REMARK UNBOUND:                -0.835
REMARK  Name = 
REMARK  7 active torsions:
REMARK  status: ('A' for Active; 'I' for Inactive)
REMARK    1  A    between atoms: C_1  and  C_2
REMARK    2  A    between atoms: C_2  and  C_3
REMARK    3  A    between atoms: C_2  and  C_4
REMARK    4  A    between atoms: C_2  and  C_19
REMARK    5  A    between atoms: C_4  and  O_5
REMARK    6  A    between atoms: O_5  and  C_6
REMARK    7  A    between atoms: C_10  and  C_11
REMARK                            x       y       z     vdW  Elec       q    Type
REMARK                         _______ _______ _______ _____ _____    ______ ____
ROOT
ATOM      1  C   UNL     1      46.660   4.047  13.773  0.00  0.00    +0.000 A 
ATOM      2  C   UNL     1      45.932   3.232  12.911  0.00  0.00    +0.000 A 
ATOM      3  N   UNL     1      45.208   3.703  11.870  0.00  0.00    +0.000 NA
ATOM      4  C   UNL     1      45.244   5.044  11.724  0.00  0.00    +0.000 A 
ATOM      5  C   UNL     1      45.967   5.896  12.560  0.00  0.00    +0.000 A 
ATOM      6  N   UNL     1      46.684   5.392  13.603  0.00  0.00    +0.000 NA
ENDROOT
BRANCH   5   7
ATOM      7  C   UNL     1      45.959   7.357  12.389  0.00  0.00    +0.000 A 
ATOM      8  C   UNL     1      47.050   8.169  12.745  0.00  0.00    +0.000 A 
ATOM      9  C   UNL     1      47.029   9.539  12.486  0.00  0.00    +0.000 A 
ATOM     10  C   UNL     1      45.906  10.075  11.888  0.00  0.00    +0.000 A 
ATOM     11  F   UNL     1      45.894  11.387  11.614  0.00  0.00    +0.000 F 
ATOM     12  N   UNL     1      44.820   9.353  11.555  0.00  0.00    +0.000 NA
ATOM     13  C   UNL     1      44.871   8.022  11.821  0.00  0.00    +0.000 A 
ENDBRANCH   5   7
BRANCH   1  14
ATOM     14  O   UNL     1      47.399   3.605  14.844  0.00  0.00    +0.000 OA
BRANCH  14  15
ATOM     15  C   UNL     1      47.737   4.617  15.799  0.00  0.00    +0.000 C 
BRANCH  15  17
ATOM     16  C   UNL     1      47.735   5.199  18.244  0.00  0.00    +0.000 C 
ATOM     17  C   UNL     1      47.999   4.065  17.229  0.00  0.00    +0.000 C 
ATOM     18  C   UNL     1      47.003   2.914  17.493  0.00  0.00    +0.000 C 
BRANCH  17  19
ATOM     19  C   UNL     1      49.455   3.566  17.396  0.00  0.00    +0.000 A 
ATOM     20  C   UNL     1      50.476   4.471  17.753  0.00  0.00    +0.000 A 
ATOM     21  C   UNL     1      51.808   4.059  17.870  0.00  0.00    +0.000 A 
ATOM     22  C   UNL     1      52.140   2.734  17.635  0.00  0.00    +0.000 A 
ATOM     23  F   UNL     1      53.417   2.341  17.732  0.00  0.00    +0.000 F 
ATOM     24  C   UNL     1      51.165   1.813  17.293  0.00  0.00    +0.000 A 
ATOM     25  C   UNL     1      49.833   2.224  17.176  0.00  0.00    +0.000 A 
ENDBRANCH  17  19
ENDBRANCH  15  17
ENDBRANCH  14  15
ENDBRANCH   1  14
TORSDOF 5
ENDMDL
MODEL 8
REMARK VINA RESULT:    -6.148      4.288      7.601
REMARK INTER + INTRA:          -8.780
REMARK INTER:                  -7.932
REMARK INTRA:                  -0.848
REMARK UNBOUND:                -0.835
REMARK  Name = 
REMARK  7 active torsions:
REMARK  status: ('A' for Active; 'I' for Inactive)
REMARK    1  A    between atoms: C_1  and  C_2
REMARK    2  A    between atoms: C_2  and  C_3
REMARK    3  A    between atoms: C_2  and  C_4
REMARK    4  A    between atoms: C_2  and  C_19
REMARK    5  A    between atoms: C_4  and  O_5
REMARK    6  A    between atoms: O_5  and  C_6
REMARK    7  A    between atoms: C_10  and  C_11
REMARK                            x       y       z     vdW  Elec       q    Type
REMARK                         _______ _______ _______ _____ _____    ______ ____
ROOT
ATOM      1  C   UNL     1      49.412   6.907  16.186  0.00  0.00    +0.000 A 
ATOM      2  C   UNL     1      48.631   7.335  17.256  0.00  0.00    +0.000 A 
ATOM      3  N   UNL     1      48.519   6.652  18.418  0.00  0.00    +0.000 NA
ATOM      4  C   UNL     1      49.230   5.507  18.466  0.00  0.00    +0.000 A 
ATOM      5  C   UNL     1      50.031   5.047  17.420  0.00  0.00    +0.000 A 
ATOM      6  N   UNL     1      50.121   5.755  16.259  0.00  0.00    +0.000 NA
ENDROOT
BRANCH   5   7
ATOM      7  C   UNL     1      50.770   3.777  17.495  0.00  0.00    +0.000 A 
ATOM      8  C   UNL     1      52.084   3.691  17.987  0.00  0.00    +0.000 A 
ATOM      9  C   UNL     1      52.713   2.454  18.119  0.00  0.00    +0.000 A 
ATOM     10  C   UNL     1      52.017   1.323  17.739  0.00  0.00    +0.000 A 
ATOM     11  F   UNL     1      52.610   0.130  17.890  0.00  0.00    +0.000 F 
ATOM     12  N   UNL     1      50.771   1.346  17.233  0.00  0.00    +0.000 NA
ATOM     13  C   UNL     1      50.186   2.567  17.116  0.00  0.00    +0.000 A 
ENDBRANCH   5   7
BRANCH   1  14
ATOM     14  O   UNL     1      49.543   7.571  14.989  0.00  0.00    +0.000 OA
BRANCH  14  15
ATOM     15  C   UNL     1      48.313   8.041  14.426  0.00  0.00    +0.000 C 
BRANCH  15  17
ATOM     16  C   UNL     1      47.505   8.886  12.201  0.00  0.00    +0.000 C 
ATOM     17  C   UNL     1      48.132   7.674  12.925  0.00  0.00    +0.000 C 
ATOM     18  C   UNL     1      49.528   7.397  12.324  0.00  0.00    +0.000 C 
BRANCH  17  19
ATOM     19  C   UNL     1      47.212   6.443  12.740  0.00  0.00    +0.000 A 
ATOM     20  C   UNL     1      46.393   6.339  11.597  0.00  0.00    +0.000 A 
ATOM     21  C   UNL     1      45.519   5.260  11.421  0.00  0.00    +0.000 A 
ATOM     22  C   UNL     1      45.454   4.266  12.385  0.00  0.00    +0.000 A 
ATOM     23  F   UNL     1      44.608   3.240  12.225  0.00  0.00    +0.000 F 
ATOM     24  C   UNL     1      46.250   4.326  13.516  0.00  0.00    +0.000 A 
ATOM     25  C   UNL     1      47.123   5.405  13.691  0.00  0.00    +0.000 A 
ENDBRANCH  17  19
ENDBRANCH  15  17
ENDBRANCH  14  15
ENDBRANCH   1  14
TORSDOF 5
ENDMDL
MODEL 9
REMARK VINA RESULT:    -6.036      3.499      5.402
REMARK INTER + INTRA:          -8.636
REMARK INTER:                  -7.518
REMARK INTRA:                  -1.117
REMARK UNBOUND:                -0.835
REMARK  Name = 
REMARK  7 active torsions:
REMARK  status: ('A' for Active; 'I' for Inactive)
REMARK    1  A    between atoms: C_1  and  C_2
REMARK    2  A    between atoms: C_2  and  C_3
REMARK    3  A    between atoms: C_2  and  C_4
REMARK    4  A    between atoms: C_2  and  C_19
REMARK    5  A    between atoms: C_4  and  O_5
REMARK    6  A    between atoms: O_5  and  C_6
REMARK    7  A    between atoms: C_10  and  C_11
REMARK                            x       y       z     vdW  Elec       q    Type
REMARK                         _______ _______ _______ _____ _____    ______ ____
ROOT
ATOM      1  C   UNL     1      50.372   7.832  14.226  0.00  0.00    +0.000 A 
ATOM      2  C   UNL     1      50.945   8.360  13.072  0.00  0.00    +0.000 A 
ATOM      3  N   UNL     1      50.427   8.189  11.835  0.00  0.00    +0.000 NA
ATOM      4  C   UNL     1      49.296   7.457  11.797  0.00  0.00    +0.000 A 
ATOM      5  C   UNL     1      48.684   6.917  12.930  0.00  0.00    +0.000 A 
ATOM      6  N   UNL     1      49.232   7.102  14.163  0.00  0.00    +0.000 NA
ENDROOT
BRANCH   5   7
ATOM      7  C   UNL     1      47.465   6.097  12.849  0.00  0.00    +0.000 A 
ATOM      8  C   UNL     1      46.509   6.255  11.830  0.00  0.00    +0.000 A 
ATOM      9  C   UNL     1      45.413   5.399  11.746  0.00  0.00    +0.000 A 
ATOM     10  C   UNL     1      45.284   4.405  12.696  0.00  0.00    +0.000 A 
ATOM     11  F   UNL     1      44.245   3.564  12.603  0.00  0.00    +0.000 F 
ATOM     12  N   UNL     1      46.149   4.226  13.711  0.00  0.00    +0.000 NA
ATOM     13  C   UNL     1      47.206   5.078  13.767  0.00  0.00    +0.000 A 
ENDBRANCH   5   7
BRANCH   1  14
ATOM     14  O   UNL     1      50.875   7.978  15.496  0.00  0.00    +0.000 OA
BRANCH  14  15
ATOM     15  C   UNL     1      49.978   7.593  16.544  0.00  0.00    +0.000 C 
BRANCH  15  17
ATOM     16  C   UNL     1      51.849   5.938  16.830  0.00  0.00    +0.000 C 
ATOM     17  C   UNL     1      50.516   6.435  17.433  0.00  0.00    +0.000 C 
ATOM     18  C   UNL     1      50.783   6.995  18.847  0.00  0.00    +0.000 C 
BRANCH  17  19
ATOM     19  C   UNL     1      49.520   5.251  17.501  0.00  0.00    +0.000 A 
ATOM     20  C   UNL     1      48.139   5.479  17.332  0.00  0.00    +0.000 A 
ATOM     21  C   UNL     1      47.210   4.437  17.430  0.00  0.00    +0.000 A 
ATOM     22  C   UNL     1      47.650   3.150  17.696  0.00  0.00    +0.000 A 
ATOM     23  F   UNL     1      46.761   2.153  17.805  0.00  0.00    +0.000 F 
ATOM     24  C   UNL     1      48.998   2.883  17.856  0.00  0.00    +0.000 A 
ATOM     25  C   UNL     1      49.927   3.925  17.758  0.00  0.00    +0.000 A 
ENDBRANCH  17  19
ENDBRANCH  15  17
ENDBRANCH  14  15
ENDBRANCH   1  14
TORSDOF 5
ENDMDL
