MODEL 1
REMARK VINA RESULT:    -7.366      0.000      0.000
REMARK INTER + INTRA:         -11.791
REMARK INTER:                 -10.381
REMARK INTRA:                  -1.411
REMARK UNBOUND:                -1.411
REMARK  Name = 
REMARK  8 active torsions:
REMARK  status: ('A' for Active; 'I' for Inactive)
REMARK    1  A    between atoms: C_1  and  O_2
REMARK    2  A    between atoms: O_2  and  C_3
REMARK    3  A    between atoms: C_10  and  C_11
REMARK    4  A    between atoms: N_13  and  C_14
REMARK    5  A    between atoms: C_14  and  C_15
REMARK    6  A    between atoms: C_18  and  N_19
REMARK    7  A    between atoms: N_19  and  C_20
REMARK    8  A    between atoms: C_20  and  C_21
REMARK                            x       y       z     vdW  Elec       q    Type
REMARK                         _______ _______ _______ _____ _____    ______ ____
ROOT
ATOM      1  C   UNL     1      47.507   8.401  13.868  0.00  0.00    +0.000 C 
ENDROOT
BRANCH   1   2
ATOM      2  C   UNL     1      46.774   7.641  12.797  0.00  0.00    +0.000 A 
ATOM      3  C   UNL     1      47.479   7.038  11.749  0.00  0.00    +0.000 A 
ATOM      4  C   UNL     1      46.802   6.314  10.767  0.00  0.00    +0.000 A 
ATOM      5  C   UNL     1      45.414   6.154  10.822  0.00  0.00    +0.000 A 
ATOM      6  C   UNL     1      44.706   6.849  11.807  0.00  0.00    +0.000 A 
ATOM      7  C   UNL     1      45.378   7.575  12.794  0.00  0.00    +0.000 A 
BRANCH   5   8
ATOM      8  N   UNL     1      44.684   5.382   9.910  0.00  0.00    +0.000 N 
ATOM      9  H   UNL     1      44.852   5.710   8.960  0.00  0.00    +0.000 HD
BRANCH   8  10
ATOM     10  C   UNL     1      44.773   3.919  10.022  0.00  0.00    +0.000 C 
BRANCH  10  11
ATOM     11  C   UNL     1      44.389   3.193   8.711  0.00  0.00    +0.000 C 
ATOM     12  C   UNL     1      45.178   3.650   7.481  0.00  0.00    +0.000 C 
ATOM     13  C   UNL     1      46.589   3.086   7.504  0.00  0.00    +0.000 C 
ATOM     14  C   UNL     1      46.544   1.582   7.735  0.00  0.00    +0.000 C 
ATOM     15  N   UNL     1      45.815   1.244   8.953  0.00  0.00    +0.000 NA
ATOM     16  O   UNL     1      44.454   1.759   8.853  0.00  0.00    +0.000 OA
ATOM     17  H   UNL     1      46.210   1.675   9.786  0.00  0.00    +0.000 HD
ENDBRANCH  10  11
ENDBRANCH   8  10
ENDBRANCH   5   8
ENDBRANCH   1   2
BRANCH   1  20
ATOM     18  C   UNL     1      49.010   6.914  15.114  0.00  0.00    +0.000 C 
ATOM     19  O   UNL     1      49.896   7.054  14.275  0.00  0.00    +0.000 OA
ATOM     20  N   UNL     1      47.803   7.540  14.981  0.00  0.00    +0.000 N 
ATOM     21  H   UNL     1      47.066   7.376  15.651  0.00  0.00    +0.000 HD
BRANCH  18  29
ATOM     22  C   UNL     1      47.277   4.237  16.410  0.00  0.00    +0.000 A 
ATOM     23  N   UNL     1      46.806   3.194  17.123  0.00  0.00    +0.000 NA
ATOM     24  C   UNL     1      47.462   2.845  18.233  0.00  0.00    +0.000 A 
ATOM     25  N   UNL     1      48.554   3.416  18.732  0.00  0.00    +0.000 NA
ATOM     26  C   UNL     1      48.994   4.450  17.993  0.00  0.00    +0.000 A 
ATOM     27  S   UNL     1      50.376   5.302  18.482  0.00  0.00    +0.000 S 
ATOM     28  C   UNL     1      50.270   6.341  17.142  0.00  0.00    +0.000 A 
ATOM     29  C   UNL     1      49.200   6.066  16.301  0.00  0.00    +0.000 A 
ATOM     30  C   UNL     1      48.431   4.932  16.813  0.00  0.00    +0.000 A 
BRANCH  22  32
ATOM     31  C   UNL     1      47.128   3.890  14.099  0.00  0.00    +0.000 C 
ATOM     32  O   UNL     1      46.622   4.571  15.244  0.00  0.00    +0.000 OA
ENDBRANCH  22  32
ENDBRANCH  18  29
ENDBRANCH   1  20
TORSDOF 7
ENDMDL
MODEL 2
REMARK VINA RESULT:    -6.935      1.930      3.670
REMARK INTER + INTRA:         -11.183
REMARK INTER:                  -9.923
REMARK INTRA:                  -1.260
REMARK UNBOUND:                -1.411
REMARK  Name = 
REMARK  8 active torsions:
REMARK  status: ('A' for Active; 'I' for Inactive)
REMARK    1  A    between atoms: C_1  and  O_2
REMARK    2  A    between atoms: O_2  and  C_3
REMARK    3  A    between atoms: C_10  and  C_11
REMARK    4  A    between atoms: N_13  and  C_14
REMARK    5  A    between atoms: C_14  and  C_15
REMARK    6  A    between atoms: C_18  and  N_19
REMARK    7  A    between atoms: N_19  and  C_20
REMARK    8  A    between atoms: C_20  and  C_21
REMARK                            x       y       z     vdW  Elec       q    Type
REMARK                         _______ _______ _______ _____ _____    ______ ____
ROOT
ATOM      1  C   UNL     1      47.029   4.170  15.030  0.00  0.00    +0.000 C 
ENDROOT
BRANCH   1   2
ATOM      2  C   UNL     1      46.421   4.407  13.675  0.00  0.00    +0.000 A 
ATOM      3  C   UNL     1      46.461   5.679  13.095  0.00  0.00    +0.000 A 
ATOM      4  C   UNL     1      45.918   5.896  11.827  0.00  0.00    +0.000 A 
ATOM      5  C   UNL     1      45.349   4.844  11.102  0.00  0.00    +0.000 A 
ATOM      6  C   UNL     1      45.214   3.603  11.731  0.00  0.00    +0.000 A 
ATOM      7  C   UNL     1      45.756   3.380  12.998  0.00  0.00    +0.000 A 
BRANCH   5   8
ATOM      8  N   UNL     1      44.851   4.978   9.800  0.00  0.00    +0.000 N 
ATOM      9  H   UNL     1      44.380   5.876   9.695  0.00  0.00    +0.000 HD
BRANCH   8  10
ATOM     10  C   UNL     1      45.763   4.690   8.683  0.00  0.00    +0.000 C 
BRANCH  10  11
ATOM     11  C   UNL     1      45.184   3.657   7.688  0.00  0.00    +0.000 C 
ATOM     12  C   UNL     1      46.167   3.201   6.607  0.00  0.00    +0.000 C 
ATOM     13  C   UNL     1      47.190   2.234   7.179  0.00  0.00    +0.000 C 
ATOM     14  C   UNL     1      46.482   1.118   7.938  0.00  0.00    +0.000 C 
ATOM     15  N   UNL     1      45.605   1.645   8.978  0.00  0.00    +0.000 NA
ATOM     16  O   UNL     1      44.612   2.521   8.367  0.00  0.00    +0.000 OA
ATOM     17  H   UNL     1      46.096   2.221   9.658  0.00  0.00    +0.000 HD
ENDBRANCH  10  11
ENDBRANCH   8  10
ENDBRANCH   5   8
ENDBRANCH   1   2
BRANCH   1  20
ATOM     18  C   UNL     1      48.476   5.373  16.605  0.00  0.00    +0.000 C 
ATOM     19  O   UNL     1      48.734   4.336  17.210  0.00  0.00    +0.000 OA
ATOM     20  N   UNL     1      47.640   5.373  15.525  0.00  0.00    +0.000 N 
ATOM     21  H   UNL     1      47.395   6.241  15.069  0.00  0.00    +0.000 HD
BRANCH  18  29
ATOM     22  C   UNL     1      50.032   7.917  14.886  0.00  0.00    +0.000 A 
ATOM     23  N   UNL     1      50.655   9.040  14.476  0.00  0.00    +0.000 NA
ATOM     24  C   UNL     1      50.964   9.958  15.396  0.00  0.00    +0.000 A 
ATOM     25  N   UNL     1      50.723   9.897  16.702  0.00  0.00    +0.000 NA
ATOM     26  C   UNL     1      50.099   8.765  17.072  0.00  0.00    +0.000 A 
ATOM     27  S   UNL     1      49.716   8.514  18.704  0.00  0.00    +0.000 S 
ATOM     28  C   UNL     1      49.013   7.006  18.358  0.00  0.00    +0.000 A 
ATOM     29  C   UNL     1      49.049   6.665  17.012  0.00  0.00    +0.000 A 
ATOM     30  C   UNL     1      49.704   7.720  16.239  0.00  0.00    +0.000 A 
BRANCH  22  32
ATOM     31  C   UNL     1      49.633   7.527  12.612  0.00  0.00    +0.000 C 
ATOM     32  O   UNL     1      49.678   6.988  13.930  0.00  0.00    +0.000 OA
ENDBRANCH  22  32
ENDBRANCH  18  29
ENDBRANCH   1  20
TORSDOF 7
ENDMDL
MODEL 3
REMARK VINA RESULT:    -6.863      2.642      4.496
REMARK INTER + INTRA:         -11.082
REMARK INTER:                  -9.979
REMARK INTRA:                  -1.103
REMARK UNBOUND:                -1.411
REMARK  Name = 
REMARK  8 active torsions:
REMARK  status: ('A' for Active; 'I' for Inactive)
REMARK    1  A    between atoms: C_1  and  O_2
REMARK    2  A    between atoms: O_2  and  C_3
REMARK    3  A    between atoms: C_10  and  C_11
REMARK    4  A    between atoms: N_13  and  C_14
REMARK    5  A    between atoms: C_14  and  C_15
REMARK    6  A    between atoms: C_18  and  N_19
REMARK    7  A    between atoms: N_19  and  C_20
REMARK    8  A    between atoms: C_20  and  C_21
REMARK                            x       y       z     vdW  Elec       q    Type
REMARK                         _______ _______ _______ _____ _____    ______ ____
ROOT
ATOM      1  C   UNL     1      46.830   4.838  13.953  0.00  0.00    +0.000 C 
ENDROOT
BRANCH   1   2
ATOM      2  C   UNL     1      46.041   4.753  12.676  0.00  0.00    +0.000 A 
ATOM      3  C   UNL     1      46.005   5.836  11.792  0.00  0.00    +0.000 A 
ATOM      4  C   UNL     1      45.292   5.750  10.595  0.00  0.00    +0.000 A 
ATOM      5  C   UNL     1      44.621   4.574  10.244  0.00  0.00    +0.000 A 
ATOM      6  C   UNL     1      44.570   3.537  11.179  0.00  0.00    +0.000 A 
ATOM      7  C   UNL     1      45.283   3.616  12.378  0.00  0.00    +0.000 A 
BRANCH   5   8
ATOM      8  N   UNL     1      43.948   4.398   9.029  0.00  0.00    +0.000 N 
ATOM      9  H   UNL     1      43.682   5.303   8.641  0.00  0.00    +0.000 HD
BRANCH   8  10
ATOM     10  C   UNL     1      44.560   3.516   8.025  0.00  0.00    +0.000 C 
BRANCH  10  11
ATOM     11  C   UNL     1      46.083   3.340   8.231  0.00  0.00    +0.000 C 
ATOM     12  C   UNL     1      46.593   1.916   7.991  0.00  0.00    +0.000 C 
ATOM     13  C   UNL     1      46.650   1.605   6.505  0.00  0.00    +0.000 C 
ATOM     14  C   UNL     1      47.406   2.706   5.772  0.00  0.00    +0.000 C 
ATOM     15  N   UNL     1      46.821   4.020   6.020  0.00  0.00    +0.000 NA
ATOM     16  O   UNL     1      46.842   4.289   7.453  0.00  0.00    +0.000 OA
ATOM     17  H   UNL     1      45.843   4.077   5.745  0.00  0.00    +0.000 HD
ENDBRANCH  10  11
ENDBRANCH   8  10
ENDBRANCH   5   8
ENDBRANCH   1   2
BRANCH   1  20
ATOM     18  C   UNL     1      48.281   6.514  15.006  0.00  0.00    +0.000 C 
ATOM     19  O   UNL     1      48.965   5.640  15.531  0.00  0.00    +0.000 OA
ATOM     20  N   UNL     1      47.209   6.199  14.220  0.00  0.00    +0.000 N 
ATOM     21  H   UNL     1      46.624   6.928  13.838  0.00  0.00    +0.000 HD
BRANCH  18  29
ATOM     22  C   UNL     1      48.785   9.139  12.836  0.00  0.00    +0.000 A 
ATOM     23  N   UNL     1      49.014  10.322  12.232  0.00  0.00    +0.000 NA
ATOM     24  C   UNL     1      49.252  11.385  13.005  0.00  0.00    +0.000 A 
ATOM     25  N   UNL     1      49.289  11.419  14.333  0.00  0.00    +0.000 NA
ATOM     26  C   UNL     1      49.054  10.222  14.899  0.00  0.00    +0.000 A 
ATOM     27  S   UNL     1      49.067  10.076  16.588  0.00  0.00    +0.000 S 
ATOM     28  C   UNL     1      48.715   8.417  16.497  0.00  0.00    +0.000 A 
ATOM     29  C   UNL     1      48.577   7.942  15.199  0.00  0.00    +0.000 A 
ATOM     30  C   UNL     1      48.783   9.026  14.238  0.00  0.00    +0.000 A 
BRANCH  22  32
ATOM     31  C   UNL     1      49.666   7.389  11.553  0.00  0.00    +0.000 C 
ATOM     32  O   UNL     1      48.501   8.050  12.039  0.00  0.00    +0.000 OA
ENDBRANCH  22  32
ENDBRANCH  18  29
ENDBRANCH   1  20
TORSDOF 7
ENDMDL
MODEL 4
REMARK VINA RESULT:    -6.728      4.182      8.988
REMARK INTER + INTRA:         -10.893
REMARK INTER:                 -10.019
REMARK INTRA:                  -0.873
REMARK UNBOUND:                -1.411
REMARK  Name = 
REMARK  8 active torsions:
REMARK  status: ('A' for Active; 'I' for Inactive)
REMARK    1  A    between atoms: C_1  and  O_2
REMARK    2  A    between atoms: O_2  and  C_3
REMARK    3  A    between atoms: C_10  and  C_11
REMARK    4  A    between atoms: N_13  and  C_14
REMARK    5  A    between atoms: C_14  and  C_15
REMARK    6  A    between atoms: C_18  and  N_19
REMARK    7  A    between atoms: N_19  and  C_20
REMARK    8  A    between atoms: C_20  and  C_21
REMARK                            x       y       z     vdW  Elec       q    Type
REMARK                         _______ _______ _______ _____ _____    ______ ____
ROOT
ATOM      1  C   UNL     1      47.217   3.384  16.829  0.00  0.00    +0.000 C 
ENDROOT
BRANCH   1   2
ATOM      2  C   UNL     1      48.687   3.380  17.147  0.00  0.00    +0.000 A 
ATOM      3  C   UNL     1      49.417   2.188  17.103  0.00  0.00    +0.000 A 
ATOM      4  C   UNL     1      50.786   2.187  17.375  0.00  0.00    +0.000 A 
ATOM      5  C   UNL     1      51.459   3.377  17.671  0.00  0.00    +0.000 A 
ATOM      6  C   UNL     1      50.705   4.544  17.820  0.00  0.00    +0.000 A 
ATOM      7  C   UNL     1      49.335   4.552  17.548  0.00  0.00    +0.000 A 
BRANCH   5   8
ATOM      8  N   UNL     1      52.841   3.455  17.884  0.00  0.00    +0.000 N 
ATOM      9  H   UNL     1      53.093   4.388  18.208  0.00  0.00    +0.000 HD
BRANCH   8  10
ATOM     10  C   UNL     1      53.475   2.394  18.681  0.00  0.00    +0.000 C 
BRANCH  10  11
ATOM     11  C   UNL     1      54.315   1.420  17.821  0.00  0.00    +0.000 C 
ATOM     12  C   UNL     1      55.639   0.994  18.461  0.00  0.00    +0.000 C 
ATOM     13  C   UNL     1      55.403  -0.018  19.569  0.00  0.00    +0.000 C 
ATOM     14  C   UNL     1      54.525  -1.153  19.058  0.00  0.00    +0.000 C 
ATOM     15  N   UNL     1      53.266  -0.658  18.513  0.00  0.00    +0.000 NA
ATOM     16  O   UNL     1      53.550   0.265  17.419  0.00  0.00    +0.000 OA
ATOM     17  H   UNL     1      52.723  -0.123  19.187  0.00  0.00    +0.000 HD
ENDBRANCH  10  11
ENDBRANCH   8  10
ENDBRANCH   5   8
ENDBRANCH   1   2
BRANCH   1  20
ATOM     18  C   UNL     1      46.964   4.246  14.544  0.00  0.00    +0.000 C 
ATOM     19  O   UNL     1      47.296   3.165  14.065  0.00  0.00    +0.000 OA
ATOM     20  N   UNL     1      46.907   4.434  15.896  0.00  0.00    +0.000 N 
ATOM     21  H   UNL     1      46.683   5.343  16.277  0.00  0.00    +0.000 HD
BRANCH  18  29
ATOM     22  C   UNL     1      44.196   5.031  12.655  0.00  0.00    +0.000 A 
ATOM     23  N   UNL     1      43.262   5.581  11.853  0.00  0.00    +0.000 NA
ATOM     24  C   UNL     1      43.535   6.762  11.291  0.00  0.00    +0.000 A 
ATOM     25  N   UNL     1      44.645   7.480  11.431  0.00  0.00    +0.000 NA
ATOM     26  C   UNL     1      45.551   6.899  12.238  0.00  0.00    +0.000 A 
ATOM     27  S   UNL     1      47.032   7.672  12.528  0.00  0.00    +0.000 S 
ATOM     28  C   UNL     1      47.546   6.412  13.546  0.00  0.00    +0.000 A 
ATOM     29  C   UNL     1      46.615   5.392  13.691  0.00  0.00    +0.000 A 
ATOM     30  C   UNL     1      45.417   5.682  12.903  0.00  0.00    +0.000 A 
BRANCH  22  32
ATOM     31  C   UNL     1      43.711   2.761  12.343  0.00  0.00    +0.000 C 
ATOM     32  O   UNL     1      43.897   3.831  13.266  0.00  0.00    +0.000 OA
ENDBRANCH  22  32
ENDBRANCH  18  29
ENDBRANCH   1  20
TORSDOF 7
ENDMDL
MODEL 5
REMARK VINA RESULT:    -6.653      1.628      1.990
REMARK INTER + INTRA:         -10.786
REMARK INTER:                  -9.575
REMARK INTRA:                  -1.212
REMARK UNBOUND:                -1.411
REMARK  Name = 
REMARK  8 active torsions:
REMARK  status: ('A' for Active; 'I' for Inactive)
REMARK    1  A    between atoms: C_1  and  O_2
REMARK    2  A    between atoms: O_2  and  C_3
REMARK    3  A    between atoms: C_10  and  C_11
REMARK    4  A    between atoms: N_13  and  C_14
REMARK    5  A    between atoms: C_14  and  C_15
REMARK    6  A    between atoms: C_18  and  N_19
REMARK    7  A    between atoms: N_19  and  C_20
REMARK    8  A    between atoms: C_20  and  C_21
REMARK                            x       y       z     vdW  Elec       q    Type
REMARK                         _______ _______ _______ _____ _____    ______ ____
ROOT
ATOM      1  C   UNL     1      48.421   9.201  14.187  0.00  0.00    +0.000 C 
ENDROOT
BRANCH   1   2
ATOM      2  C   UNL     1      47.482   8.429  13.300  0.00  0.00    +0.000 A 
ATOM      3  C   UNL     1      46.130   8.781  13.226  0.00  0.00    +0.000 A 
ATOM      4  C   UNL     1      45.263   8.080  12.386  0.00  0.00    +0.000 A 
ATOM      5  C   UNL     1      45.730   7.034  11.585  0.00  0.00    +0.000 A 
ATOM      6  C   UNL     1      47.055   6.618  11.745  0.00  0.00    +0.000 A 
ATOM      7  C   UNL     1      47.928   7.315  12.583  0.00  0.00    +0.000 A 
BRANCH   5   8
ATOM      8  N   UNL     1      44.929   6.338  10.670  0.00  0.00    +0.000 N 
ATOM      9  H   UNL     1      44.621   6.964   9.927  0.00  0.00    +0.000 HD
BRANCH   8  10
ATOM     10  C   UNL     1      45.431   5.057  10.152  0.00  0.00    +0.000 C 
BRANCH  10  11
ATOM     11  C   UNL     1      44.423   4.353   9.214  0.00  0.00    +0.000 C 
ATOM     12  C   UNL     1      45.024   3.859   7.896  0.00  0.00    +0.000 C 
ATOM     13  C   UNL     1      45.855   2.606   8.117  0.00  0.00    +0.000 C 
ATOM     14  C   UNL     1      45.047   1.578   8.898  0.00  0.00    +0.000 C 
ATOM     15  N   UNL     1      44.557   2.121  10.160  0.00  0.00    +0.000 NA
ATOM     16  O   UNL     1      43.722   3.286   9.886  0.00  0.00    +0.000 OA
ATOM     17  H   UNL     1      45.302   2.456  10.765  0.00  0.00    +0.000 HD
ENDBRANCH  10  11
ENDBRANCH   8  10
ENDBRANCH   5   8
ENDBRANCH   1   2
BRANCH   1  20
ATOM     18  C   UNL     1      48.601   8.528  16.540  0.00  0.00    +0.000 C 
ATOM     19  O   UNL     1      47.843   9.429  16.889  0.00  0.00    +0.000 OA
ATOM     20  N   UNL     1      48.938   8.355  15.228  0.00  0.00    +0.000 N 
ATOM     21  H   UNL     1      49.603   7.643  14.961  0.00  0.00    +0.000 HD
BRANCH  18  29
ATOM     22  C   UNL     1      48.845   5.097  16.674  0.00  0.00    +0.000 A 
ATOM     23  N   UNL     1      49.081   3.805  16.977  0.00  0.00    +0.000 NA
ATOM     24  C   UNL     1      49.718   3.535  18.120  0.00  0.00    +0.000 A 
ATOM     25  N   UNL     1      50.161   4.410  19.018  0.00  0.00    +0.000 NA
ATOM     26  C   UNL     1      49.909   5.687  18.679  0.00  0.00    +0.000 A 
ATOM     27  S   UNL     1      50.399   6.940  19.711  0.00  0.00    +0.000 S 
ATOM     28  C   UNL     1      49.771   8.118  18.660  0.00  0.00    +0.000 A 
ATOM     29  C   UNL     1      49.186   7.594  17.514  0.00  0.00    +0.000 A 
ATOM     30  C   UNL     1      49.266   6.133  17.526  0.00  0.00    +0.000 A 
BRANCH  22  32
ATOM     31  C   UNL     1      47.163   4.475  15.169  0.00  0.00    +0.000 C 
ATOM     32  O   UNL     1      48.223   5.376  15.475  0.00  0.00    +0.000 OA
ENDBRANCH  22  32
ENDBRANCH  18  29
ENDBRANCH   1  20
TORSDOF 7
ENDMDL
MODEL 6
REMARK VINA RESULT:    -6.639      2.442      2.916
REMARK INTER + INTRA:         -10.767
REMARK INTER:                  -8.979
REMARK INTRA:                  -1.789
REMARK UNBOUND:                -1.411
REMARK  Name = 
REMARK  8 active torsions:
REMARK  status: ('A' for Active; 'I' for Inactive)
REMARK    1  A    between atoms: C_1  and  O_2
REMARK    2  A    between atoms: O_2  and  C_3
REMARK    3  A    between atoms: C_10  and  C_11
REMARK    4  A    between atoms: N_13  and  C_14
REMARK    5  A    between atoms: C_14  and  C_15
REMARK    6  A    between atoms: C_18  and  N_19
REMARK    7  A    between atoms: N_19  and  C_20
REMARK    8  A    between atoms: C_20  and  C_21
REMARK                            x       y       z     vdW  Elec       q    Type
REMARK                         _______ _______ _______ _____ _____    ______ ____
ROOT
ATOM      1  C   UNL     1      49.138   8.550  14.249  0.00  0.00    +0.000 C 
ENDROOT
BRANCH   1   2
ATOM      2  C   UNL     1      48.013   8.141  13.338  0.00  0.00    +0.000 A 
ATOM      3  C   UNL     1      48.198   7.120  12.399  0.00  0.00    +0.000 A 
ATOM      4  C   UNL     1      47.148   6.724  11.569  0.00  0.00    +0.000 A 
ATOM      5  C   UNL     1      45.886   7.319  11.676  0.00  0.00    +0.000 A 
ATOM      6  C   UNL     1      45.740   8.410  12.537  0.00  0.00    +0.000 A 
ATOM      7  C   UNL     1      46.786   8.810  13.371  0.00  0.00    +0.000 A 
BRANCH   5   8
ATOM      8  N   UNL     1      44.774   6.921  10.924  0.00  0.00    +0.000 N 
ATOM      9  H   UNL     1      44.557   7.625  10.220  0.00  0.00    +0.000 HD
BRANCH   8  10
ATOM     10  C   UNL     1      44.768   5.557  10.374  0.00  0.00    +0.000 C 
BRANCH  10  11
ATOM     11  C   UNL     1      43.434   4.816  10.626  0.00  0.00    +0.000 C 
ATOM     12  C   UNL     1      43.595   3.376  11.122  0.00  0.00    +0.000 C 
ATOM     13  C   UNL     1      44.007   3.351  12.584  0.00  0.00    +0.000 C 
ATOM     14  C   UNL     1      43.069   4.228  13.404  0.00  0.00    +0.000 C 
ATOM     15  N   UNL     1      43.017   5.592  12.888  0.00  0.00    +0.000 NA
ATOM     16  O   UNL     1      42.563   5.561  11.502  0.00  0.00    +0.000 OA
ATOM     17  H   UNL     1      43.928   6.045  12.867  0.00  0.00    +0.000 HD
ENDBRANCH  10  11
ENDBRANCH   8  10
ENDBRANCH   5   8
ENDBRANCH   1   2
BRANCH   1  20
ATOM     18  C   UNL     1      48.642   8.102  16.610  0.00  0.00    +0.000 C 
ATOM     19  O   UNL     1      48.120   9.205  16.743  0.00  0.00    +0.000 OA
ATOM     20  N   UNL     1      49.172   7.709  15.415  0.00  0.00    +0.000 N 
ATOM     21  H   UNL     1      49.646   6.820  15.333  0.00  0.00    +0.000 HD
BRANCH  18  29
ATOM     22  C   UNL     1      48.345   4.680  16.834  0.00  0.00    +0.000 A 
ATOM     23  N   UNL     1      48.282   3.386  17.205  0.00  0.00    +0.000 NA
ATOM     24  C   UNL     1      48.452   3.094  18.498  0.00  0.00    +0.000 A 
ATOM     25  N   UNL     1      48.684   3.950  19.489  0.00  0.00    +0.000 NA
ATOM     26  C   UNL     1      48.742   5.229  19.079  0.00  0.00    +0.000 A 
ATOM     27  S   UNL     1      49.026   6.459  20.211  0.00  0.00    +0.000 S 
ATOM     28  C   UNL     1      48.960   7.653  19.003  0.00  0.00    +0.000 A 
ATOM     29  C   UNL     1      48.729   7.151  17.729  0.00  0.00    +0.000 A 
ATOM     30  C   UNL     1      48.595   5.695  17.774  0.00  0.00    +0.000 A 
BRANCH  22  32
ATOM     31  C   UNL     1      46.968   4.538  14.945  0.00  0.00    +0.000 C 
ATOM     32  O   UNL     1      48.208   4.976  15.494  0.00  0.00    +0.000 OA
ENDBRANCH  22  32
ENDBRANCH  18  29
ENDBRANCH   1  20
TORSDOF 7
ENDMDL
MODEL 7
REMARK VINA RESULT:    -6.437      2.830      4.261
REMARK INTER + INTRA:         -10.482
REMARK INTER:                  -9.907
REMARK INTRA:                  -0.575
REMARK UNBOUND:                -1.411
REMARK  Name = 
REMARK  8 active torsions:
REMARK  status: ('A' for Active; 'I' for Inactive)
REMARK    1  A    between atoms: C_1  and  O_2
REMARK    2  A    between atoms: O_2  and  C_3
REMARK    3  A    between atoms: C_10  and  C_11
REMARK    4  A    between atoms: N_13  and  C_14
REMARK    5  A    between atoms: C_14  and  C_15
REMARK    6  A    between atoms: C_18  and  N_19
REMARK    7  A    between atoms: N_19  and  C_20
REMARK    8  A    between atoms: C_20  and  C_21
REMARK                            x       y       z     vdW  Elec       q    Type
REMARK                         _______ _______ _______ _____ _____    ______ ____
ROOT
ATOM      1  C   UNL     1      46.623   4.873  13.844  0.00  0.00    +0.000 C 
ENDROOT
BRANCH   1   2
ATOM      2  C   UNL     1      45.868   4.753  12.549  0.00  0.00    +0.000 A 
ATOM      3  C   UNL     1      45.813   5.831  11.659  0.00  0.00    +0.000 A 
ATOM      4  C   UNL     1      45.132   5.713  10.446  0.00  0.00    +0.000 A 
ATOM      5  C   UNL     1      44.514   4.512  10.085  0.00  0.00    +0.000 A 
ATOM      6  C   UNL     1      44.478   3.477  11.024  0.00  0.00    +0.000 A 
ATOM      7  C   UNL     1      45.159   3.588  12.239  0.00  0.00    +0.000 A 
BRANCH   5   8
ATOM      8  N   UNL     1      43.876   4.305   8.856  0.00  0.00    +0.000 N 
ATOM      9  H   UNL     1      43.550   5.194   8.476  0.00  0.00    +0.000 HD
BRANCH   8  10
ATOM     10  C   UNL     1      44.569   3.486   7.851  0.00  0.00    +0.000 C 
BRANCH  10  11
ATOM     11  C   UNL     1      46.087   3.363   8.121  0.00  0.00    +0.000 C 
ATOM     12  C   UNL     1      46.636   1.938   8.004  0.00  0.00    +0.000 C 
ATOM     13  C   UNL     1      46.754   1.522   6.548  0.00  0.00    +0.000 C 
ATOM     14  C   UNL     1      47.512   2.585   5.763  0.00  0.00    +0.000 C 
ATOM     15  N   UNL     1      46.889   3.899   5.893  0.00  0.00    +0.000 NA
ATOM     16  O   UNL     1      46.852   4.272   7.303  0.00  0.00    +0.000 OA
ATOM     17  H   UNL     1      45.921   3.913   5.581  0.00  0.00    +0.000 HD
ENDBRANCH  10  11
ENDBRANCH   8  10
ENDBRANCH   5   8
ENDBRANCH   1   2
BRANCH   1  20
ATOM     18  C   UNL     1      48.208   6.740  13.686  0.00  0.00    +0.000 C 
ATOM     19  O   UNL     1      49.033   6.033  13.114  0.00  0.00    +0.000 OA
ATOM     20  N   UNL     1      47.000   6.240  14.082  0.00  0.00    +0.000 N 
ATOM     21  H   UNL     1      46.351   6.818  14.597  0.00  0.00    +0.000 HD
BRANCH  18  29
ATOM     22  C   UNL     1      48.880   8.476  16.582  0.00  0.00    +0.000 A 
ATOM     23  N   UNL     1      49.159   9.385  17.537  0.00  0.00    +0.000 NA
ATOM     24  C   UNL     1      49.307  10.660  17.165  0.00  0.00    +0.000 A 
ATOM     25  N   UNL     1      49.211  11.152  15.934  0.00  0.00    +0.000 NA
ATOM     26  C   UNL     1      48.934  10.215  15.010  0.00  0.00    +0.000 A 
ATOM     27  S   UNL     1      48.770  10.664  13.383  0.00  0.00    +0.000 S 
ATOM     28  C   UNL     1      48.459   9.059  12.920  0.00  0.00    +0.000 A 
ATOM     29  C   UNL     1      48.476   8.157  13.976  0.00  0.00    +0.000 A 
ATOM     30  C   UNL     1      48.759   8.851  15.232  0.00  0.00    +0.000 A 
BRANCH  22  32
ATOM     31  C   UNL     1      48.307   6.992  18.300  0.00  0.00    +0.000 C 
ATOM     32  O   UNL     1      48.766   7.155  16.961  0.00  0.00    +0.000 OA
ENDBRANCH  22  32
ENDBRANCH  18  29
ENDBRANCH   1  20
TORSDOF 7
ENDMDL
MODEL 8
REMARK VINA RESULT:    -6.195      3.465      5.731
REMARK INTER + INTRA:         -10.141
REMARK INTER:                  -8.781
REMARK INTRA:                  -1.361
REMARK UNBOUND:                -1.411
REMARK  Name = 
REMARK  8 active torsions:
REMARK  status: ('A' for Active; 'I' for Inactive)
REMARK    1  A    between atoms: C_1  and  O_2
REMARK    2  A    between atoms: O_2  and  C_3
REMARK    3  A    between atoms: C_10  and  C_11
REMARK    4  A    between atoms: N_13  and  C_14
REMARK    5  A    between atoms: C_14  and  C_15
REMARK    6  A    between atoms: C_18  and  N_19
REMARK    7  A    between atoms: N_19  and  C_20
REMARK    8  A    between atoms: C_20  and  C_21
REMARK                            x       y       z     vdW  Elec       q    Type
REMARK                         _______ _______ _______ _____ _____    ______ ____
ROOT
ATOM      1  C   UNL     1      48.350   3.251  17.999  0.00  0.00    +0.000 C 
ENDROOT
BRANCH   1   2
ATOM      2  C   UNL     1      48.082   4.154  16.827  0.00  0.00    +0.000 A 
ATOM      3  C   UNL     1      47.344   3.693  15.732  0.00  0.00    +0.000 A 
ATOM      4  C   UNL     1      47.075   4.538  14.654  0.00  0.00    +0.000 A 
ATOM      5  C   UNL     1      47.513   5.866  14.657  0.00  0.00    +0.000 A 
ATOM      6  C   UNL     1      48.342   6.287  15.702  0.00  0.00    +0.000 A 
ATOM      7  C   UNL     1      48.613   5.447  16.784  0.00  0.00    +0.000 A 
BRANCH   5   8
ATOM      8  N   UNL     1      47.218   6.784  13.642  0.00  0.00    +0.000 N 
ATOM      9  H   UNL     1      47.802   7.614  13.739  0.00  0.00    +0.000 HD
BRANCH   8  10
ATOM     10  C   UNL     1      47.173   6.288  12.259  0.00  0.00    +0.000 C 
BRANCH  10  11
ATOM     11  C   UNL     1      45.878   6.696  11.517  0.00  0.00    +0.000 C 
ATOM     12  C   UNL     1      45.258   5.581  10.670  0.00  0.00    +0.000 C 
ATOM     13  C   UNL     1      44.559   4.558  11.550  0.00  0.00    +0.000 C 
ATOM     14  C   UNL     1      43.608   5.261  12.509  0.00  0.00    +0.000 C 
ATOM     15  N   UNL     1      44.295   6.271  13.308  0.00  0.00    +0.000 NA
ATOM     16  O   UNL     1      44.899   7.255  12.417  0.00  0.00    +0.000 OA
ATOM     17  H   UNL     1      45.064   5.889  13.855  0.00  0.00    +0.000 HD
ENDBRANCH  10  11
ENDBRANCH   8  10
ENDBRANCH   5   8
ENDBRANCH   1   2
BRANCH   1  20
ATOM     18  C   UNL     1      50.481   2.251  17.305  0.00  0.00    +0.000 C 
ATOM     19  O   UNL     1      49.942   1.676  16.364  0.00  0.00    +0.000 OA
ATOM     20  N   UNL     1      49.763   3.039  18.159  0.00  0.00    +0.000 N 
ATOM     21  H   UNL     1      50.209   3.465  18.959  0.00  0.00    +0.000 HD
BRANCH  18  29
ATOM     22  C   UNL     1      53.030   4.528  17.709  0.00  0.00    +0.000 A 
ATOM     23  N   UNL     1      54.193   5.182  17.906  0.00  0.00    +0.000 NA
ATOM     24  C   UNL     1      55.295   4.454  18.109  0.00  0.00    +0.000 A 
ATOM     25  N   UNL     1      55.386   3.129  18.145  0.00  0.00    +0.000 NA
ATOM     26  C   UNL     1      54.206   2.513  17.948  0.00  0.00    +0.000 A 
ATOM     27  S   UNL     1      54.133   0.820  17.955  0.00  0.00    +0.000 S 
ATOM     28  C   UNL     1      52.459   0.841  17.667  0.00  0.00    +0.000 A 
ATOM     29  C   UNL     1      51.923   2.118  17.565  0.00  0.00    +0.000 A 
ATOM     30  C   UNL     1      52.973   3.123  17.730  0.00  0.00    +0.000 A 
BRANCH  22  32
ATOM     31  C   UNL     1      52.063   6.374  16.641  0.00  0.00    +0.000 C 
ATOM     32  O   UNL     1      51.887   5.281  17.538  0.00  0.00    +0.000 OA
ENDBRANCH  22  32
ENDBRANCH  18  29
ENDBRANCH   1  20
TORSDOF 7
ENDMDL
MODEL 9
REMARK VINA RESULT:    -6.124      4.240      9.023
REMARK INTER + INTRA:         -10.041
REMARK INTER:                  -8.574
REMARK INTRA:                  -1.467
REMARK UNBOUND:                -1.411
REMARK  Name = 
REMARK  8 active torsions:
REMARK  status: ('A' for Active; 'I' for Inactive)
REMARK    1  A    between atoms: C_1  and  O_2
REMARK    2  A    between atoms: O_2  and  C_3
REMARK    3  A    between atoms: C_10  and  C_11
REMARK    4  A    between atoms: N_13  and  C_14
REMARK    5  A    between atoms: C_14  and  C_15
REMARK    6  A    between atoms: C_18  and  N_19
REMARK    7  A    between atoms: N_19  and  C_20
REMARK    8  A    between atoms: C_20  and  C_21
REMARK                            x       y       z     vdW  Elec       q    Type
REMARK                         _______ _______ _______ _____ _____    ______ ____
ROOT
ATOM      1  C   UNL     1      47.449   3.317  17.089  0.00  0.00    +0.000 C 
ENDROOT
BRANCH   1   2
ATOM      2  C   UNL     1      48.931   3.245  17.335  0.00  0.00    +0.000 A 
ATOM      3  C   UNL     1      49.634   2.063  17.078  0.00  0.00    +0.000 A 
ATOM      4  C   UNL     1      51.014   2.002  17.284  0.00  0.00    +0.000 A 
ATOM      5  C   UNL     1      51.723   3.124  17.725  0.00  0.00    +0.000 A 
ATOM      6  C   UNL     1      51.000   4.265  18.085  0.00  0.00    +0.000 A 
ATOM      7  C   UNL     1      49.620   4.333  17.880  0.00  0.00    +0.000 A 
BRANCH   5   8
ATOM      8  N   UNL     1      53.114   3.150  17.884  0.00  0.00    +0.000 N 
ATOM      9  H   UNL     1      53.447   4.114  17.899  0.00  0.00    +0.000 HD
BRANCH   8  10
ATOM     10  C   UNL     1      53.698   2.338  18.961  0.00  0.00    +0.000 C 
BRANCH  10  11
ATOM     11  C   UNL     1      55.045   1.692  18.561  0.00  0.00    +0.000 C 
ATOM     12  C   UNL     1      55.402   0.431  19.354  0.00  0.00    +0.000 C 
ATOM     13  C   UNL     1      54.574  -0.754  18.888  0.00  0.00    +0.000 C 
ATOM     14  C   UNL     1      54.660  -0.884  17.373  0.00  0.00    +0.000 C 
ATOM     15  N   UNL     1      54.255   0.346  16.701  0.00  0.00    +0.000 NA
ATOM     16  O   UNL     1      55.117   1.437  17.143  0.00  0.00    +0.000 OA
ATOM     17  H   UNL     1      53.308   0.634  16.935  0.00  0.00    +0.000 HD
ENDBRANCH  10  11
ENDBRANCH   8  10
ENDBRANCH   5   8
ENDBRANCH   1   2
BRANCH   1  20
ATOM     18  C   UNL     1      47.106   4.138  14.802  0.00  0.00    +0.000 C 
ATOM     19  O   UNL     1      47.341   3.027  14.334  0.00  0.00    +0.000 OA
ATOM     20  N   UNL     1      47.145   4.362  16.148  0.00  0.00    +0.000 N 
ATOM     21  H   UNL     1      47.002   5.291  16.517  0.00  0.00    +0.000 HD
BRANCH  18  29
ATOM     22  C   UNL     1      48.658   7.143  14.159  0.00  0.00    +0.000 A 
ATOM     23  N   UNL     1      49.039   8.362  13.728  0.00  0.00    +0.000 NA
ATOM     24  C   UNL     1      48.249   8.994  12.856  0.00  0.00    +0.000 A 
ATOM     25  N   UNL     1      47.102   8.554  12.347  0.00  0.00    +0.000 NA
ATOM     26  C   UNL     1      46.757   7.336  12.799  0.00  0.00    +0.000 A 
ATOM     27  S   UNL     1      45.319   6.618  12.260  0.00  0.00    +0.000 S 
ATOM     28  C   UNL     1      45.597   5.234  13.205  0.00  0.00    +0.000 A 
ATOM     29  C   UNL     1      46.774   5.282  13.940  0.00  0.00    +0.000 A 
ATOM     30  C   UNL     1      47.471   6.546  13.698  0.00  0.00    +0.000 A 
BRANCH  22  32
ATOM     31  C   UNL     1      50.559   7.284  15.519  0.00  0.00    +0.000 C 
ATOM     32  O   UNL     1      49.494   6.474  15.029  0.00  0.00    +0.000 OA
ENDBRANCH  22  32
ENDBRANCH  18  29
ENDBRANCH   1  20
TORSDOF 7
ENDMDL
