MODEL 1
REMARK VINA RESULT:    -8.902      0.000      0.000
REMARK INTER + INTRA:         -12.187
REMARK INTER:                 -11.505
REMARK INTRA:                  -0.683
REMARK UNBOUND:                -0.683
REMARK  Name = 
REMARK  6 active torsions:
REMARK  status: ('A' for Active; 'I' for Inactive)
REMARK    1  A    between atoms: C_1  and  C_2
REMARK    2  A    between atoms: C_4  and  N_5
REMARK    3  A    between atoms: N_5  and  C_6
REMARK    4  A    between atoms: C_6  and  C_7
REMARK    5  A    between atoms: C_11  and  C_12
REMARK    6  A    between atoms: C_21  and  C_22
REMARK                            x       y       z     vdW  Elec       q    Type
REMARK                         _______ _______ _______ _____ _____    ______ ____
ROOT
ATOM      1  N   UNL     1      44.151   7.051  12.264  0.00  0.00    +0.000 N 
ATOM      2  H   UNL     1      43.687   7.542  13.019  0.00  0.00    +0.000 HD
ENDROOT
BRANCH   1   6
ATOM      3  C   UNL     1      49.016   7.764  11.588  0.00  0.00    +0.000 C 
ATOM      4  C   UNL     1      47.858   7.064  12.235  0.00  0.00    +0.000 A 
ATOM      5  C   UNL     1      46.536   7.392  11.913  0.00  0.00    +0.000 A 
ATOM      6  C   UNL     1      45.465   6.727  12.517  0.00  0.00    +0.000 A 
ATOM      7  N   UNL     1      45.671   5.753  13.427  0.00  0.00    +0.000 NA
ATOM      8  C   UNL     1      46.966   5.447  13.742  0.00  0.00    +0.000 A 
ATOM      9  C   UNL     1      48.075   6.066  13.180  0.00  0.00    +0.000 A 
BRANCH   8  10
ATOM     10  C   UNL     1      47.188   4.376  14.770  0.00  0.00    +0.000 C 
ATOM     11  N   UNL     1      47.135   4.768  16.078  0.00  0.00    +0.000 N 
ATOM     12  O   UNL     1      47.416   3.208  14.467  0.00  0.00    +0.000 OA
ATOM     13  H   UNL     1      46.947   5.737  16.309  0.00  0.00    +0.000 HD
ATOM     14  H   UNL     1      47.273   4.089  16.808  0.00  0.00    +0.000 HD
ENDBRANCH   8  10
ENDBRANCH   1   6
BRANCH   1  15
ATOM     15  C   UNL     1      43.354   6.440  11.217  0.00  0.00    +0.000 C 
BRANCH  15  16
ATOM     16  C   UNL     1      43.637   4.959  11.035  0.00  0.00    +0.000 A 
ATOM     17  C   UNL     1      43.037   4.026  11.878  0.00  0.00    +0.000 A 
ATOM     18  C   UNL     1      43.254   2.674  11.643  0.00  0.00    +0.000 A 
ATOM     19  C   UNL     1      44.064   2.287  10.581  0.00  0.00    +0.000 A 
ATOM     20  C   UNL     1      44.636   3.263   9.766  0.00  0.00    +0.000 A 
ATOM     21  N   UNL     1      44.440   4.588   9.999  0.00  0.00    +0.000 NA
BRANCH  20  22
ATOM     22  C   UNL     1      45.480   2.914   8.610  0.00  0.00    +0.000 A 
ATOM     23  C   UNL     1      45.850   3.865   7.653  0.00  0.00    +0.000 A 
ATOM     24  N   UNL     1      46.669   3.627   6.591  0.00  0.00    +0.000 NA
ATOM     25  C   UNL     1      47.141   2.368   6.464  0.00  0.00    +0.000 A 
ATOM     26  C   UNL     1      46.817   1.347   7.334  0.00  0.00    +0.000 A 
ATOM     27  F   UNL     1      47.307   0.113   7.159  0.00  0.00    +0.000 F 
ATOM     28  C   UNL     1      45.977   1.615   8.406  0.00  0.00    +0.000 A 
ENDBRANCH  20  22
ENDBRANCH  15  16
ENDBRANCH   1  15
TORSDOF 5
ENDMDL
MODEL 2
REMARK VINA RESULT:    -7.918      2.599      3.949
REMARK INTER + INTRA:         -10.915
REMARK INTER:                 -10.439
REMARK INTRA:                  -0.476
REMARK UNBOUND:                -0.683
REMARK  Name = 
REMARK  6 active torsions:
REMARK  status: ('A' for Active; 'I' for Inactive)
REMARK    1  A    between atoms: C_1  and  C_2
REMARK    2  A    between atoms: C_4  and  N_5
REMARK    3  A    between atoms: N_5  and  C_6
REMARK    4  A    between atoms: C_6  and  C_7
REMARK    5  A    between atoms: C_11  and  C_12
REMARK    6  A    between atoms: C_21  and  C_22
REMARK                            x       y       z     vdW  Elec       q    Type
REMARK                         _______ _______ _______ _____ _____    ______ ____
ROOT
ATOM      1  N   UNL     1      46.690   3.906  14.885  0.00  0.00    +0.000 N 
ATOM      2  H   UNL     1      46.627   2.975  14.490  0.00  0.00    +0.000 HD
ENDROOT
BRANCH   1   6
ATOM      3  C   UNL     1      47.447   5.670  19.462  0.00  0.00    +0.000 C 
ATOM      4  C   UNL     1      47.828   4.807  18.297  0.00  0.00    +0.000 A 
ATOM      5  C   UNL     1      47.066   4.790  17.122  0.00  0.00    +0.000 A 
ATOM      6  C   UNL     1      47.436   3.987  16.039  0.00  0.00    +0.000 A 
ATOM      7  N   UNL     1      48.533   3.203  16.093  0.00  0.00    +0.000 NA
ATOM      8  C   UNL     1      49.263   3.219  17.249  0.00  0.00    +0.000 A 
ATOM      9  C   UNL     1      48.955   3.992  18.359  0.00  0.00    +0.000 A 
BRANCH   8  10
ATOM     10  C   UNL     1      50.472   2.330  17.308  0.00  0.00    +0.000 C 
ATOM     11  N   UNL     1      51.503   2.759  18.097  0.00  0.00    +0.000 N 
ATOM     12  O   UNL     1      50.549   1.278  16.681  0.00  0.00    +0.000 OA
ATOM     13  H   UNL     1      51.422   3.631  18.607  0.00  0.00    +0.000 HD
ATOM     14  H   UNL     1      52.336   2.199  18.175  0.00  0.00    +0.000 HD
ENDBRANCH   8  10
ENDBRANCH   1   6
BRANCH   1  15
ATOM     15  C   UNL     1      46.339   5.051  14.066  0.00  0.00    +0.000 C 
BRANCH  15  16
ATOM     16  C   UNL     1      45.286   4.739  13.019  0.00  0.00    +0.000 A 
ATOM     17  C   UNL     1      43.942   4.992  13.285  0.00  0.00    +0.000 A 
ATOM     18  C   UNL     1      43.006   4.768  12.282  0.00  0.00    +0.000 A 
ATOM     19  C   UNL     1      43.432   4.294  11.046  0.00  0.00    +0.000 A 
ATOM     20  C   UNL     1      44.790   4.062  10.832  0.00  0.00    +0.000 A 
ATOM     21  N   UNL     1      45.708   4.265  11.814  0.00  0.00    +0.000 NA
BRANCH  20  22
ATOM     22  C   UNL     1      45.303   3.586   9.536  0.00  0.00    +0.000 A 
ATOM     23  C   UNL     1      45.624   4.471   8.501  0.00  0.00    +0.000 A 
ATOM     24  N   UNL     1      46.152   4.109   7.298  0.00  0.00    +0.000 NA
ATOM     25  C   UNL     1      46.363   2.789   7.106  0.00  0.00    +0.000 A 
ATOM     26  C   UNL     1      46.056   1.828   8.048  0.00  0.00    +0.000 A 
ATOM     27  F   UNL     1      46.279   0.531   7.805  0.00  0.00    +0.000 F 
ATOM     28  C   UNL     1      45.516   2.225   9.264  0.00  0.00    +0.000 A 
ENDBRANCH  20  22
ENDBRANCH  15  16
ENDBRANCH   1  15
TORSDOF 5
ENDMDL
MODEL 3
REMARK VINA RESULT:    -7.784      1.801      2.445
REMARK INTER + INTRA:         -10.742
REMARK INTER:                 -10.055
REMARK INTRA:                  -0.687
REMARK UNBOUND:                -0.683
REMARK  Name = 
REMARK  6 active torsions:
REMARK  status: ('A' for Active; 'I' for Inactive)
REMARK    1  A    between atoms: C_1  and  C_2
REMARK    2  A    between atoms: C_4  and  N_5
REMARK    3  A    between atoms: N_5  and  C_6
REMARK    4  A    between atoms: C_6  and  C_7
REMARK    5  A    between atoms: C_11  and  C_12
REMARK    6  A    between atoms: C_21  and  C_22
REMARK                            x       y       z     vdW  Elec       q    Type
REMARK                         _______ _______ _______ _____ _____    ______ ____
ROOT
ATOM      1  N   UNL     1      47.149   6.651  13.005  0.00  0.00    +0.000 N 
ATOM      2  H   UNL     1      47.776   6.942  12.264  0.00  0.00    +0.000 HD
ENDROOT
BRANCH   1   6
ATOM      3  C   UNL     1      49.935   7.849  16.935  0.00  0.00    +0.000 C 
ATOM      4  C   UNL     1      49.113   6.877  16.142  0.00  0.00    +0.000 A 
ATOM      5  C   UNL     1      48.533   7.240  14.921  0.00  0.00    +0.000 A 
ATOM      6  C   UNL     1      47.776   6.322  14.186  0.00  0.00    +0.000 A 
ATOM      7  N   UNL     1      47.579   5.064  14.632  0.00  0.00    +0.000 NA
ATOM      8  C   UNL     1      48.141   4.723  15.830  0.00  0.00    +0.000 A 
ATOM      9  C   UNL     1      48.904   5.583  16.609  0.00  0.00    +0.000 A 
BRANCH   8  10
ATOM     10  C   UNL     1      47.903   3.327  16.329  0.00  0.00    +0.000 C 
ATOM     11  N   UNL     1      46.859   3.162  17.196  0.00  0.00    +0.000 N 
ATOM     12  O   UNL     1      48.605   2.378  15.993  0.00  0.00    +0.000 OA
ATOM     13  H   UNL     1      46.291   3.958  17.463  0.00  0.00    +0.000 HD
ATOM     14  H   UNL     1      46.653   2.245  17.558  0.00  0.00    +0.000 HD
ENDBRANCH   8  10
ENDBRANCH   1   6
BRANCH   1  15
ATOM     15  C   UNL     1      45.732   6.943  12.895  0.00  0.00    +0.000 C 
BRANCH  15  16
ATOM     16  C   UNL     1      44.929   5.802  12.298  0.00  0.00    +0.000 A 
ATOM     17  C   UNL     1      43.693   5.460  12.842  0.00  0.00    +0.000 A 
ATOM     18  C   UNL     1      42.944   4.461  12.231  0.00  0.00    +0.000 A 
ATOM     19  C   UNL     1      43.448   3.827  11.100  0.00  0.00    +0.000 A 
ATOM     20  C   UNL     1      44.689   4.212  10.596  0.00  0.00    +0.000 A 
ATOM     21  N   UNL     1      45.433   5.177  11.197  0.00  0.00    +0.000 NA
BRANCH  20  22
ATOM     22  C   UNL     1      45.261   3.595   9.386  0.00  0.00    +0.000 A 
ATOM     23  C   UNL     1      45.696   4.365   8.302  0.00  0.00    +0.000 A 
ATOM     24  N   UNL     1      46.282   3.869   7.176  0.00  0.00    +0.000 NA
ATOM     25  C   UNL     1      46.437   2.528   7.117  0.00  0.00    +0.000 A 
ATOM     26  C   UNL     1      46.017   1.674   8.117  0.00  0.00    +0.000 A 
ATOM     27  F   UNL     1      46.188   0.351   8.007  0.00  0.00    +0.000 F 
ATOM     28  C   UNL     1      45.419   2.206   9.252  0.00  0.00    +0.000 A 
ENDBRANCH  20  22
ENDBRANCH  15  16
ENDBRANCH   1  15
TORSDOF 5
ENDMDL
MODEL 4
REMARK VINA RESULT:    -7.642      2.139      3.127
REMARK INTER + INTRA:         -10.558
REMARK INTER:                 -10.011
REMARK INTRA:                  -0.548
REMARK UNBOUND:                -0.683
REMARK  Name = 
REMARK  6 active torsions:
REMARK  status: ('A' for Active; 'I' for Inactive)
REMARK    1  A    between atoms: C_1  and  C_2
REMARK    2  A    between atoms: C_4  and  N_5
REMARK    3  A    between atoms: N_5  and  C_6
REMARK    4  A    between atoms: C_6  and  C_7
REMARK    5  A    between atoms: C_11  and  C_12
REMARK    6  A    between atoms: C_21  and  C_22
REMARK                            x       y       z     vdW  Elec       q    Type
REMARK                         _______ _______ _______ _____ _____    ______ ____
ROOT
ATOM      1  N   UNL     1      47.234   5.266  13.572  0.00  0.00    +0.000 N 
ATOM      2  H   UNL     1      47.901   4.520  13.416  0.00  0.00    +0.000 HD
ENDROOT
BRANCH   1   6
ATOM      3  C   UNL     1      50.639   8.309  11.627  0.00  0.00    +0.000 C 
ATOM      4  C   UNL     1      49.239   7.996  12.062  0.00  0.00    +0.000 A 
ATOM      5  C   UNL     1      48.914   6.761  12.637  0.00  0.00    +0.000 A 
ATOM      6  C   UNL     1      47.606   6.483  13.046  0.00  0.00    +0.000 A 
ATOM      7  N   UNL     1      46.619   7.391  12.898  0.00  0.00    +0.000 NA
ATOM      8  C   UNL     1      46.945   8.590  12.326  0.00  0.00    +0.000 A 
ATOM      9  C   UNL     1      48.222   8.931  11.899  0.00  0.00    +0.000 A 
BRANCH   8  10
ATOM     10  C   UNL     1      45.839   9.588  12.147  0.00  0.00    +0.000 C 
ATOM     11  N   UNL     1      44.586   9.180  12.513  0.00  0.00    +0.000 N 
ATOM     12  O   UNL     1      46.031  10.711  11.689  0.00  0.00    +0.000 OA
ATOM     13  H   UNL     1      44.447   8.248  12.888  0.00  0.00    +0.000 HD
ATOM     14  H   UNL     1      43.809   9.812  12.417  0.00  0.00    +0.000 HD
ENDBRANCH   8  10
ENDBRANCH   1   6
BRANCH   1  15
ATOM     15  C   UNL     1      45.878   4.938  13.971  0.00  0.00    +0.000 C 
BRANCH  15  16
ATOM     16  C   UNL     1      44.939   4.739  12.796  0.00  0.00    +0.000 A 
ATOM     17  C   UNL     1      43.610   5.146  12.889  0.00  0.00    +0.000 A 
ATOM     18  C   UNL     1      42.790   5.020  11.774  0.00  0.00    +0.000 A 
ATOM     19  C   UNL     1      43.314   4.492  10.599  0.00  0.00    +0.000 A 
ATOM     20  C   UNL     1      44.652   4.105  10.559  0.00  0.00    +0.000 A 
ATOM     21  N   UNL     1      45.455   4.210  11.651  0.00  0.00    +0.000 NA
BRANCH  20  22
ATOM     22  C   UNL     1      45.270   3.564   9.336  0.00  0.00    +0.000 A 
ATOM     23  C   UNL     1      45.667   4.393   8.282  0.00  0.00    +0.000 A 
ATOM     24  N   UNL     1      46.290   3.971   7.147  0.00  0.00    +0.000 NA
ATOM     25  C   UNL     1      46.524   2.644   7.046  0.00  0.00    +0.000 A 
ATOM     26  C   UNL     1      46.149   1.734   8.013  0.00  0.00    +0.000 A 
ATOM     27  F   UNL     1      46.398   0.427   7.861  0.00  0.00    +0.000 F 
ATOM     28  C   UNL     1      45.511   2.191   9.158  0.00  0.00    +0.000 A 
ENDBRANCH  20  22
ENDBRANCH  15  16
ENDBRANCH   1  15
TORSDOF 5
ENDMDL
MODEL 5
REMARK VINA RESULT:    -7.581      3.706      6.282
REMARK INTER + INTRA:         -10.479
REMARK INTER:                  -9.731
REMARK INTRA:                  -0.748
REMARK UNBOUND:                -0.683
REMARK  Name = 
REMARK  6 active torsions:
REMARK  status: ('A' for Active; 'I' for Inactive)
REMARK    1  A    between atoms: C_1  and  C_2
REMARK    2  A    between atoms: C_4  and  N_5
REMARK    3  A    between atoms: N_5  and  C_6
REMARK    4  A    between atoms: C_6  and  C_7
REMARK    5  A    between atoms: C_11  and  C_12
REMARK    6  A    between atoms: C_21  and  C_22
REMARK                            x       y       z     vdW  Elec       q    Type
REMARK                         _______ _______ _______ _____ _____    ______ ____
ROOT
ATOM      1  N   UNL     1      48.289   6.522  16.357  0.00  0.00    +0.000 N 
ATOM      2  H   UNL     1      47.300   6.742  16.341  0.00  0.00    +0.000 HD
ENDROOT
BRANCH   1   6
ATOM      3  C   UNL     1      48.623   4.666  20.948  0.00  0.00    +0.000 C 
ATOM      4  C   UNL     1      48.789   4.558  19.462  0.00  0.00    +0.000 A 
ATOM      5  C   UNL     1      48.469   5.625  18.614  0.00  0.00    +0.000 A 
ATOM      6  C   UNL     1      48.636   5.515  17.230  0.00  0.00    +0.000 A 
ATOM      7  N   UNL     1      49.106   4.381  16.671  0.00  0.00    +0.000 NA
ATOM      8  C   UNL     1      49.406   3.342  17.507  0.00  0.00    +0.000 A 
ATOM      9  C   UNL     1      49.266   3.384  18.888  0.00  0.00    +0.000 A 
BRANCH   8  10
ATOM     10  C   UNL     1      49.912   2.077  16.876  0.00  0.00    +0.000 C 
ATOM     11  N   UNL     1      50.870   1.393  17.571  0.00  0.00    +0.000 N 
ATOM     12  O   UNL     1      49.505   1.673  15.791  0.00  0.00    +0.000 OA
ATOM     13  H   UNL     1      51.195   1.743  18.465  0.00  0.00    +0.000 HD
ATOM     14  H   UNL     1      51.241   0.536  17.195  0.00  0.00    +0.000 HD
ENDBRANCH   8  10
ENDBRANCH   1   6
BRANCH   1  15
ATOM     15  C   UNL     1      49.139   6.982  15.275  0.00  0.00    +0.000 C 
BRANCH  15  16
ATOM     16  C   UNL     1      48.447   6.973  13.924  0.00  0.00    +0.000 A 
ATOM     17  C   UNL     1      49.002   7.666  12.851  0.00  0.00    +0.000 A 
ATOM     18  C   UNL     1      48.389   7.580  11.607  0.00  0.00    +0.000 A 
ATOM     19  C   UNL     1      47.239   6.811  11.466  0.00  0.00    +0.000 A 
ATOM     20  C   UNL     1      46.728   6.134  12.572  0.00  0.00    +0.000 A 
ATOM     21  N   UNL     1      47.314   6.227  13.795  0.00  0.00    +0.000 NA
BRANCH  20  22
ATOM     22  C   UNL     1      45.529   5.283  12.477  0.00  0.00    +0.000 A 
ATOM     23  C   UNL     1      45.582   3.906  12.717  0.00  0.00    +0.000 A 
ATOM     24  N   UNL     1      44.508   3.067  12.700  0.00  0.00    +0.000 NA
ATOM     25  C   UNL     1      43.311   3.627  12.417  0.00  0.00    +0.000 A 
ATOM     26  C   UNL     1      43.151   4.968  12.137  0.00  0.00    +0.000 A 
ATOM     27  F   UNL     1      41.942   5.472  11.856  0.00  0.00    +0.000 F 
ATOM     28  C   UNL     1      44.262   5.800  12.158  0.00  0.00    +0.000 A 
ENDBRANCH  20  22
ENDBRANCH  15  16
ENDBRANCH   1  15
TORSDOF 5
ENDMDL
MODEL 6
REMARK VINA RESULT:    -7.534      2.564      3.976
REMARK INTER + INTRA:         -10.418
REMARK INTER:                  -9.914
REMARK INTRA:                  -0.504
REMARK UNBOUND:                -0.683
REMARK  Name = 
REMARK  6 active torsions:
REMARK  status: ('A' for Active; 'I' for Inactive)
REMARK    1  A    between atoms: C_1  and  C_2
REMARK    2  A    between atoms: C_4  and  N_5
REMARK    3  A    between atoms: N_5  and  C_6
REMARK    4  A    between atoms: C_6  and  C_7
REMARK    5  A    between atoms: C_11  and  C_12
REMARK    6  A    between atoms: C_21  and  C_22
REMARK                            x       y       z     vdW  Elec       q    Type
REMARK                         _______ _______ _______ _____ _____    ______ ____
ROOT
ATOM      1  N   UNL     1      46.757   3.674  14.631  0.00  0.00    +0.000 N 
ATOM      2  H   UNL     1      46.830   2.869  14.020  0.00  0.00    +0.000 HD
ENDROOT
BRANCH   1   6
ATOM      3  C   UNL     1      50.484   1.732  17.272  0.00  0.00    +0.000 C 
ATOM      4  C   UNL     1      49.329   2.673  17.108  0.00  0.00    +0.000 A 
ATOM      5  C   UNL     1      48.575   2.702  15.928  0.00  0.00    +0.000 A 
ATOM      6  C   UNL     1      47.494   3.579  15.790  0.00  0.00    +0.000 A 
ATOM      7  N   UNL     1      47.147   4.423  16.784  0.00  0.00    +0.000 NA
ATOM      8  C   UNL     1      47.896   4.393  17.927  0.00  0.00    +0.000 A 
ATOM      9  C   UNL     1      48.979   3.548  18.131  0.00  0.00    +0.000 A 
BRANCH   8  10
ATOM     10  C   UNL     1      47.516   5.347  19.022  0.00  0.00    +0.000 C 
ATOM     11  N   UNL     1      47.899   5.002  20.289  0.00  0.00    +0.000 N 
ATOM     12  O   UNL     1      46.887   6.379  18.808  0.00  0.00    +0.000 OA
ATOM     13  H   UNL     1      48.416   4.145  20.445  0.00  0.00    +0.000 HD
ATOM     14  H   UNL     1      47.672   5.608  21.060  0.00  0.00    +0.000 HD
ENDBRANCH   8  10
ENDBRANCH   1   6
BRANCH   1  15
ATOM     15  C   UNL     1      46.229   4.920  14.108  0.00  0.00    +0.000 C 
BRANCH  15  16
ATOM     16  C   UNL     1      45.208   4.720  13.001  0.00  0.00    +0.000 A 
ATOM     17  C   UNL     1      43.885   5.111  13.195  0.00  0.00    +0.000 A 
ATOM     18  C   UNL     1      42.988   4.986  12.141  0.00  0.00    +0.000 A 
ATOM     19  C   UNL     1      43.431   4.473  10.926  0.00  0.00    +0.000 A 
ATOM     20  C   UNL     1      44.767   4.102  10.786  0.00  0.00    +0.000 A 
ATOM     21  N   UNL     1      45.645   4.206  11.818  0.00  0.00    +0.000 NA
BRANCH  20  22
ATOM     22  C   UNL     1      45.299   3.578   9.516  0.00  0.00    +0.000 A 
ATOM     23  C   UNL     1      45.657   4.425   8.461  0.00  0.00    +0.000 A 
ATOM     24  N   UNL     1      46.203   4.017   7.282  0.00  0.00    +0.000 NA
ATOM     25  C   UNL     1      46.397   2.688   7.135  0.00  0.00    +0.000 A 
ATOM     26  C   UNL     1      46.055   1.763   8.100  0.00  0.00    +0.000 A 
ATOM     27  F   UNL     1      46.262   0.455   7.902  0.00  0.00    +0.000 F 
ATOM     28  C   UNL     1      45.496   2.205   9.291  0.00  0.00    +0.000 A 
ENDBRANCH  20  22
ENDBRANCH  15  16
ENDBRANCH   1  15
TORSDOF 5
ENDMDL
MODEL 7
REMARK VINA RESULT:    -7.381      3.244      6.991
REMARK INTER + INTRA:         -10.221
REMARK INTER:                  -9.393
REMARK INTRA:                  -0.828
REMARK UNBOUND:                -0.683
REMARK  Name = 
REMARK  6 active torsions:
REMARK  status: ('A' for Active; 'I' for Inactive)
REMARK    1  A    between atoms: C_1  and  C_2
REMARK    2  A    between atoms: C_4  and  N_5
REMARK    3  A    between atoms: N_5  and  C_6
REMARK    4  A    between atoms: C_6  and  C_7
REMARK    5  A    between atoms: C_11  and  C_12
REMARK    6  A    between atoms: C_21  and  C_22
REMARK                            x       y       z     vdW  Elec       q    Type
REMARK                         _______ _______ _______ _____ _____    ______ ____
ROOT
ATOM      1  N   UNL     1      45.315   6.706  10.364  0.00  0.00    +0.000 N 
ATOM      2  H   UNL     1      45.736   7.240   9.613  0.00  0.00    +0.000 HD
ENDROOT
BRANCH   1   6
ATOM      3  C   UNL     1      45.958   2.734   7.458  0.00  0.00    +0.000 C 
ATOM      4  C   UNL     1      45.419   3.400   8.688  0.00  0.00    +0.000 A 
ATOM      5  C   UNL     1      45.617   4.766   8.924  0.00  0.00    +0.000 A 
ATOM      6  C   UNL     1      45.103   5.377  10.071  0.00  0.00    +0.000 A 
ATOM      7  N   UNL     1      44.404   4.673  10.984  0.00  0.00    +0.000 NA
ATOM      8  C   UNL     1      44.224   3.338  10.749  0.00  0.00    +0.000 A 
ATOM      9  C   UNL     1      44.706   2.668   9.633  0.00  0.00    +0.000 A 
BRANCH   8  10
ATOM     10  C   UNL     1      43.461   2.556  11.779  0.00  0.00    +0.000 C 
ATOM     11  N   UNL     1      43.563   2.992  13.071  0.00  0.00    +0.000 N 
ATOM     12  O   UNL     1      42.787   1.571  11.493  0.00  0.00    +0.000 OA
ATOM     13  H   UNL     1      44.126   3.806  13.288  0.00  0.00    +0.000 HD
ATOM     14  H   UNL     1      43.069   2.505  13.801  0.00  0.00    +0.000 HD
ENDBRANCH   8  10
ENDBRANCH   1   6
BRANCH   1  15
ATOM     15  C   UNL     1      45.318   7.246  11.711  0.00  0.00    +0.000 C 
BRANCH  15  16
ATOM     16  C   UNL     1      46.661   7.112  12.407  0.00  0.00    +0.000 A 
ATOM     17  C   UNL     1      47.763   7.825  11.940  0.00  0.00    +0.000 A 
ATOM     18  C   UNL     1      48.961   7.742  12.639  0.00  0.00    +0.000 A 
ATOM     19  C   UNL     1      49.031   6.950  13.780  0.00  0.00    +0.000 A 
ATOM     20  C   UNL     1      47.896   6.262  14.206  0.00  0.00    +0.000 A 
ATOM     21  N   UNL     1      46.726   6.326  13.518  0.00  0.00    +0.000 NA
BRANCH  20  22
ATOM     22  C   UNL     1      47.902   5.429  15.422  0.00  0.00    +0.000 A 
ATOM     23  C   UNL     1      47.126   4.270  15.526  0.00  0.00    +0.000 A 
ATOM     24  N   UNL     1      47.121   3.426  16.594  0.00  0.00    +0.000 NA
ATOM     25  C   UNL     1      47.927   3.756  17.628  0.00  0.00    +0.000 A 
ATOM     26  C   UNL     1      48.712   4.891  17.641  0.00  0.00    +0.000 A 
ATOM     27  F   UNL     1      49.488   5.177  18.694  0.00  0.00    +0.000 F 
ATOM     28  C   UNL     1      48.694   5.737  16.541  0.00  0.00    +0.000 A 
ENDBRANCH  20  22
ENDBRANCH  15  16
ENDBRANCH   1  15
TORSDOF 5
ENDMDL
MODEL 8
REMARK VINA RESULT:    -7.349      2.611      4.705
REMARK INTER + INTRA:         -10.180
REMARK INTER:                  -9.470
REMARK INTRA:                  -0.710
REMARK UNBOUND:                -0.683
REMARK  Name = 
REMARK  6 active torsions:
REMARK  status: ('A' for Active; 'I' for Inactive)
REMARK    1  A    between atoms: C_1  and  C_2
REMARK    2  A    between atoms: C_4  and  N_5
REMARK    3  A    between atoms: N_5  and  C_6
REMARK    4  A    between atoms: C_6  and  C_7
REMARK    5  A    between atoms: C_11  and  C_12
REMARK    6  A    between atoms: C_21  and  C_22
REMARK                            x       y       z     vdW  Elec       q    Type
REMARK                         _______ _______ _______ _____ _____    ______ ____
ROOT
ATOM      1  N   UNL     1      49.126   7.558  14.757  0.00  0.00    +0.000 N 
ATOM      2  H   UNL     1      49.231   8.556  14.902  0.00  0.00    +0.000 HD
ENDROOT
BRANCH   1   6
ATOM      3  C   UNL     1      48.337   7.299  19.650  0.00  0.00    +0.000 C 
ATOM      4  C   UNL     1      48.396   6.682  18.285  0.00  0.00    +0.000 A 
ATOM      5  C   UNL     1      48.760   7.434  17.161  0.00  0.00    +0.000 A 
ATOM      6  C   UNL     1      48.818   6.846  15.894  0.00  0.00    +0.000 A 
ATOM      7  N   UNL     1      48.525   5.541  15.715  0.00  0.00    +0.000 NA
ATOM      8  C   UNL     1      48.160   4.819  16.817  0.00  0.00    +0.000 A 
ATOM      9  C   UNL     1      48.083   5.339  18.102  0.00  0.00    +0.000 A 
BRANCH   8  10
ATOM     10  C   UNL     1      47.817   3.373  16.608  0.00  0.00    +0.000 C 
ATOM     11  N   UNL     1      46.957   2.815  17.513  0.00  0.00    +0.000 N 
ATOM     12  O   UNL     1      48.283   2.711  15.685  0.00  0.00    +0.000 OA
ATOM     13  H   UNL     1      46.584   3.378  18.270  0.00  0.00    +0.000 HD
ATOM     14  H   UNL     1      46.691   1.849  17.417  0.00  0.00    +0.000 HD
ENDBRANCH   8  10
ENDBRANCH   1   6
BRANCH   1  15
ATOM     15  C   UNL     1      48.946   7.050  13.410  0.00  0.00    +0.000 C 
BRANCH  15  16
ATOM     16  C   UNL     1      47.523   7.196  12.900  0.00  0.00    +0.000 A 
ATOM     17  C   UNL     1      46.810   8.366  13.150  0.00  0.00    +0.000 A 
ATOM     18  C   UNL     1      45.537   8.504  12.608  0.00  0.00    +0.000 A 
ATOM     19  C   UNL     1      45.009   7.474  11.837  0.00  0.00    +0.000 A 
ATOM     20  C   UNL     1      45.769   6.327  11.615  0.00  0.00    +0.000 A 
ATOM     21  N   UNL     1      47.007   6.179  12.155  0.00  0.00    +0.000 NA
BRANCH  20  22
ATOM     22  C   UNL     1      45.273   5.215  10.785  0.00  0.00    +0.000 A 
ATOM     23  C   UNL     1      44.394   4.252  11.292  0.00  0.00    +0.000 A 
ATOM     24  N   UNL     1      43.853   3.230  10.571  0.00  0.00    +0.000 NA
ATOM     25  C   UNL     1      44.215   3.152   9.271  0.00  0.00    +0.000 A 
ATOM     26  C   UNL     1      45.098   4.032   8.678  0.00  0.00    +0.000 A 
ATOM     27  F   UNL     1      45.429   3.906   7.387  0.00  0.00    +0.000 F 
ATOM     28  C   UNL     1      45.636   5.062   9.436  0.00  0.00    +0.000 A 
ENDBRANCH  20  22
ENDBRANCH  15  16
ENDBRANCH   1  15
TORSDOF 5
ENDMDL
MODEL 9
REMARK VINA RESULT:    -7.132      4.945      8.474
REMARK INTER + INTRA:          -9.900
REMARK INTER:                  -9.263
REMARK INTRA:                  -0.636
REMARK UNBOUND:                -0.683
REMARK  Name = 
REMARK  6 active torsions:
REMARK  status: ('A' for Active; 'I' for Inactive)
REMARK    1  A    between atoms: C_1  and  C_2
REMARK    2  A    between atoms: C_4  and  N_5
REMARK    3  A    between atoms: N_5  and  C_6
REMARK    4  A    between atoms: C_6  and  C_7
REMARK    5  A    between atoms: C_11  and  C_12
REMARK    6  A    between atoms: C_21  and  C_22
REMARK                            x       y       z     vdW  Elec       q    Type
REMARK                         _______ _______ _______ _____ _____    ______ ____
ROOT
ATOM      1  N   UNL     1      47.133   3.620  14.986  0.00  0.00    +0.000 N 
ATOM      2  H   UNL     1      47.356   2.642  14.843  0.00  0.00    +0.000 HD
ENDROOT
BRANCH   1   6
ATOM      3  C   UNL     1      46.865   7.513  11.918  0.00  0.00    +0.000 C 
ATOM      4  C   UNL     1      46.469   6.129  12.337  0.00  0.00    +0.000 A 
ATOM      5  C   UNL     1      46.991   5.541  13.496  0.00  0.00    +0.000 A 
ATOM      6  C   UNL     1      46.609   4.253  13.881  0.00  0.00    +0.000 A 
ATOM      7  N   UNL     1      45.729   3.537  13.150  0.00  0.00    +0.000 NA
ATOM      8  C   UNL     1      45.233   4.116  12.015  0.00  0.00    +0.000 A 
ATOM      9  C   UNL     1      45.569   5.390  11.576  0.00  0.00    +0.000 A 
BRANCH   8  10
ATOM     10  C   UNL     1      44.269   3.307  11.197  0.00  0.00    +0.000 C 
ATOM     11  N   UNL     1      44.815   2.371  10.364  0.00  0.00    +0.000 N 
ATOM     12  O   UNL     1      43.054   3.474  11.254  0.00  0.00    +0.000 OA
ATOM     13  H   UNL     1      45.821   2.250  10.329  0.00  0.00    +0.000 HD
ATOM     14  H   UNL     1      44.214   1.799   9.795  0.00  0.00    +0.000 HD
ENDBRANCH   8  10
ENDBRANCH   1   6
BRANCH   1  15
ATOM     15  C   UNL     1      47.034   4.139  16.337  0.00  0.00    +0.000 C 
BRANCH  15  16
ATOM     16  C   UNL     1      48.371   4.576  16.911  0.00  0.00    +0.000 A 
ATOM     17  C   UNL     1      48.539   5.881  17.367  0.00  0.00    +0.000 A 
ATOM     18  C   UNL     1      49.748   6.234  17.956  0.00  0.00    +0.000 A 
ATOM     19  C   UNL     1      50.755   5.282  18.069  0.00  0.00    +0.000 A 
ATOM     20  C   UNL     1      50.530   3.989  17.600  0.00  0.00    +0.000 A 
ATOM     21  N   UNL     1      49.357   3.641  17.009  0.00  0.00    +0.000 NA
BRANCH  20  22
ATOM     22  C   UNL     1      51.550   2.931  17.717  0.00  0.00    +0.000 A 
ATOM     23  C   UNL     1      51.277   1.604  17.371  0.00  0.00    +0.000 A 
ATOM     24  N   UNL     1      52.182   0.586  17.403  0.00  0.00    +0.000 NA
ATOM     25  C   UNL     1      53.430   0.902  17.814  0.00  0.00    +0.000 A 
ATOM     26  C   UNL     1      53.798   2.173  18.205  0.00  0.00    +0.000 A 
ATOM     27  F   UNL     1      55.048   2.431  18.610  0.00  0.00    +0.000 F 
ATOM     28  C   UNL     1      52.855   3.191  18.166  0.00  0.00    +0.000 A 
ENDBRANCH  20  22
ENDBRANCH  15  16
ENDBRANCH   1  15
TORSDOF 5
ENDMDL
