MODEL 1
REMARK VINA RESULT:    -7.654      0.000      0.000
REMARK INTER + INTRA:         -10.147
REMARK INTER:                  -9.891
REMARK INTRA:                  -0.256
REMARK UNBOUND:                -0.256
REMARK  Name = 
REMARK  8 active torsions:
REMARK  status: ('A' for Active; 'I' for Inactive)
REMARK    1  A    between atoms: C_1  and  O_2
REMARK    2  A    between atoms: O_2  and  C_3
REMARK    3  A    between atoms: C_3  and  C_5
REMARK    4  A    between atoms: N_9  and  C_10
REMARK    5  A    between atoms: C_10  and  C_11
REMARK    6  A    between atoms: C_11  and  C_12
REMARK    7  A    between atoms: C_11  and  C_13
REMARK    8  A    between atoms: C_11  and  C_14
REMARK                            x       y       z     vdW  Elec       q    Type
REMARK                         _______ _______ _______ _____ _____    ______ ____
ROOT
ATOM      1  C   UNL     1      46.445   2.074   7.756  0.00  0.00    +0.000 A 
ATOM      2  C   UNL     1      46.568   3.441   7.525  0.00  0.00    +0.000 A 
ATOM      3  C   UNL     1      45.704   4.323   8.177  0.00  0.00    +0.000 A 
ATOM      4  C   UNL     1      44.757   3.836   9.079  0.00  0.00    +0.000 A 
ATOM      5  N   UNL     1      43.841   4.733   9.648  0.00  0.00    +0.000 N 
ATOM      6  N   UNL     1      44.639   2.515   9.319  0.00  0.00    +0.000 NA
ATOM      7  C   UNL     1      45.466   1.667   8.651  0.00  0.00    +0.000 A 
ATOM      8  H   UNL     1      44.175   5.686   9.595  0.00  0.00    +0.000 HD
ENDROOT
BRANCH   1   9
ATOM      9  C   UNL     1      47.286   1.047   7.105  0.00  0.00    +0.000 C 
ATOM     10  O   UNL     1      47.069  -0.146   7.181  0.00  0.00    +0.000 OA
BRANCH   9  12
ATOM     11  C   UNL     1      47.930   2.252   5.206  0.00  0.00    +0.000 C 
ATOM     12  O   UNL     1      48.311   1.632   6.435  0.00  0.00    +0.000 OA
ENDBRANCH   9  12
ENDBRANCH   1   9
BRANCH   5  13
ATOM     13  C   UNL     1      43.362   4.350  10.987  0.00  0.00    +0.000 C 
BRANCH  13  14
ATOM     14  C   UNL     1      43.540   5.499  12.028  0.00  0.00    +0.000 C 
ATOM     15  C   UNL     1      42.966   6.824  11.460  0.00  0.00    +0.000 C 
ATOM     16  C   UNL     1      42.771   5.176  13.325  0.00  0.00    +0.000 C 
BRANCH  14  17
ATOM     17  C   UNL     1      45.040   5.669  12.341  0.00  0.00    +0.000 A 
ATOM     18  C   UNL     1      45.661   4.935  13.357  0.00  0.00    +0.000 A 
ATOM     19  C   UNL     1      47.021   5.122  13.607  0.00  0.00    +0.000 A 
ATOM     20  C   UNL     1      47.736   6.037  12.848  0.00  0.00    +0.000 A 
ATOM     21  C   UNL     1      47.056   6.726  11.862  0.00  0.00    +0.000 A 
ATOM     22  N   UNL     1      45.742   6.560  11.597  0.00  0.00    +0.000 NA
ENDBRANCH  14  17
ENDBRANCH  13  14
ENDBRANCH   5  13
TORSDOF 5
ENDMDL
MODEL 2
REMARK VINA RESULT:    -6.842      4.145      5.859
REMARK INTER + INTRA:          -9.097
REMARK INTER:                  -8.598
REMARK INTRA:                  -0.499
REMARK UNBOUND:                -0.256
REMARK  Name = 
REMARK  8 active torsions:
REMARK  status: ('A' for Active; 'I' for Inactive)
REMARK    1  A    between atoms: C_1  and  O_2
REMARK    2  A    between atoms: O_2  and  C_3
REMARK    3  A    between atoms: C_3  and  C_5
REMARK    4  A    between atoms: N_9  and  C_10
REMARK    5  A    between atoms: C_10  and  C_11
REMARK    6  A    between atoms: C_11  and  C_12
REMARK    7  A    between atoms: C_11  and  C_13
REMARK    8  A    between atoms: C_11  and  C_14
REMARK                            x       y       z     vdW  Elec       q    Type
REMARK                         _______ _______ _______ _____ _____    ______ ____
ROOT
ATOM      1  C   UNL     1      45.111   4.170  11.077  0.00  0.00    +0.000 A 
ATOM      2  C   UNL     1      45.600   5.460  11.265  0.00  0.00    +0.000 A 
ATOM      3  C   UNL     1      46.150   5.805  12.502  0.00  0.00    +0.000 A 
ATOM      4  C   UNL     1      46.242   4.852  13.518  0.00  0.00    +0.000 A 
ATOM      5  N   UNL     1      46.711   5.250  14.778  0.00  0.00    +0.000 N 
ATOM      6  N   UNL     1      45.782   3.597  13.339  0.00  0.00    +0.000 NA
ATOM      7  C   UNL     1      45.220   3.287  12.140  0.00  0.00    +0.000 A 
ATOM      8  H   UNL     1      47.242   6.109  14.721  0.00  0.00    +0.000 HD
ENDROOT
BRANCH   1   9
ATOM      9  C   UNL     1      44.486   3.699   9.822  0.00  0.00    +0.000 C 
ATOM     10  O   UNL     1      44.049   4.444   8.968  0.00  0.00    +0.000 OA
BRANCH   9  12
ATOM     11  C   UNL     1      45.328   1.778   8.783  0.00  0.00    +0.000 C 
ATOM     12  O   UNL     1      44.475   2.342   9.781  0.00  0.00    +0.000 OA
ENDBRANCH   9  12
ENDBRANCH   1   9
BRANCH   5  13
ATOM     13  C   UNL     1      47.390   4.189  15.541  0.00  0.00    +0.000 C 
BRANCH  13  14
ATOM     14  C   UNL     1      48.158   4.751  16.778  0.00  0.00    +0.000 C 
ATOM     15  C   UNL     1      48.616   6.207  16.503  0.00  0.00    +0.000 C 
ATOM     16  C   UNL     1      47.238   4.777  18.016  0.00  0.00    +0.000 C 
BRANCH  14  17
ATOM     17  C   UNL     1      49.384   3.859  17.060  0.00  0.00    +0.000 A 
ATOM     18  C   UNL     1      49.301   2.464  17.003  0.00  0.00    +0.000 A 
ATOM     19  C   UNL     1      50.437   1.698  17.266  0.00  0.00    +0.000 A 
ATOM     20  C   UNL     1      51.629   2.329  17.586  0.00  0.00    +0.000 A 
ATOM     21  C   UNL     1      51.636   3.710  17.624  0.00  0.00    +0.000 A 
ATOM     22  N   UNL     1      50.553   4.476  17.369  0.00  0.00    +0.000 NA
ENDBRANCH  14  17
ENDBRANCH  13  14
ENDBRANCH   5  13
TORSDOF 5
ENDMDL
MODEL 3
REMARK VINA RESULT:    -6.712      4.552      7.440
REMARK INTER + INTRA:          -8.930
REMARK INTER:                  -8.327
REMARK INTRA:                  -0.603
REMARK UNBOUND:                -0.256
REMARK  Name = 
REMARK  8 active torsions:
REMARK  status: ('A' for Active; 'I' for Inactive)
REMARK    1  A    between atoms: C_1  and  O_2
REMARK    2  A    between atoms: O_2  and  C_3
REMARK    3  A    between atoms: C_3  and  C_5
REMARK    4  A    between atoms: N_9  and  C_10
REMARK    5  A    between atoms: C_10  and  C_11
REMARK    6  A    between atoms: C_11  and  C_12
REMARK    7  A    between atoms: C_11  and  C_13
REMARK    8  A    between atoms: C_11  and  C_14
REMARK                            x       y       z     vdW  Elec       q    Type
REMARK                         _______ _______ _______ _____ _____    ______ ____
ROOT
ATOM      1  C   UNL     1      48.291   4.951  16.702  0.00  0.00    +0.000 A 
ATOM      2  C   UNL     1      48.563   6.018  15.848  0.00  0.00    +0.000 A 
ATOM      3  C   UNL     1      47.944   6.064  14.597  0.00  0.00    +0.000 A 
ATOM      4  C   UNL     1      47.034   5.071  14.230  0.00  0.00    +0.000 A 
ATOM      5  N   UNL     1      46.499   5.090  12.933  0.00  0.00    +0.000 N 
ATOM      6  N   UNL     1      46.755   4.042  15.055  0.00  0.00    +0.000 NA
ATOM      7  C   UNL     1      47.391   3.995  16.256  0.00  0.00    +0.000 A 
ATOM      8  H   UNL     1      46.578   6.007  12.514  0.00  0.00    +0.000 HD
ENDROOT
BRANCH   1   9
ATOM      9  C   UNL     1      48.905   4.785  18.036  0.00  0.00    +0.000 C 
ATOM     10  O   UNL     1      48.834   5.618  18.917  0.00  0.00    +0.000 OA
BRANCH   9  12
ATOM     11  C   UNL     1      50.909   3.627  17.689  0.00  0.00    +0.000 C 
ATOM     12  O   UNL     1      49.546   3.590  18.115  0.00  0.00    +0.000 OA
ENDBRANCH   9  12
ENDBRANCH   1   9
BRANCH   5  13
ATOM     13  C   UNL     1      45.152   4.506  12.819  0.00  0.00    +0.000 C 
BRANCH  13  14
ATOM     14  C   UNL     1      44.374   5.053  11.582  0.00  0.00    +0.000 C 
ATOM     15  C   UNL     1      42.846   4.956  11.831  0.00  0.00    +0.000 C 
ATOM     16  C   UNL     1      44.715   6.539  11.345  0.00  0.00    +0.000 C 
BRANCH  14  17
ATOM     17  C   UNL     1      44.757   4.227  10.338  0.00  0.00    +0.000 A 
ATOM     18  C   UNL     1      45.413   4.808   9.249  0.00  0.00    +0.000 A 
ATOM     19  C   UNL     1      45.739   4.022   8.144  0.00  0.00    +0.000 A 
ATOM     20  C   UNL     1      45.403   2.677   8.138  0.00  0.00    +0.000 A 
ATOM     21  C   UNL     1      44.754   2.171   9.249  0.00  0.00    +0.000 A 
ATOM     22  N   UNL     1      44.432   2.909  10.333  0.00  0.00    +0.000 NA
ENDBRANCH  14  17
ENDBRANCH  13  14
ENDBRANCH   5  13
TORSDOF 5
ENDMDL
MODEL 4
REMARK VINA RESULT:    -6.553      3.996      5.827
REMARK INTER + INTRA:          -8.725
REMARK INTER:                  -7.975
REMARK INTRA:                  -0.750
REMARK UNBOUND:                -0.256
REMARK  Name = 
REMARK  8 active torsions:
REMARK  status: ('A' for Active; 'I' for Inactive)
REMARK    1  A    between atoms: C_1  and  O_2
REMARK    2  A    between atoms: O_2  and  C_3
REMARK    3  A    between atoms: C_3  and  C_5
REMARK    4  A    between atoms: N_9  and  C_10
REMARK    5  A    between atoms: C_10  and  C_11
REMARK    6  A    between atoms: C_11  and  C_12
REMARK    7  A    between atoms: C_11  and  C_13
REMARK    8  A    between atoms: C_11  and  C_14
REMARK                            x       y       z     vdW  Elec       q    Type
REMARK                         _______ _______ _______ _____ _____    ______ ____
ROOT
ATOM      1  C   UNL     1      45.276   4.755  11.282  0.00  0.00    +0.000 A 
ATOM      2  C   UNL     1      45.865   5.900  11.811  0.00  0.00    +0.000 A 
ATOM      3  C   UNL     1      46.460   5.839  13.073  0.00  0.00    +0.000 A 
ATOM      4  C   UNL     1      46.497   4.631  13.771  0.00  0.00    +0.000 A 
ATOM      5  N   UNL     1      47.017   4.618  15.074  0.00  0.00    +0.000 N 
ATOM      6  N   UNL     1      45.941   3.514  13.261  0.00  0.00    +0.000 NA
ATOM      7  C   UNL     1      45.336   3.599  12.045  0.00  0.00    +0.000 A 
ATOM      8  H   UNL     1      47.610   5.420  15.243  0.00  0.00    +0.000 HD
ENDROOT
BRANCH   1   9
ATOM      9  C   UNL     1      44.596   4.707   9.970  0.00  0.00    +0.000 C 
ATOM     10  O   UNL     1      43.388   4.681   9.840  0.00  0.00    +0.000 OA
BRANCH   9  12
ATOM     11  C   UNL     1      45.322   3.636   8.020  0.00  0.00    +0.000 C 
ATOM     12  O   UNL     1      45.510   4.690   8.966  0.00  0.00    +0.000 OA
ENDBRANCH   9  12
ENDBRANCH   1   9
BRANCH   5  13
ATOM     13  C   UNL     1      47.627   3.340  15.476  0.00  0.00    +0.000 C 
BRANCH  13  14
ATOM     14  C   UNL     1      48.214   3.395  16.921  0.00  0.00    +0.000 C 
ATOM     15  C   UNL     1      47.191   2.812  17.932  0.00  0.00    +0.000 C 
ATOM     16  C   UNL     1      49.497   2.545  17.015  0.00  0.00    +0.000 C 
BRANCH  14  17
ATOM     17  C   UNL     1      48.532   4.859  17.282  0.00  0.00    +0.000 A 
ATOM     18  C   UNL     1      47.899   5.502  18.351  0.00  0.00    +0.000 A 
ATOM     19  C   UNL     1      48.217   6.829  18.641  0.00  0.00    +0.000 A 
ATOM     20  C   UNL     1      49.153   7.494  17.862  0.00  0.00    +0.000 A 
ATOM     21  C   UNL     1      49.737   6.796  16.823  0.00  0.00    +0.000 A 
ATOM     22  N   UNL     1      49.451   5.510  16.524  0.00  0.00    +0.000 NA
ENDBRANCH  14  17
ENDBRANCH  13  14
ENDBRANCH   5  13
TORSDOF 5
ENDMDL
MODEL 5
REMARK VINA RESULT:    -6.129      4.104      7.195
REMARK INTER + INTRA:          -8.177
REMARK INTER:                  -7.430
REMARK INTRA:                  -0.747
REMARK UNBOUND:                -0.256
REMARK  Name = 
REMARK  8 active torsions:
REMARK  status: ('A' for Active; 'I' for Inactive)
REMARK    1  A    between atoms: C_1  and  O_2
REMARK    2  A    between atoms: O_2  and  C_3
REMARK    3  A    between atoms: C_3  and  C_5
REMARK    4  A    between atoms: N_9  and  C_10
REMARK    5  A    between atoms: C_10  and  C_11
REMARK    6  A    between atoms: C_11  and  C_12
REMARK    7  A    between atoms: C_11  and  C_13
REMARK    8  A    between atoms: C_11  and  C_14
REMARK                            x       y       z     vdW  Elec       q    Type
REMARK                         _______ _______ _______ _____ _____    ______ ____
ROOT
ATOM      1  C   UNL     1      48.526   7.979  14.124  0.00  0.00    +0.000 A 
ATOM      2  C   UNL     1      47.822   8.654  13.130  0.00  0.00    +0.000 A 
ATOM      3  C   UNL     1      46.941   7.939  12.314  0.00  0.00    +0.000 A 
ATOM      4  C   UNL     1      46.745   6.573  12.526  0.00  0.00    +0.000 A 
ATOM      5  N   UNL     1      45.928   5.862  11.634  0.00  0.00    +0.000 N 
ATOM      6  N   UNL     1      47.413   5.915  13.493  0.00  0.00    +0.000 NA
ATOM      7  C   UNL     1      48.291   6.619  14.257  0.00  0.00    +0.000 A 
ATOM      8  H   UNL     1      45.308   6.479  11.128  0.00  0.00    +0.000 HD
ENDROOT
BRANCH   1   9
ATOM      9  C   UNL     1      49.501   8.625  15.028  0.00  0.00    +0.000 C 
ATOM     10  O   UNL     1      50.611   8.183  15.246  0.00  0.00    +0.000 OA
BRANCH   9  12
ATOM     11  C   UNL     1      48.280   9.547  16.799  0.00  0.00    +0.000 C 
ATOM     12  O   UNL     1      48.970   9.753  15.565  0.00  0.00    +0.000 OA
ENDBRANCH   9  12
ENDBRANCH   1   9
BRANCH   5  13
ATOM     13  C   UNL     1      45.246   4.698  12.225  0.00  0.00    +0.000 C 
BRANCH  13  14
ATOM     14  C   UNL     1      44.171   4.095  11.268  0.00  0.00    +0.000 C 
ATOM     15  C   UNL     1      43.473   2.889  11.948  0.00  0.00    +0.000 C 
ATOM     16  C   UNL     1      43.086   5.143  10.948  0.00  0.00    +0.000 C 
BRANCH  14  17
ATOM     17  C   UNL     1      44.855   3.639   9.964  0.00  0.00    +0.000 A 
ATOM     18  C   UNL     1      45.015   2.283   9.659  0.00  0.00    +0.000 A 
ATOM     19  C   UNL     1      45.640   1.916   8.467  0.00  0.00    +0.000 A 
ATOM     20  C   UNL     1      46.099   2.900   7.604  0.00  0.00    +0.000 A 
ATOM     21  C   UNL     1      45.907   4.218   7.971  0.00  0.00    +0.000 A 
ATOM     22  N   UNL     1      45.301   4.600   9.116  0.00  0.00    +0.000 NA
ENDBRANCH  14  17
ENDBRANCH  13  14
ENDBRANCH   5  13
TORSDOF 5
ENDMDL
MODEL 6
REMARK VINA RESULT:    -6.110      3.717      6.506
REMARK INTER + INTRA:          -8.152
REMARK INTER:                  -7.277
REMARK INTRA:                  -0.876
REMARK UNBOUND:                -0.256
REMARK  Name = 
REMARK  8 active torsions:
REMARK  status: ('A' for Active; 'I' for Inactive)
REMARK    1  A    between atoms: C_1  and  O_2
REMARK    2  A    between atoms: O_2  and  C_3
REMARK    3  A    between atoms: C_3  and  C_5
REMARK    4  A    between atoms: N_9  and  C_10
REMARK    5  A    between atoms: C_10  and  C_11
REMARK    6  A    between atoms: C_11  and  C_12
REMARK    7  A    between atoms: C_11  and  C_13
REMARK    8  A    between atoms: C_11  and  C_14
REMARK                            x       y       z     vdW  Elec       q    Type
REMARK                         _______ _______ _______ _____ _____    ______ ____
ROOT
ATOM      1  C   UNL     1      48.580   8.541  12.655  0.00  0.00    +0.000 A 
ATOM      2  C   UNL     1      47.432   9.138  13.170  0.00  0.00    +0.000 A 
ATOM      3  C   UNL     1      46.224   8.438  13.127  0.00  0.00    +0.000 A 
ATOM      4  C   UNL     1      46.184   7.142  12.611  0.00  0.00    +0.000 A 
ATOM      5  N   UNL     1      44.943   6.499  12.493  0.00  0.00    +0.000 N 
ATOM      6  N   UNL     1      47.293   6.552  12.122  0.00  0.00    +0.000 NA
ATOM      7  C   UNL     1      48.455   7.260  12.140  0.00  0.00    +0.000 A 
ATOM      8  H   UNL     1      44.251   6.917  13.100  0.00  0.00    +0.000 HD
ENDROOT
BRANCH   1   9
ATOM      9  C   UNL     1      49.906   9.194  12.623  0.00  0.00    +0.000 C 
ATOM     10  O   UNL     1      50.167  10.215  13.228  0.00  0.00    +0.000 OA
BRANCH   9  12
ATOM     11  C   UNL     1      51.944   9.205  11.473  0.00  0.00    +0.000 C 
ATOM     12  O   UNL     1      50.758   8.494  11.830  0.00  0.00    +0.000 OA
ENDBRANCH   9  12
ENDBRANCH   1   9
BRANCH   5  13
ATOM     13  C   UNL     1      45.003   5.031  12.594  0.00  0.00    +0.000 C 
BRANCH  13  14
ATOM     14  C   UNL     1      43.948   4.333  11.681  0.00  0.00    +0.000 C 
ATOM     15  C   UNL     1      43.436   3.034  12.358  0.00  0.00    +0.000 C 
ATOM     16  C   UNL     1      42.731   5.254  11.461  0.00  0.00    +0.000 C 
BRANCH  14  17
ATOM     17  C   UNL     1      44.597   3.996  10.324  0.00  0.00    +0.000 A 
ATOM     18  C   UNL     1      44.485   2.723   9.756  0.00  0.00    +0.000 A 
ATOM     19  C   UNL     1      45.090   2.463   8.526  0.00  0.00    +0.000 A 
ATOM     20  C   UNL     1      45.799   3.468   7.887  0.00  0.00    +0.000 A 
ATOM     21  C   UNL     1      45.869   4.701   8.507  0.00  0.00    +0.000 A 
ATOM     22  N   UNL     1      45.288   4.980   9.694  0.00  0.00    +0.000 NA
ENDBRANCH  14  17
ENDBRANCH  13  14
ENDBRANCH   5  13
TORSDOF 5
ENDMDL
MODEL 7
REMARK VINA RESULT:    -5.837      3.996      6.280
REMARK INTER + INTRA:          -7.799
REMARK INTER:                  -7.046
REMARK INTRA:                  -0.753
REMARK UNBOUND:                -0.256
REMARK  Name = 
REMARK  8 active torsions:
REMARK  status: ('A' for Active; 'I' for Inactive)
REMARK    1  A    between atoms: C_1  and  O_2
REMARK    2  A    between atoms: O_2  and  C_3
REMARK    3  A    between atoms: C_3  and  C_5
REMARK    4  A    between atoms: N_9  and  C_10
REMARK    5  A    between atoms: C_10  and  C_11
REMARK    6  A    between atoms: C_11  and  C_12
REMARK    7  A    between atoms: C_11  and  C_13
REMARK    8  A    between atoms: C_11  and  C_14
REMARK                            x       y       z     vdW  Elec       q    Type
REMARK                         _______ _______ _______ _____ _____    ______ ____
ROOT
ATOM      1  C   UNL     1      45.163   4.982  11.557  0.00  0.00    +0.000 A 
ATOM      2  C   UNL     1      45.092   4.241  12.733  0.00  0.00    +0.000 A 
ATOM      3  C   UNL     1      45.985   4.522  13.771  0.00  0.00    +0.000 A 
ATOM      4  C   UNL     1      46.905   5.563  13.638  0.00  0.00    +0.000 A 
ATOM      5  N   UNL     1      47.850   5.763  14.655  0.00  0.00    +0.000 N 
ATOM      6  N   UNL     1      46.972   6.295  12.508  0.00  0.00    +0.000 NA
ATOM      7  C   UNL     1      46.118   5.986  11.494  0.00  0.00    +0.000 A 
ATOM      8  H   UNL     1      47.553   5.342  15.524  0.00  0.00    +0.000 HD
ENDROOT
BRANCH   1   9
ATOM      9  C   UNL     1      44.289   4.758  10.386  0.00  0.00    +0.000 C 
ATOM     10  O   UNL     1      43.139   5.145  10.321  0.00  0.00    +0.000 OA
BRANCH   9  12
ATOM     11  C   UNL     1      44.640   2.672   9.385  0.00  0.00    +0.000 C 
ATOM     12  O   UNL     1      44.955   4.065   9.427  0.00  0.00    +0.000 OA
ENDBRANCH   9  12
ENDBRANCH   1   9
BRANCH   5  13
ATOM     13  C   UNL     1      48.304   7.157  14.802  0.00  0.00    +0.000 C 
BRANCH  13  14
ATOM     14  C   UNL     1      49.314   7.327  15.979  0.00  0.00    +0.000 C 
ATOM     15  C   UNL     1      50.769   7.268  15.443  0.00  0.00    +0.000 C 
ATOM     16  C   UNL     1      49.124   8.698  16.659  0.00  0.00    +0.000 C 
BRANCH  14  17
ATOM     17  C   UNL     1      49.088   6.201  17.007  0.00  0.00    +0.000 A 
ATOM     18  C   UNL     1      48.295   6.397  18.142  0.00  0.00    +0.000 A 
ATOM     19  C   UNL     1      48.119   5.350  19.046  0.00  0.00    +0.000 A 
ATOM     20  C   UNL     1      48.736   4.131  18.810  0.00  0.00    +0.000 A 
ATOM     21  C   UNL     1      49.505   4.010  17.668  0.00  0.00    +0.000 A 
ATOM     22  N   UNL     1      49.688   5.006  16.775  0.00  0.00    +0.000 NA
ENDBRANCH  14  17
ENDBRANCH  13  14
ENDBRANCH   5  13
TORSDOF 5
ENDMDL
MODEL 8
REMARK VINA RESULT:    -5.734      3.633      5.767
REMARK INTER + INTRA:          -7.667
REMARK INTER:                  -6.849
REMARK INTRA:                  -0.818
REMARK UNBOUND:                -0.256
REMARK  Name = 
REMARK  8 active torsions:
REMARK  status: ('A' for Active; 'I' for Inactive)
REMARK    1  A    between atoms: C_1  and  O_2
REMARK    2  A    between atoms: O_2  and  C_3
REMARK    3  A    between atoms: C_3  and  C_5
REMARK    4  A    between atoms: N_9  and  C_10
REMARK    5  A    between atoms: C_10  and  C_11
REMARK    6  A    between atoms: C_11  and  C_12
REMARK    7  A    between atoms: C_11  and  C_13
REMARK    8  A    between atoms: C_11  and  C_14
REMARK                            x       y       z     vdW  Elec       q    Type
REMARK                         _______ _______ _______ _____ _____    ______ ____
ROOT
ATOM      1  C   UNL     1      44.922   4.081  11.456  0.00  0.00    +0.000 A 
ATOM      2  C   UNL     1      45.456   3.803  12.711  0.00  0.00    +0.000 A 
ATOM      3  C   UNL     1      46.405   4.671  13.256  0.00  0.00    +0.000 A 
ATOM      4  C   UNL     1      46.777   5.824  12.562  0.00  0.00    +0.000 A 
ATOM      5  N   UNL     1      47.799   6.628  13.087  0.00  0.00    +0.000 N 
ATOM      6  N   UNL     1      46.256   6.108  11.352  0.00  0.00    +0.000 NA
ATOM      7  C   UNL     1      45.358   5.234  10.821  0.00  0.00    +0.000 A 
ATOM      8  H   UNL     1      47.928   6.464  14.077  0.00  0.00    +0.000 HD
ENDROOT
BRANCH   1   9
ATOM      9  C   UNL     1      43.932   3.223  10.771  0.00  0.00    +0.000 C 
ATOM     10  O   UNL     1      43.015   2.667  11.342  0.00  0.00    +0.000 OA
BRANCH   9  12
ATOM     11  C   UNL     1      44.883   1.957   9.047  0.00  0.00    +0.000 C 
ATOM     12  O   UNL     1      44.208   3.152   9.443  0.00  0.00    +0.000 OA
ENDBRANCH   9  12
ENDBRANCH   1   9
BRANCH   5  13
ATOM     13  C   UNL     1      47.695   8.055  12.737  0.00  0.00    +0.000 C 
BRANCH  13  14
ATOM     14  C   UNL     1      49.075   8.670  12.348  0.00  0.00    +0.000 C 
ATOM     15  C   UNL     1      49.844   7.700  11.413  0.00  0.00    +0.000 C 
ATOM     16  C   UNL     1      48.879   9.996  11.585  0.00  0.00    +0.000 C 
BRANCH  14  17
ATOM     17  C   UNL     1      49.895   8.923  13.629  0.00  0.00    +0.000 A 
ATOM     18  C   UNL     1      50.021  10.205  14.174  0.00  0.00    +0.000 A 
ATOM     19  C   UNL     1      50.773  10.387  15.334  0.00  0.00    +0.000 A 
ATOM     20  C   UNL     1      51.391   9.297  15.928  0.00  0.00    +0.000 A 
ATOM     21  C   UNL     1      51.224   8.061  15.333  0.00  0.00    +0.000 A 
ATOM     22  N   UNL     1      50.497   7.856  14.214  0.00  0.00    +0.000 NA
ENDBRANCH  14  17
ENDBRANCH  13  14
ENDBRANCH   5  13
TORSDOF 5
ENDMDL
MODEL 9
REMARK VINA RESULT:    -5.579      3.664      5.650
REMARK INTER + INTRA:          -7.466
REMARK INTER:                  -6.647
REMARK INTRA:                  -0.819
REMARK UNBOUND:                -0.256
REMARK  Name = 
REMARK  8 active torsions:
REMARK  status: ('A' for Active; 'I' for Inactive)
REMARK    1  A    between atoms: C_1  and  O_2
REMARK    2  A    between atoms: O_2  and  C_3
REMARK    3  A    between atoms: C_3  and  C_5
REMARK    4  A    between atoms: N_9  and  C_10
REMARK    5  A    between atoms: C_10  and  C_11
REMARK    6  A    between atoms: C_11  and  C_12
REMARK    7  A    between atoms: C_11  and  C_13
REMARK    8  A    between atoms: C_11  and  C_14
REMARK                            x       y       z     vdW  Elec       q    Type
REMARK                         _______ _______ _______ _____ _____    ______ ____
ROOT
ATOM      1  C   UNL     1      45.085   4.870  10.889  0.00  0.00    +0.000 A 
ATOM      2  C   UNL     1      44.696   4.661  12.210  0.00  0.00    +0.000 A 
ATOM      3  C   UNL     1      45.269   5.437  13.220  0.00  0.00    +0.000 A 
ATOM      4  C   UNL     1      46.189   6.437  12.897  0.00  0.00    +0.000 A 
ATOM      5  N   UNL     1      46.819   7.136  13.937  0.00  0.00    +0.000 N 
ATOM      6  N   UNL     1      46.562   6.655  11.620  0.00  0.00    +0.000 NA
ATOM      7  C   UNL     1      46.019   5.868  10.652  0.00  0.00    +0.000 A 
ATOM      8  H   UNL     1      46.295   7.068  14.799  0.00  0.00    +0.000 HD
ENDROOT
BRANCH   1   9
ATOM      9  C   UNL     1      44.566   4.095   9.743  0.00  0.00    +0.000 C 
ATOM     10  O   UNL     1      43.801   3.158   9.856  0.00  0.00    +0.000 OA
BRANCH   9  12
ATOM     11  C   UNL     1      45.615   3.578   7.715  0.00  0.00    +0.000 C 
ATOM     12  O   UNL     1      45.072   4.578   8.579  0.00  0.00    +0.000 OA
ENDBRANCH   9  12
ENDBRANCH   1   9
BRANCH   5  13
ATOM     13  C   UNL     1      47.212   8.514  13.596  0.00  0.00    +0.000 C 
BRANCH  13  14
ATOM     14  C   UNL     1      48.554   8.930  14.275  0.00  0.00    +0.000 C 
ATOM     15  C   UNL     1      49.745   8.226  13.574  0.00  0.00    +0.000 C 
ATOM     16  C   UNL     1      48.772  10.452  14.150  0.00  0.00    +0.000 C 
BRANCH  14  17
ATOM     17  C   UNL     1      48.512   8.531  15.764  0.00  0.00    +0.000 A 
ATOM     18  C   UNL     1      48.102   9.434  16.751  0.00  0.00    +0.000 A 
ATOM     19  C   UNL     1      48.080   9.030  18.085  0.00  0.00    +0.000 A 
ATOM     20  C   UNL     1      48.471   7.741  18.417  0.00  0.00    +0.000 A 
ATOM     21  C   UNL     1      48.864   6.904  17.389  0.00  0.00    +0.000 A 
ATOM     22  N   UNL     1      48.889   7.269  16.089  0.00  0.00    +0.000 NA
ENDBRANCH  14  17
ENDBRANCH  13  14
ENDBRANCH   5  13
TORSDOF 5
ENDMDL
