MODEL 1
REMARK VINA RESULT:    -8.035      0.000      0.000
REMARK INTER + INTRA:         -12.601
REMARK INTER:                 -11.323
REMARK INTRA:                  -1.278
REMARK UNBOUND:                -1.278
REMARK  Name = 
REMARK  10 active torsions:
REMARK  status: ('A' for Active; 'I' for Inactive)
REMARK    1  A    between atoms: C_1  and  C_2
REMARK    2  A    between atoms: C_2  and  N_3
REMARK    3  A    between atoms: C_6  and  C_7
REMARK    4  A    between atoms: C_11  and  C_12
REMARK    5  A    between atoms: C_12  and  C_13
REMARK    6  A    between atoms: C_12  and  C_14
REMARK    7  A    between atoms: C_12  and  C_15
REMARK    8  A    between atoms: C_15  and  N_16
REMARK    9  A    between atoms: N_16  and  C_17
REMARK   10  A    between atoms: C_20  and  C_21
REMARK                            x       y       z     vdW  Elec       q    Type
REMARK                         _______ _______ _______ _____ _____    ______ ____
ROOT
ATOM      1  C   UNL     1      43.773   5.436  11.977  0.00  0.00    +0.000 C 
ATOM      2  C   UNL     1      42.895   5.161  13.222  0.00  0.00    +0.000 C 
ATOM      3  C   UNL     1      43.348   6.791  11.364  0.00  0.00    +0.000 C 
ENDROOT
BRANCH   1   8
ATOM      4  C   UNL     1      47.439   6.607  12.306  0.00  0.00    +0.000 A 
ATOM      5  C   UNL     1      47.846   5.846  13.407  0.00  0.00    +0.000 A 
ATOM      6  C   UNL     1      46.992   4.912  13.988  0.00  0.00    +0.000 A 
ATOM      7  C   UNL     1      45.697   4.754  13.506  0.00  0.00    +0.000 A 
ATOM      8  C   UNL     1      45.246   5.499  12.407  0.00  0.00    +0.000 A 
ATOM      9  C   UNL     1      46.174   6.336  11.769  0.00  0.00    +0.000 A 
BRANCH   4  13
ATOM     10  N   UNL     1      49.422   9.503  13.746  0.00  0.00    +0.000 NA
ATOM     11  C   UNL     1      50.013   8.192  13.443  0.00  0.00    +0.000 C 
ATOM     12  C   UNL     1      49.764   7.696  12.020  0.00  0.00    +0.000 C 
ATOM     13  C   UNL     1      48.282   7.702  11.652  0.00  0.00    +0.000 C 
ATOM     14  C   UNL     1      47.757   9.127  11.923  0.00  0.00    +0.000 C 
ATOM     15  C   UNL     1      48.006   9.590  13.360  0.00  0.00    +0.000 C 
BRANCH  10  17
ATOM     16  C   UNL     1      48.539   9.071  16.040  0.00  0.00    +0.000 C 
ATOM     17  C   UNL     1      49.563   9.810  15.184  0.00  0.00    +0.000 C 
ENDBRANCH  10  17
ENDBRANCH   4  13
ENDBRANCH   1   8
BRANCH   1  18
ATOM     18  C   UNL     1      43.446   4.315  10.947  0.00  0.00    +0.000 C 
BRANCH  18  19
ATOM     19  N   UNL     1      43.688   4.677   9.536  0.00  0.00    +0.000 N 
ATOM     20  H   UNL     1      43.821   5.677   9.389  0.00  0.00    +0.000 HD
BRANCH  19  21
ATOM     21  C   UNL     1      44.638   3.891   8.855  0.00  0.00    +0.000 A 
ATOM     22  C   UNL     1      45.604   4.470   8.035  0.00  0.00    +0.000 A 
ATOM     23  C   UNL     1      46.586   3.694   7.439  0.00  0.00    +0.000 A 
ATOM     24  C   UNL     1      46.592   2.336   7.682  0.00  0.00    +0.000 A 
ATOM     25  N   UNL     1      45.680   1.707   8.479  0.00  0.00    +0.000 NA
ATOM     26  C   UNL     1      44.748   2.510   9.060  0.00  0.00    +0.000 A 
BRANCH  24  27
ATOM     27  C   UNL     1      47.666   1.488   7.077  0.00  0.00    +0.000 C 
ATOM     28  N   UNL     1      48.579   2.154   6.312  0.00  0.00    +0.000 N 
ATOM     29  O   UNL     1      47.712   0.278   7.231  0.00  0.00    +0.000 OA
ATOM     30  H   UNL     1      48.476   3.154   6.166  0.00  0.00    +0.000 HD
ATOM     31  H   UNL     1      49.290   1.630   5.825  0.00  0.00    +0.000 HD
ENDBRANCH  24  27
ENDBRANCH  19  21
ENDBRANCH  18  19
ENDBRANCH   1  18
TORSDOF 7
ENDMDL
MODEL 2
REMARK VINA RESULT:    -6.979      1.316      2.076
REMARK INTER + INTRA:         -11.113
REMARK INTER:                 -10.353
REMARK INTRA:                  -0.761
REMARK UNBOUND:                -1.278
REMARK  Name = 
REMARK  10 active torsions:
REMARK  status: ('A' for Active; 'I' for Inactive)
REMARK    1  A    between atoms: C_1  and  C_2
REMARK    2  A    between atoms: C_2  and  N_3
REMARK    3  A    between atoms: C_6  and  C_7
REMARK    4  A    between atoms: C_11  and  C_12
REMARK    5  A    between atoms: C_12  and  C_13
REMARK    6  A    between atoms: C_12  and  C_14
REMARK    7  A    between atoms: C_12  and  C_15
REMARK    8  A    between atoms: C_15  and  N_16
REMARK    9  A    between atoms: N_16  and  C_17
REMARK   10  A    between atoms: C_20  and  C_21
REMARK                            x       y       z     vdW  Elec       q    Type
REMARK                         _______ _______ _______ _____ _____    ______ ____
ROOT
ATOM      1  C   UNL     1      43.853   4.974  12.174  0.00  0.00    +0.000 C 
ATOM      2  C   UNL     1      43.375   4.615  13.602  0.00  0.00    +0.000 C 
ATOM      3  C   UNL     1      42.619   5.354  11.321  0.00  0.00    +0.000 C 
ENDROOT
BRANCH   1   8
ATOM      4  C   UNL     1      47.080   7.045  12.650  0.00  0.00    +0.000 A 
ATOM      5  C   UNL     1      46.674   8.267  12.103  0.00  0.00    +0.000 A 
ATOM      6  C   UNL     1      45.367   8.457  11.661  0.00  0.00    +0.000 A 
ATOM      7  C   UNL     1      44.451   7.412  11.718  0.00  0.00    +0.000 A 
ATOM      8  C   UNL     1      44.816   6.169  12.255  0.00  0.00    +0.000 A 
ATOM      9  C   UNL     1      46.102   6.055  12.805  0.00  0.00    +0.000 A 
BRANCH   4  13
ATOM     10  N   UNL     1      49.576   8.949  14.780  0.00  0.00    +0.000 NA
ATOM     11  C   UNL     1      48.664   7.932  15.321  0.00  0.00    +0.000 C 
ATOM     12  C   UNL     1      48.711   6.586  14.600  0.00  0.00    +0.000 C 
ATOM     13  C   UNL     1      48.507   6.726  13.092  0.00  0.00    +0.000 C 
ATOM     14  C   UNL     1      49.550   7.748  12.591  0.00  0.00    +0.000 C 
ATOM     15  C   UNL     1      49.467   9.090  13.320  0.00  0.00    +0.000 C 
BRANCH  10  17
ATOM     16  C   UNL     1      50.569  11.143  15.434  0.00  0.00    +0.000 C 
ATOM     17  C   UNL     1      49.328  10.255  15.423  0.00  0.00    +0.000 C 
ENDBRANCH  10  17
ENDBRANCH   4  13
ENDBRANCH   1   8
BRANCH   1  18
ATOM     18  C   UNL     1      44.476   3.680  11.575  0.00  0.00    +0.000 C 
BRANCH  18  19
ATOM     19  N   UNL     1      43.965   3.302  10.242  0.00  0.00    +0.000 N 
ATOM     20  H   UNL     1      43.203   3.895   9.915  0.00  0.00    +0.000 HD
BRANCH  19  21
ATOM     21  C   UNL     1      44.941   3.067   9.254  0.00  0.00    +0.000 A 
ATOM     22  C   UNL     1      45.424   1.784   9.002  0.00  0.00    +0.000 A 
ATOM     23  C   UNL     1      46.319   1.555   7.969  0.00  0.00    +0.000 A 
ATOM     24  C   UNL     1      46.717   2.623   7.190  0.00  0.00    +0.000 A 
ATOM     25  N   UNL     1      46.277   3.900   7.379  0.00  0.00    +0.000 NA
ATOM     26  C   UNL     1      45.383   4.075   8.389  0.00  0.00    +0.000 A 
BRANCH  24  27
ATOM     27  C   UNL     1      47.655   2.387   6.048  0.00  0.00    +0.000 C 
ATOM     28  N   UNL     1      47.542   3.258   5.005  0.00  0.00    +0.000 N 
ATOM     29  O   UNL     1      48.452   1.463   6.035  0.00  0.00    +0.000 OA
ATOM     30  H   UNL     1      46.830   3.984   5.032  0.00  0.00    +0.000 HD
ATOM     31  H   UNL     1      48.101   3.114   4.179  0.00  0.00    +0.000 HD
ENDBRANCH  24  27
ENDBRANCH  19  21
ENDBRANCH  18  19
ENDBRANCH   1  18
TORSDOF 7
ENDMDL
MODEL 3
REMARK VINA RESULT:    -6.705      3.372      7.799
REMARK INTER + INTRA:         -10.727
REMARK INTER:                  -9.115
REMARK INTRA:                  -1.612
REMARK UNBOUND:                -1.278
REMARK  Name = 
REMARK  10 active torsions:
REMARK  status: ('A' for Active; 'I' for Inactive)
REMARK    1  A    between atoms: C_1  and  C_2
REMARK    2  A    between atoms: C_2  and  N_3
REMARK    3  A    between atoms: C_6  and  C_7
REMARK    4  A    between atoms: C_11  and  C_12
REMARK    5  A    between atoms: C_12  and  C_13
REMARK    6  A    between atoms: C_12  and  C_14
REMARK    7  A    between atoms: C_12  and  C_15
REMARK    8  A    between atoms: C_15  and  N_16
REMARK    9  A    between atoms: N_16  and  C_17
REMARK   10  A    between atoms: C_20  and  C_21
REMARK                            x       y       z     vdW  Elec       q    Type
REMARK                         _______ _______ _______ _____ _____    ______ ____
ROOT
ATOM      1  C   UNL     1      48.481   8.377  12.728  0.00  0.00    +0.000 C 
ATOM      2  C   UNL     1      49.387   7.258  12.159  0.00  0.00    +0.000 C 
ATOM      3  C   UNL     1      48.932   9.729  12.127  0.00  0.00    +0.000 C 
ENDROOT
BRANCH   1   8
ATOM      4  C   UNL     1      45.016   6.683  12.504  0.00  0.00    +0.000 A 
ATOM      5  C   UNL     1      44.281   7.702  11.888  0.00  0.00    +0.000 A 
ATOM      6  C   UNL     1      44.895   8.881  11.475  0.00  0.00    +0.000 A 
ATOM      7  C   UNL     1      46.250   9.083  11.712  0.00  0.00    +0.000 A 
ATOM      8  C   UNL     1      47.025   8.091  12.329  0.00  0.00    +0.000 A 
ATOM      9  C   UNL     1      46.399   6.867  12.616  0.00  0.00    +0.000 A 
BRANCH   4  13
ATOM     10  N   UNL     1      44.165   3.370  10.865  0.00  0.00    +0.000 NA
ATOM     11  C   UNL     1      45.443   3.631  11.540  0.00  0.00    +0.000 C 
ATOM     12  C   UNL     1      45.313   4.159  12.967  0.00  0.00    +0.000 C 
ATOM     13  C   UNL     1      44.413   5.390  13.052  0.00  0.00    +0.000 C 
ATOM     14  C   UNL     1      43.069   5.011  12.395  0.00  0.00    +0.000 C 
ATOM     15  C   UNL     1      43.230   4.501  10.962  0.00  0.00    +0.000 C 
BRANCH  10  17
ATOM     16  C   UNL     1      45.085   4.164   8.686  0.00  0.00    +0.000 C 
ATOM     17  C   UNL     1      44.393   3.036   9.444  0.00  0.00    +0.000 C 
ENDBRANCH  10  17
ENDBRANCH   4  13
ENDBRANCH   1   8
BRANCH   1  18
ATOM     18  C   UNL     1      48.736   8.418  14.262  0.00  0.00    +0.000 C 
BRANCH  18  19
ATOM     19  N   UNL     1      49.675   7.395  14.766  0.00  0.00    +0.000 N 
ATOM     20  H   UNL     1      50.540   7.785  15.140  0.00  0.00    +0.000 HD
BRANCH  19  21
ATOM     21  C   UNL     1      49.116   6.403  15.594  0.00  0.00    +0.000 A 
ATOM     22  C   UNL     1      48.023   5.644  15.179  0.00  0.00    +0.000 A 
ATOM     23  C   UNL     1      47.537   4.613  15.968  0.00  0.00    +0.000 A 
ATOM     24  C   UNL     1      48.163   4.349  17.169  0.00  0.00    +0.000 A 
ATOM     25  N   UNL     1      49.239   5.049  17.630  0.00  0.00    +0.000 NA
ATOM     26  C   UNL     1      49.696   6.037  16.814  0.00  0.00    +0.000 A 
BRANCH  24  27
ATOM     27  C   UNL     1      47.674   3.216  18.016  0.00  0.00    +0.000 C 
ATOM     28  N   UNL     1      48.374   2.998  19.167  0.00  0.00    +0.000 N 
ATOM     29  O   UNL     1      46.730   2.514  17.691  0.00  0.00    +0.000 OA
ATOM     30  H   UNL     1      49.186   3.571  19.376  0.00  0.00    +0.000 HD
ATOM     31  H   UNL     1      48.133   2.209  19.748  0.00  0.00    +0.000 HD
ENDBRANCH  24  27
ENDBRANCH  19  21
ENDBRANCH  18  19
ENDBRANCH   1  18
TORSDOF 7
ENDMDL
MODEL 4
REMARK VINA RESULT:    -6.652      3.681      8.189
REMARK INTER + INTRA:         -10.652
REMARK INTER:                  -9.524
REMARK INTRA:                  -1.128
REMARK UNBOUND:                -1.278
REMARK  Name = 
REMARK  10 active torsions:
REMARK  status: ('A' for Active; 'I' for Inactive)
REMARK    1  A    between atoms: C_1  and  C_2
REMARK    2  A    between atoms: C_2  and  N_3
REMARK    3  A    between atoms: C_6  and  C_7
REMARK    4  A    between atoms: C_11  and  C_12
REMARK    5  A    between atoms: C_12  and  C_13
REMARK    6  A    between atoms: C_12  and  C_14
REMARK    7  A    between atoms: C_12  and  C_15
REMARK    8  A    between atoms: C_15  and  N_16
REMARK    9  A    between atoms: N_16  and  C_17
REMARK   10  A    between atoms: C_20  and  C_21
REMARK                            x       y       z     vdW  Elec       q    Type
REMARK                         _______ _______ _______ _____ _____    ______ ____
ROOT
ATOM      1  C   UNL     1      47.178   7.316  12.584  0.00  0.00    +0.000 C 
ATOM      2  C   UNL     1      48.457   7.295  11.712  0.00  0.00    +0.000 C 
ATOM      3  C   UNL     1      46.168   8.305  11.954  0.00  0.00    +0.000 C 
ENDROOT
BRANCH   1   8
ATOM      4  C   UNL     1      45.137   4.190  11.591  0.00  0.00    +0.000 A 
ATOM      5  C   UNL     1      45.695   3.243  12.457  0.00  0.00    +0.000 A 
ATOM      6  C   UNL     1      46.651   3.610  13.401  0.00  0.00    +0.000 A 
ATOM      7  C   UNL     1      47.100   4.924  13.466  0.00  0.00    +0.000 A 
ATOM      8  C   UNL     1      46.572   5.905  12.615  0.00  0.00    +0.000 A 
ATOM      9  C   UNL     1      45.521   5.525  11.766  0.00  0.00    +0.000 A 
BRANCH   4  13
ATOM     10  N   UNL     1      45.594   2.999   8.019  0.00  0.00    +0.000 NA
ATOM     11  C   UNL     1      45.372   2.089   9.150  0.00  0.00    +0.000 C 
ATOM     12  C   UNL     1      44.144   2.415   9.998  0.00  0.00    +0.000 C 
ATOM     13  C   UNL     1      44.139   3.864  10.480  0.00  0.00    +0.000 C 
ATOM     14  C   UNL     1      44.297   4.755   9.230  0.00  0.00    +0.000 C 
ATOM     15  C   UNL     1      45.544   4.415   8.411  0.00  0.00    +0.000 C 
BRANCH  10  17
ATOM     16  C   UNL     1      46.836   2.870   5.858  0.00  0.00    +0.000 C 
ATOM     17  C   UNL     1      46.892   2.710   7.374  0.00  0.00    +0.000 C 
ENDBRANCH  10  17
ENDBRANCH   4  13
ENDBRANCH   1   8
BRANCH   1  18
ATOM     18  C   UNL     1      47.597   7.873  13.975  0.00  0.00    +0.000 C 
BRANCH  18  19
ATOM     19  N   UNL     1      49.052   7.889  14.227  0.00  0.00    +0.000 N 
ATOM     20  H   UNL     1      49.454   8.826  14.235  0.00  0.00    +0.000 HD
BRANCH  19  21
ATOM     21  C   UNL     1      49.499   7.091  15.298  0.00  0.00    +0.000 A 
ATOM     22  C   UNL     1      48.627   6.255  15.993  0.00  0.00    +0.000 A 
ATOM     23  C   UNL     1      49.095   5.411  16.987  0.00  0.00    +0.000 A 
ATOM     24  C   UNL     1      50.446   5.410  17.270  0.00  0.00    +0.000 A 
ATOM     25  N   UNL     1      51.354   6.197  16.623  0.00  0.00    +0.000 NA
ATOM     26  C   UNL     1      50.853   6.993  15.640  0.00  0.00    +0.000 A 
BRANCH  24  27
ATOM     27  C   UNL     1      50.975   4.479  18.315  0.00  0.00    +0.000 C 
ATOM     28  N   UNL     1      50.801   3.150  18.061  0.00  0.00    +0.000 N 
ATOM     29  O   UNL     1      51.503   4.877  19.341  0.00  0.00    +0.000 OA
ATOM     30  H   UNL     1      50.311   2.861  17.219  0.00  0.00    +0.000 HD
ATOM     31  H   UNL     1      51.078   2.474  18.756  0.00  0.00    +0.000 HD
ENDBRANCH  24  27
ENDBRANCH  19  21
ENDBRANCH  18  19
ENDBRANCH   1  18
TORSDOF 7
ENDMDL
MODEL 5
REMARK VINA RESULT:    -6.520      2.950      4.112
REMARK INTER + INTRA:         -10.466
REMARK INTER:                 -10.391
REMARK INTRA:                  -0.076
REMARK UNBOUND:                -1.278
REMARK  Name = 
REMARK  10 active torsions:
REMARK  status: ('A' for Active; 'I' for Inactive)
REMARK    1  A    between atoms: C_1  and  C_2
REMARK    2  A    between atoms: C_2  and  N_3
REMARK    3  A    between atoms: C_6  and  C_7
REMARK    4  A    between atoms: C_11  and  C_12
REMARK    5  A    between atoms: C_12  and  C_13
REMARK    6  A    between atoms: C_12  and  C_14
REMARK    7  A    between atoms: C_12  and  C_15
REMARK    8  A    between atoms: C_15  and  N_16
REMARK    9  A    between atoms: N_16  and  C_17
REMARK   10  A    between atoms: C_20  and  C_21
REMARK                            x       y       z     vdW  Elec       q    Type
REMARK                         _______ _______ _______ _____ _____    ______ ____
ROOT
ATOM      1  C   UNL     1      45.409   5.245  12.425  0.00  0.00    +0.000 C 
ATOM      2  C   UNL     1      43.997   5.663  12.903  0.00  0.00    +0.000 C 
ATOM      3  C   UNL     1      45.813   6.145  11.233  0.00  0.00    +0.000 C 
ENDROOT
BRANCH   1   8
ATOM      4  C   UNL     1      47.511   4.555  15.592  0.00  0.00    +0.000 A 
ATOM      5  C   UNL     1      48.431   5.606  15.514  0.00  0.00    +0.000 A 
ATOM      6  C   UNL     1      48.337   6.569  14.513  0.00  0.00    +0.000 A 
ATOM      7  C   UNL     1      47.345   6.474  13.543  0.00  0.00    +0.000 A 
ATOM      8  C   UNL     1      46.404   5.435  13.580  0.00  0.00    +0.000 A 
ATOM      9  C   UNL     1      46.453   4.558  14.675  0.00  0.00    +0.000 A 
BRANCH   4  13
ATOM     10  N   UNL     1      49.594   4.059  18.723  0.00  0.00    +0.000 NA
ATOM     11  C   UNL     1      48.244   4.637  18.736  0.00  0.00    +0.000 C 
ATOM     12  C   UNL     1      47.182   3.789  18.038  0.00  0.00    +0.000 C 
ATOM     13  C   UNL     1      47.581   3.418  16.611  0.00  0.00    +0.000 C 
ATOM     14  C   UNL     1      48.969   2.749  16.692  0.00  0.00    +0.000 C 
ATOM     15  C   UNL     1      50.015   3.627  17.382  0.00  0.00    +0.000 C 
BRANCH  10  17
ATOM     16  C   UNL     1      51.836   5.110  18.410  0.00  0.00    +0.000 C 
ATOM     17  C   UNL     1      50.573   5.027  19.261  0.00  0.00    +0.000 C 
ENDBRANCH  10  17
ENDBRANCH   4  13
ENDBRANCH   1   8
BRANCH   1  18
ATOM     18  C   UNL     1      45.289   3.782  11.909  0.00  0.00    +0.000 C 
BRANCH  18  19
ATOM     19  N   UNL     1      44.435   3.611  10.716  0.00  0.00    +0.000 N 
ATOM     20  H   UNL     1      43.709   4.322  10.630  0.00  0.00    +0.000 HD
BRANCH  19  21
ATOM     21  C   UNL     1      45.112   3.368   9.506  0.00  0.00    +0.000 A 
ATOM     22  C   UNL     1      45.566   4.416   8.706  0.00  0.00    +0.000 A 
ATOM     23  C   UNL     1      46.306   4.165   7.562  0.00  0.00    +0.000 A 
ATOM     24  C   UNL     1      46.591   2.854   7.234  0.00  0.00    +0.000 A 
ATOM     25  N   UNL     1      46.184   1.785   7.976  0.00  0.00    +0.000 NA
ATOM     26  C   UNL     1      45.480   2.079   9.102  0.00  0.00    +0.000 A 
BRANCH  24  27
ATOM     27  C   UNL     1      47.420   2.566   6.022  0.00  0.00    +0.000 C 
ATOM     28  N   UNL     1      48.758   2.421   6.246  0.00  0.00    +0.000 N 
ATOM     29  O   UNL     1      46.941   2.492   4.902  0.00  0.00    +0.000 OA
ATOM     30  H   UNL     1      49.125   2.541   7.186  0.00  0.00    +0.000 HD
ATOM     31  H   UNL     1      49.378   2.289   5.461  0.00  0.00    +0.000 HD
ENDBRANCH  24  27
ENDBRANCH  19  21
ENDBRANCH  18  19
ENDBRANCH   1  18
TORSDOF 7
ENDMDL
MODEL 6
REMARK VINA RESULT:    -6.292      4.437      8.363
REMARK INTER + INTRA:         -10.144
REMARK INTER:                  -9.238
REMARK INTRA:                  -0.907
REMARK UNBOUND:                -1.278
REMARK  Name = 
REMARK  10 active torsions:
REMARK  status: ('A' for Active; 'I' for Inactive)
REMARK    1  A    between atoms: C_1  and  C_2
REMARK    2  A    between atoms: C_2  and  N_3
REMARK    3  A    between atoms: C_6  and  C_7
REMARK    4  A    between atoms: C_11  and  C_12
REMARK    5  A    between atoms: C_12  and  C_13
REMARK    6  A    between atoms: C_12  and  C_14
REMARK    7  A    between atoms: C_12  and  C_15
REMARK    8  A    between atoms: C_15  and  N_16
REMARK    9  A    between atoms: N_16  and  C_17
REMARK   10  A    between atoms: C_20  and  C_21
REMARK                            x       y       z     vdW  Elec       q    Type
REMARK                         _______ _______ _______ _____ _____    ______ ____
ROOT
ATOM      1  C   UNL     1      48.436   7.359  14.548  0.00  0.00    +0.000 C 
ATOM      2  C   UNL     1      49.773   7.385  13.768  0.00  0.00    +0.000 C 
ATOM      3  C   UNL     1      48.333   8.650  15.394  0.00  0.00    +0.000 C 
ENDROOT
BRANCH   1   8
ATOM      4  C   UNL     1      45.205   6.230  12.756  0.00  0.00    +0.000 A 
ATOM      5  C   UNL     1      44.969   7.345  11.943  0.00  0.00    +0.000 A 
ATOM      6  C   UNL     1      45.868   8.408  11.904  0.00  0.00    +0.000 A 
ATOM      7  C   UNL     1      47.000   8.396  12.713  0.00  0.00    +0.000 A 
ATOM      8  C   UNL     1      47.274   7.302  13.545  0.00  0.00    +0.000 A 
ATOM      9  C   UNL     1      46.413   6.195  13.463  0.00  0.00    +0.000 A 
BRANCH   4  13
ATOM     10  N   UNL     1      44.159   3.451  10.395  0.00  0.00    +0.000 NA
ATOM     11  C   UNL     1      45.251   3.315  11.368  0.00  0.00    +0.000 C 
ATOM     12  C   UNL     1      44.872   3.669  12.804  0.00  0.00    +0.000 C 
ATOM     13  C   UNL     1      44.240   5.056  12.914  0.00  0.00    +0.000 C 
ATOM     14  C   UNL     1      43.059   5.091  11.923  0.00  0.00    +0.000 C 
ATOM     15  C   UNL     1      43.472   4.748  10.490  0.00  0.00    +0.000 C 
BRANCH  10  17
ATOM     16  C   UNL     1      45.473   1.974   8.872  0.00  0.00    +0.000 C 
ATOM     17  C   UNL     1      44.667   3.261   9.021  0.00  0.00    +0.000 C 
ENDBRANCH  10  17
ENDBRANCH   4  13
ENDBRANCH   1   8
BRANCH   1  18
ATOM     18  C   UNL     1      48.513   6.146  15.521  0.00  0.00    +0.000 C 
BRANCH  18  19
ATOM     19  N   UNL     1      49.463   6.305  16.640  0.00  0.00    +0.000 N 
ATOM     20  H   UNL     1      49.084   6.836  17.424  0.00  0.00    +0.000 HD
BRANCH  19  21
ATOM     21  C   UNL     1      50.137   5.137  17.043  0.00  0.00    +0.000 A 
ATOM     22  C   UNL     1      49.499   3.897  17.052  0.00  0.00    +0.000 A 
ATOM     23  C   UNL     1      50.197   2.743  17.368  0.00  0.00    +0.000 A 
ATOM     24  C   UNL     1      51.541   2.844  17.667  0.00  0.00    +0.000 A 
ATOM     25  N   UNL     1      52.226   4.024  17.670  0.00  0.00    +0.000 NA
ATOM     26  C   UNL     1      51.507   5.128  17.333  0.00  0.00    +0.000 A 
BRANCH  24  27
ATOM     27  C   UNL     1      52.318   1.604  17.975  0.00  0.00    +0.000 C 
ATOM     28  N   UNL     1      51.599   0.445  17.977  0.00  0.00    +0.000 N 
ATOM     29  O   UNL     1      53.510   1.624  18.234  0.00  0.00    +0.000 OA
ATOM     30  H   UNL     1      50.597   0.476  17.807  0.00  0.00    +0.000 HD
ATOM     31  H   UNL     1      52.052  -0.417  18.240  0.00  0.00    +0.000 HD
ENDBRANCH  24  27
ENDBRANCH  19  21
ENDBRANCH  18  19
ENDBRANCH   1  18
TORSDOF 7
ENDMDL
MODEL 7
REMARK VINA RESULT:    -6.041      3.364      6.037
REMARK INTER + INTRA:          -9.791
REMARK INTER:                  -8.697
REMARK INTRA:                  -1.093
REMARK UNBOUND:                -1.278
REMARK  Name = 
REMARK  10 active torsions:
REMARK  status: ('A' for Active; 'I' for Inactive)
REMARK    1  A    between atoms: C_1  and  C_2
REMARK    2  A    between atoms: C_2  and  N_3
REMARK    3  A    between atoms: C_6  and  C_7
REMARK    4  A    between atoms: C_11  and  C_12
REMARK    5  A    between atoms: C_12  and  C_13
REMARK    6  A    between atoms: C_12  and  C_14
REMARK    7  A    between atoms: C_12  and  C_15
REMARK    8  A    between atoms: C_15  and  N_16
REMARK    9  A    between atoms: N_16  and  C_17
REMARK   10  A    between atoms: C_20  and  C_21
REMARK                            x       y       z     vdW  Elec       q    Type
REMARK                         _______ _______ _______ _____ _____    ______ ____
ROOT
ATOM      1  C   UNL     1      48.917   8.382  13.437  0.00  0.00    +0.000 C 
ATOM      2  C   UNL     1      48.695   9.908  13.296  0.00  0.00    +0.000 C 
ATOM      3  C   UNL     1      49.476   7.840  12.100  0.00  0.00    +0.000 C 
ENDROOT
BRANCH   1   8
ATOM      4  C   UNL     1      50.404   7.374  16.857  0.00  0.00    +0.000 A 
ATOM      5  C   UNL     1      51.765   7.346  16.538  0.00  0.00    +0.000 A 
ATOM      6  C   UNL     1      52.214   7.720  15.274  0.00  0.00    +0.000 A 
ATOM      7  C   UNL     1      51.303   8.088  14.290  0.00  0.00    +0.000 A 
ATOM      8  C   UNL     1      49.929   8.127  14.564  0.00  0.00    +0.000 A 
ATOM      9  C   UNL     1      49.526   7.866  15.884  0.00  0.00    +0.000 A 
BRANCH   4  13
ATOM     10  N   UNL     1      49.177   3.998  18.075  0.00  0.00    +0.000 NA
ATOM     11  C   UNL     1      50.546   4.484  18.290  0.00  0.00    +0.000 C 
ATOM     12  C   UNL     1      50.636   5.863  18.940  0.00  0.00    +0.000 C 
ATOM     13  C   UNL     1      49.818   6.913  18.192  0.00  0.00    +0.000 C 
ATOM     14  C   UNL     1      48.380   6.364  18.076  0.00  0.00    +0.000 C 
ATOM     15  C   UNL     1      48.321   4.989  17.407  0.00  0.00    +0.000 C 
BRANCH  10  17
ATOM     16  C   UNL     1      50.582   2.121  17.220  0.00  0.00    +0.000 C 
ATOM     17  C   UNL     1      49.193   2.748  17.286  0.00  0.00    +0.000 C 
ENDBRANCH  10  17
ENDBRANCH   4  13
ENDBRANCH   1   8
BRANCH   1  18
ATOM     18  C   UNL     1      47.515   7.748  13.669  0.00  0.00    +0.000 C 
BRANCH  18  19
ATOM     19  N   UNL     1      47.530   6.311  14.009  0.00  0.00    +0.000 N 
ATOM     20  H   UNL     1      47.514   6.130  15.012  0.00  0.00    +0.000 HD
BRANCH  19  21
ATOM     21  C   UNL     1      46.630   5.501  13.290  0.00  0.00    +0.000 A 
ATOM     22  C   UNL     1      46.077   5.925  12.083  0.00  0.00    +0.000 A 
ATOM     23  C   UNL     1      45.261   5.084  11.343  0.00  0.00    +0.000 A 
ATOM     24  C   UNL     1      45.013   3.813  11.823  0.00  0.00    +0.000 A 
ATOM     25  N   UNL     1      45.528   3.334  12.992  0.00  0.00    +0.000 NA
ATOM     26  C   UNL     1      46.341   4.186  13.674  0.00  0.00    +0.000 A 
BRANCH  24  27
ATOM     27  C   UNL     1      44.164   2.880  11.020  0.00  0.00    +0.000 C 
ATOM     28  N   UNL     1      44.749   2.373   9.896  0.00  0.00    +0.000 N 
ATOM     29  O   UNL     1      43.016   2.606  11.330  0.00  0.00    +0.000 OA
ATOM     30  H   UNL     1      45.689   2.666   9.644  0.00  0.00    +0.000 HD
ATOM     31  H   UNL     1      44.206   1.789   9.278  0.00  0.00    +0.000 HD
ENDBRANCH  24  27
ENDBRANCH  19  21
ENDBRANCH  18  19
ENDBRANCH   1  18
TORSDOF 7
ENDMDL
MODEL 8
REMARK VINA RESULT:    -6.037      3.676      6.192
REMARK INTER + INTRA:          -9.786
REMARK INTER:                  -8.662
REMARK INTRA:                  -1.124
REMARK UNBOUND:                -1.278
REMARK  Name = 
REMARK  10 active torsions:
REMARK  status: ('A' for Active; 'I' for Inactive)
REMARK    1  A    between atoms: C_1  and  C_2
REMARK    2  A    between atoms: C_2  and  N_3
REMARK    3  A    between atoms: C_6  and  C_7
REMARK    4  A    between atoms: C_11  and  C_12
REMARK    5  A    between atoms: C_12  and  C_13
REMARK    6  A    between atoms: C_12  and  C_14
REMARK    7  A    between atoms: C_12  and  C_15
REMARK    8  A    between atoms: C_15  and  N_16
REMARK    9  A    between atoms: N_16  and  C_17
REMARK   10  A    between atoms: C_20  and  C_21
REMARK                            x       y       z     vdW  Elec       q    Type
REMARK                         _______ _______ _______ _____ _____    ______ ____
ROOT
ATOM      1  C   UNL     1      49.352   7.916  14.070  0.00  0.00    +0.000 C 
ATOM      2  C   UNL     1      48.485   9.107  14.546  0.00  0.00    +0.000 C 
ATOM      3  C   UNL     1      50.500   8.463  13.189  0.00  0.00    +0.000 C 
ENDROOT
BRANCH   1   8
ATOM      4  C   UNL     1      49.721   5.503  17.064  0.00  0.00    +0.000 A 
ATOM      5  C   UNL     1      51.084   5.653  17.338  0.00  0.00    +0.000 A 
ATOM      6  C   UNL     1      51.862   6.569  16.633  0.00  0.00    +0.000 A 
ATOM      7  C   UNL     1      51.297   7.322  15.609  0.00  0.00    +0.000 A 
ATOM      8  C   UNL     1      49.936   7.201  15.298  0.00  0.00    +0.000 A 
ATOM      9  C   UNL     1      49.158   6.363  16.112  0.00  0.00    +0.000 A 
BRANCH   4  13
ATOM     10  N   UNL     1      47.625   5.630  20.223  0.00  0.00    +0.000 NA
ATOM     11  C   UNL     1      47.094   5.947  18.890  0.00  0.00    +0.000 C 
ATOM     12  C   UNL     1      47.338   4.868  17.836  0.00  0.00    +0.000 C 
ATOM     13  C   UNL     1      48.811   4.475  17.736  0.00  0.00    +0.000 C 
ATOM     14  C   UNL     1      49.269   4.083  19.156  0.00  0.00    +0.000 C 
ATOM     15  C   UNL     1      49.026   5.188  20.187  0.00  0.00    +0.000 C 
BRANCH  10  17
ATOM     16  C   UNL     1      47.936   8.096  20.445  0.00  0.00    +0.000 C 
ATOM     17  C   UNL     1      47.498   6.799  21.117  0.00  0.00    +0.000 C 
ENDBRANCH  10  17
ENDBRANCH   4  13
ENDBRANCH   1   8
BRANCH   1  18
ATOM     18  C   UNL     1      48.437   7.028  13.178  0.00  0.00    +0.000 C 
BRANCH  18  19
ATOM     19  N   UNL     1      46.994   7.121  13.479  0.00  0.00    +0.000 N 
ATOM     20  H   UNL     1      46.616   8.062  13.374  0.00  0.00    +0.000 HD
BRANCH  19  21
ATOM     21  C   UNL     1      46.179   6.133  12.894  0.00  0.00    +0.000 A 
ATOM     22  C   UNL     1      45.485   6.374  11.709  0.00  0.00    +0.000 A 
ATOM     23  C   UNL     1      44.757   5.366  11.097  0.00  0.00    +0.000 A 
ATOM     24  C   UNL     1      44.739   4.116  11.682  0.00  0.00    +0.000 A 
ATOM     25  N   UNL     1      45.401   3.812  12.835  0.00  0.00    +0.000 NA
ATOM     26  C   UNL     1      46.121   4.825  13.389  0.00  0.00    +0.000 A 
BRANCH  24  27
ATOM     27  C   UNL     1      43.987   3.007  11.015  0.00  0.00    +0.000 C 
ATOM     28  N   UNL     1      43.257   2.209  11.847  0.00  0.00    +0.000 N 
ATOM     29  O   UNL     1      44.041   2.809   9.812  0.00  0.00    +0.000 OA
ATOM     30  H   UNL     1      43.280   2.376  12.849  0.00  0.00    +0.000 HD
ATOM     31  H   UNL     1      42.780   1.406  11.467  0.00  0.00    +0.000 HD
ENDBRANCH  24  27
ENDBRANCH  19  21
ENDBRANCH  18  19
ENDBRANCH   1  18
TORSDOF 7
ENDMDL
MODEL 9
REMARK VINA RESULT:    -5.945      3.345      6.402
REMARK INTER + INTRA:          -9.657
REMARK INTER:                  -8.484
REMARK INTRA:                  -1.173
REMARK UNBOUND:                -1.278
REMARK  Name = 
REMARK  10 active torsions:
REMARK  status: ('A' for Active; 'I' for Inactive)
REMARK    1  A    between atoms: C_1  and  C_2
REMARK    2  A    between atoms: C_2  and  N_3
REMARK    3  A    between atoms: C_6  and  C_7
REMARK    4  A    between atoms: C_11  and  C_12
REMARK    5  A    between atoms: C_12  and  C_13
REMARK    6  A    between atoms: C_12  and  C_14
REMARK    7  A    between atoms: C_12  and  C_15
REMARK    8  A    between atoms: C_15  and  N_16
REMARK    9  A    between atoms: N_16  and  C_17
REMARK   10  A    between atoms: C_20  and  C_21
REMARK                            x       y       z     vdW  Elec       q    Type
REMARK                         _______ _______ _______ _____ _____    ______ ____
ROOT
ATOM      1  C   UNL     1      48.990   8.707  14.551  0.00  0.00    +0.000 C 
ATOM      2  C   UNL     1      49.048  10.215  14.207  0.00  0.00    +0.000 C 
ATOM      3  C   UNL     1      50.332   8.055  14.138  0.00  0.00    +0.000 C 
ENDROOT
BRANCH   1   8
ATOM      4  C   UNL     1      49.422   7.500  18.196  0.00  0.00    +0.000 A 
ATOM      5  C   UNL     1      48.654   8.457  18.867  0.00  0.00    +0.000 A 
ATOM      6  C   UNL     1      47.941   9.426  18.166  0.00  0.00    +0.000 A 
ATOM      7  C   UNL     1      48.020   9.484  16.778  0.00  0.00    +0.000 A 
ATOM      8  C   UNL     1      48.781   8.547  16.065  0.00  0.00    +0.000 A 
ATOM      9  C   UNL     1      49.382   7.511  16.796  0.00  0.00    +0.000 A 
BRANCH   4  13
ATOM     10  N   UNL     1      49.119   3.730  18.482  0.00  0.00    +0.000 NA
ATOM     11  C   UNL     1      49.907   4.399  17.439  0.00  0.00    +0.000 C 
ATOM     12  C   UNL     1      50.925   5.412  17.960  0.00  0.00    +0.000 C 
ATOM     13  C   UNL     1      50.291   6.449  18.886  0.00  0.00    +0.000 C 
ATOM     14  C   UNL     1      49.552   5.670  19.993  0.00  0.00    +0.000 C 
ATOM     15  C   UNL     1      48.529   4.675  19.441  0.00  0.00    +0.000 C 
BRANCH  10  17
ATOM     16  C   UNL     1      47.147   3.724  16.953  0.00  0.00    +0.000 C 
ATOM     17  C   UNL     1      48.051   2.910  17.874  0.00  0.00    +0.000 C 
ENDBRANCH  10  17
ENDBRANCH   4  13
ENDBRANCH   1   8
BRANCH   1  18
ATOM     18  C   UNL     1      47.862   8.092  13.673  0.00  0.00    +0.000 C 
BRANCH  18  19
ATOM     19  N   UNL     1      47.443   6.731  14.061  0.00  0.00    +0.000 N 
ATOM     20  H   UNL     1      47.216   6.641  15.051  0.00  0.00    +0.000 HD
BRANCH  19  21
ATOM     21  C   UNL     1      46.491   6.119  13.222  0.00  0.00    +0.000 A 
ATOM     22  C   UNL     1      46.123   6.691  12.005  0.00  0.00    +0.000 A 
ATOM     23  C   UNL     1      45.251   6.036  11.150  0.00  0.00    +0.000 A 
ATOM     24  C   UNL     1      44.760   4.801  11.525  0.00  0.00    +0.000 A 
ATOM     25  N   UNL     1      45.085   4.184  12.697  0.00  0.00    +0.000 NA
ATOM     26  C   UNL     1      45.961   4.852  13.496  0.00  0.00    +0.000 A 
BRANCH  24  27
ATOM     27  C   UNL     1      43.846   4.064  10.598  0.00  0.00    +0.000 C 
ATOM     28  N   UNL     1      43.918   4.432   9.286  0.00  0.00    +0.000 N 
ATOM     29  O   UNL     1      43.068   3.208  10.987  0.00  0.00    +0.000 OA
ATOM     30  H   UNL     1      44.542   5.185   9.010  0.00  0.00    +0.000 HD
ATOM     31  H   UNL     1      43.282   4.018   8.622  0.00  0.00    +0.000 HD
ENDBRANCH  24  27
ENDBRANCH  19  21
ENDBRANCH  18  19
ENDBRANCH   1  18
TORSDOF 7
ENDMDL
