MODEL 1
REMARK VINA RESULT:    -7.221      0.000      0.000
REMARK INTER + INTRA:         -10.108
REMARK INTER:                  -9.332
REMARK INTRA:                  -0.776
REMARK UNBOUND:                -0.776
REMARK  Name = 
REMARK  9 active torsions:
REMARK  status: ('A' for Active; 'I' for Inactive)
REMARK    1  A    between atoms: C_1  and  C_2
REMARK    2  A    between atoms: C_2  and  O_3
REMARK    3  A    between atoms: C_2  and  C_13
REMARK    4  A    between atoms: O_3  and  C_4
REMARK    5  A    between atoms: C_8  and  C_9
REMARK    6  A    between atoms: C_17  and  C_18
REMARK    7  A    between atoms: C_18  and  C_19
REMARK    8  A    between atoms: C_18  and  C_20
REMARK    9  A    between atoms: C_18  and  C_21
REMARK                            x       y       z     vdW  Elec       q    Type
REMARK                         _______ _______ _______ _____ _____    ______ ____
ROOT
ATOM      1  C   UNL     1      42.825   5.529  11.378  0.00  0.00    +0.000 C 
ATOM      2  C   UNL     1      44.015   4.624  11.036  0.00  0.00    +0.000 C 
ENDROOT
BRANCH   2   3
ATOM      3  C   UNL     1      45.145   4.944  12.004  0.00  0.00    +0.000 A 
ATOM      4  C   UNL     1      45.618   3.951  12.851  0.00  0.00    +0.000 A 
ATOM      5  C   UNL     1      46.704   4.240  13.658  0.00  0.00    +0.000 A 
ATOM      6  C   UNL     1      47.273   5.509  13.620  0.00  0.00    +0.000 A 
ATOM      7  C   UNL     1      46.733   6.485  12.783  0.00  0.00    +0.000 A 
ATOM      8  N   UNL     1      45.681   6.195  11.977  0.00  0.00    +0.000 NA
BRANCH   7   9
ATOM      9  C   UNL     1      47.329   7.897  12.690  0.00  0.00    +0.000 C 
ATOM     10  C   UNL     1      47.800   8.356  14.084  0.00  0.00    +0.000 C 
ATOM     11  C   UNL     1      48.540   7.888  11.732  0.00  0.00    +0.000 C 
ATOM     12  C   UNL     1      46.325   8.943  12.160  0.00  0.00    +0.000 C 
ENDBRANCH   7   9
ENDBRANCH   2   3
BRANCH   2  13
ATOM     13  O   UNL     1      44.468   4.832   9.676  0.00  0.00    +0.000 OA
BRANCH  13  14
ATOM     14  C   UNL     1      45.004   3.695   9.091  0.00  0.00    +0.000 A 
ATOM     15  C   UNL     1      44.610   2.434   9.550  0.00  0.00    +0.000 A 
ATOM     16  N   UNL     1      45.112   1.275   9.038  0.00  0.00    +0.000 NA
ATOM     17  C   UNL     1      45.997   1.431   8.021  0.00  0.00    +0.000 A 
ATOM     18  C   UNL     1      46.375   2.687   7.551  0.00  0.00    +0.000 A 
ATOM     19  N   UNL     1      45.914   3.845   8.096  0.00  0.00    +0.000 NA
BRANCH  18  20
ATOM     20  C   UNL     1      47.253   2.797   6.350  0.00  0.00    +0.000 C 
ATOM     21  N   UNL     1      48.578   2.493   6.464  0.00  0.00    +0.000 N 
ATOM     22  O   UNL     1      46.798   3.180   5.273  0.00  0.00    +0.000 OA
ATOM     23  H   UNL     1      49.007   2.154   7.324  0.00  0.00    +0.000 HD
ATOM     24  H   UNL     1      49.158   2.563   5.633  0.00  0.00    +0.000 HD
ENDBRANCH  18  20
ENDBRANCH  13  14
ENDBRANCH   2  13
TORSDOF 5
ENDMDL
MODEL 2
REMARK VINA RESULT:    -7.128      1.440      2.407
REMARK INTER + INTRA:          -9.988
REMARK INTER:                  -9.733
REMARK INTRA:                  -0.255
REMARK UNBOUND:                -0.776
REMARK  Name = 
REMARK  9 active torsions:
REMARK  status: ('A' for Active; 'I' for Inactive)
REMARK    1  A    between atoms: C_1  and  C_2
REMARK    2  A    between atoms: C_2  and  O_3
REMARK    3  A    between atoms: C_2  and  C_13
REMARK    4  A    between atoms: O_3  and  C_4
REMARK    5  A    between atoms: C_8  and  C_9
REMARK    6  A    between atoms: C_17  and  C_18
REMARK    7  A    between atoms: C_18  and  C_19
REMARK    8  A    between atoms: C_18  and  C_20
REMARK    9  A    between atoms: C_18  and  C_21
REMARK                            x       y       z     vdW  Elec       q    Type
REMARK                         _______ _______ _______ _____ _____    ______ ____
ROOT
ATOM      1  C   UNL     1      43.588   2.942  12.641  0.00  0.00    +0.000 C 
ATOM      2  C   UNL     1      44.515   3.424  11.517  0.00  0.00    +0.000 C 
ENDROOT
BRANCH   2   3
ATOM      3  C   UNL     1      44.683   4.930  11.657  0.00  0.00    +0.000 A 
ATOM      4  C   UNL     1      43.607   5.763  11.388  0.00  0.00    +0.000 A 
ATOM      5  C   UNL     1      43.757   7.121  11.608  0.00  0.00    +0.000 A 
ATOM      6  C   UNL     1      44.976   7.615  12.064  0.00  0.00    +0.000 A 
ATOM      7  C   UNL     1      46.041   6.741  12.277  0.00  0.00    +0.000 A 
ATOM      8  N   UNL     1      45.886   5.407  12.082  0.00  0.00    +0.000 NA
BRANCH   7   9
ATOM      9  C   UNL     1      47.402   7.228  12.794  0.00  0.00    +0.000 C 
ATOM     10  C   UNL     1      47.216   8.519  13.615  0.00  0.00    +0.000 C 
ATOM     11  C   UNL     1      48.032   6.147  13.699  0.00  0.00    +0.000 C 
ATOM     12  C   UNL     1      48.407   7.527  11.661  0.00  0.00    +0.000 C 
ENDBRANCH   7   9
ENDBRANCH   2   3
BRANCH   2  13
ATOM     13  O   UNL     1      43.969   3.117  10.210  0.00  0.00    +0.000 OA
BRANCH  13  14
ATOM     14  C   UNL     1      44.905   3.191   9.190  0.00  0.00    +0.000 A 
ATOM     15  C   UNL     1      45.258   4.440   8.669  0.00  0.00    +0.000 A 
ATOM     16  N   UNL     1      46.153   4.586   7.651  0.00  0.00    +0.000 NA
ATOM     17  C   UNL     1      46.708   3.431   7.203  0.00  0.00    +0.000 A 
ATOM     18  C   UNL     1      46.371   2.189   7.735  0.00  0.00    +0.000 A 
ATOM     19  N   UNL     1      45.439   2.037   8.716  0.00  0.00    +0.000 NA
BRANCH  18  20
ATOM     20  C   UNL     1      47.102   0.967   7.292  0.00  0.00    +0.000 C 
ATOM     21  N   UNL     1      46.658  -0.258   7.694  0.00  0.00    +0.000 N 
ATOM     22  O   UNL     1      48.110   1.059   6.591  0.00  0.00    +0.000 OA
ATOM     23  H   UNL     1      45.821  -0.397   8.259  0.00  0.00    +0.000 HD
ATOM     24  H   UNL     1      47.162  -1.079   7.372  0.00  0.00    +0.000 HD
ENDBRANCH  18  20
ENDBRANCH  13  14
ENDBRANCH   2  13
TORSDOF 5
ENDMDL
MODEL 3
REMARK VINA RESULT:    -6.470      3.397      4.915
REMARK INTER + INTRA:          -9.138
REMARK INTER:                  -8.422
REMARK INTRA:                  -0.715
REMARK UNBOUND:                -0.776
REMARK  Name = 
REMARK  9 active torsions:
REMARK  status: ('A' for Active; 'I' for Inactive)
REMARK    1  A    between atoms: C_1  and  C_2
REMARK    2  A    between atoms: C_2  and  O_3
REMARK    3  A    between atoms: C_2  and  C_13
REMARK    4  A    between atoms: O_3  and  C_4
REMARK    5  A    between atoms: C_8  and  C_9
REMARK    6  A    between atoms: C_17  and  C_18
REMARK    7  A    between atoms: C_18  and  C_19
REMARK    8  A    between atoms: C_18  and  C_20
REMARK    9  A    between atoms: C_18  and  C_21
REMARK                            x       y       z     vdW  Elec       q    Type
REMARK                         _______ _______ _______ _____ _____    ______ ____
ROOT
ATOM      1  C   UNL     1      47.644   5.781  13.406  0.00  0.00    +0.000 C 
ATOM      2  C   UNL     1      46.725   4.999  14.354  0.00  0.00    +0.000 C 
ENDROOT
BRANCH   2   3
ATOM      3  C   UNL     1      47.514   4.676  15.615  0.00  0.00    +0.000 A 
ATOM      4  C   UNL     1      47.098   3.633  16.429  0.00  0.00    +0.000 A 
ATOM      5  C   UNL     1      47.880   3.301  17.521  0.00  0.00    +0.000 A 
ATOM      6  C   UNL     1      49.036   4.029  17.788  0.00  0.00    +0.000 A 
ATOM      7  C   UNL     1      49.387   5.097  16.964  0.00  0.00    +0.000 A 
ATOM      8  N   UNL     1      48.631   5.409  15.882  0.00  0.00    +0.000 NA
BRANCH   7   9
ATOM      9  C   UNL     1      50.658   5.925  17.202  0.00  0.00    +0.000 C 
ATOM     10  C   UNL     1      50.488   6.789  18.466  0.00  0.00    +0.000 C 
ATOM     11  C   UNL     1      51.863   4.980  17.402  0.00  0.00    +0.000 C 
ATOM     12  C   UNL     1      50.996   6.866  16.025  0.00  0.00    +0.000 C 
ENDBRANCH   7   9
ENDBRANCH   2   3
BRANCH   2  13
ATOM     13  O   UNL     1      46.257   3.770  13.747  0.00  0.00    +0.000 OA
BRANCH  13  14
ATOM     14  C   UNL     1      45.208   3.956  12.861  0.00  0.00    +0.000 A 
ATOM     15  C   UNL     1      44.086   4.687  13.266  0.00  0.00    +0.000 A 
ATOM     16  N   UNL     1      43.009   4.889  12.455  0.00  0.00    +0.000 NA
ATOM     17  C   UNL     1      43.119   4.362  11.210  0.00  0.00    +0.000 A 
ATOM     18  C   UNL     1      44.244   3.651  10.800  0.00  0.00    +0.000 A 
ATOM     19  N   UNL     1      45.297   3.403  11.625  0.00  0.00    +0.000 NA
BRANCH  18  20
ATOM     20  C   UNL     1      44.364   3.202   9.383  0.00  0.00    +0.000 C 
ATOM     21  N   UNL     1      44.177   4.108   8.380  0.00  0.00    +0.000 N 
ATOM     22  O   UNL     1      44.606   2.026   9.115  0.00  0.00    +0.000 OA
ATOM     23  H   UNL     1      43.993   5.097   8.540  0.00  0.00    +0.000 HD
ATOM     24  H   UNL     1      44.274   3.786   7.421  0.00  0.00    +0.000 HD
ENDBRANCH  18  20
ENDBRANCH  13  14
ENDBRANCH   2  13
TORSDOF 5
ENDMDL
MODEL 4
REMARK VINA RESULT:    -6.441      3.187      5.263
REMARK INTER + INTRA:          -9.101
REMARK INTER:                  -8.409
REMARK INTRA:                  -0.691
REMARK UNBOUND:                -0.776
REMARK  Name = 
REMARK  9 active torsions:
REMARK  status: ('A' for Active; 'I' for Inactive)
REMARK    1  A    between atoms: C_1  and  C_2
REMARK    2  A    between atoms: C_2  and  O_3
REMARK    3  A    between atoms: C_2  and  C_13
REMARK    4  A    between atoms: O_3  and  C_4
REMARK    5  A    between atoms: C_8  and  C_9
REMARK    6  A    between atoms: C_17  and  C_18
REMARK    7  A    between atoms: C_18  and  C_19
REMARK    8  A    between atoms: C_18  and  C_20
REMARK    9  A    between atoms: C_18  and  C_21
REMARK                            x       y       z     vdW  Elec       q    Type
REMARK                         _______ _______ _______ _____ _____    ______ ____
ROOT
ATOM      1  C   UNL     1      47.698   6.311  12.510  0.00  0.00    +0.000 C 
ATOM      2  C   UNL     1      46.947   5.810  13.751  0.00  0.00    +0.000 C 
ENDROOT
BRANCH   2   3
ATOM      3  C   UNL     1      47.913   5.830  14.927  0.00  0.00    +0.000 A 
ATOM      4  C   UNL     1      48.726   6.937  15.122  0.00  0.00    +0.000 A 
ATOM      5  C   UNL     1      49.530   6.971  16.246  0.00  0.00    +0.000 A 
ATOM      6  C   UNL     1      49.524   5.896  17.131  0.00  0.00    +0.000 A 
ATOM      7  C   UNL     1      48.722   4.787  16.867  0.00  0.00    +0.000 A 
ATOM      8  N   UNL     1      47.918   4.764  15.775  0.00  0.00    +0.000 NA
BRANCH   7   9
ATOM      9  C   UNL     1      48.665   3.580  17.815  0.00  0.00    +0.000 C 
ATOM     10  C   UNL     1      47.317   2.852  17.649  0.00  0.00    +0.000 C 
ATOM     11  C   UNL     1      49.808   2.599  17.477  0.00  0.00    +0.000 C 
ATOM     12  C   UNL     1      48.813   3.972  19.301  0.00  0.00    +0.000 C 
ENDBRANCH   7   9
ENDBRANCH   2   3
BRANCH   2  13
ATOM     13  O   UNL     1      46.443   4.465  13.561  0.00  0.00    +0.000 OA
BRANCH  13  14
ATOM     14  C   UNL     1      45.312   4.407  12.761  0.00  0.00    +0.000 A 
ATOM     15  C   UNL     1      44.126   5.004  13.202  0.00  0.00    +0.000 A 
ATOM     16  N   UNL     1      42.971   4.966  12.479  0.00  0.00    +0.000 NA
ATOM     17  C   UNL     1      43.064   4.339  11.279  0.00  0.00    +0.000 A 
ATOM     18  C   UNL     1      44.250   3.762  10.832  0.00  0.00    +0.000 A 
ATOM     19  N   UNL     1      45.389   3.753  11.575  0.00  0.00    +0.000 NA
BRANCH  18  20
ATOM     20  C   UNL     1      44.327   3.197   9.454  0.00  0.00    +0.000 C 
ATOM     21  N   UNL     1      44.181   4.030   8.383  0.00  0.00    +0.000 N 
ATOM     22  O   UNL     1      44.497   1.990   9.279  0.00  0.00    +0.000 OA
ATOM     23  H   UNL     1      44.057   5.038   8.465  0.00  0.00    +0.000 HD
ATOM     24  H   UNL     1      44.248   3.628   7.452  0.00  0.00    +0.000 HD
ENDBRANCH  18  20
ENDBRANCH  13  14
ENDBRANCH   2  13
TORSDOF 5
ENDMDL
MODEL 5
REMARK VINA RESULT:    -6.282      3.803      7.465
REMARK INTER + INTRA:          -8.895
REMARK INTER:                  -8.082
REMARK INTRA:                  -0.813
REMARK UNBOUND:                -0.776
REMARK  Name = 
REMARK  9 active torsions:
REMARK  status: ('A' for Active; 'I' for Inactive)
REMARK    1  A    between atoms: C_1  and  C_2
REMARK    2  A    between atoms: C_2  and  O_3
REMARK    3  A    between atoms: C_2  and  C_13
REMARK    4  A    between atoms: O_3  and  C_4
REMARK    5  A    between atoms: C_8  and  C_9
REMARK    6  A    between atoms: C_17  and  C_18
REMARK    7  A    between atoms: C_18  and  C_19
REMARK    8  A    between atoms: C_18  and  C_20
REMARK    9  A    between atoms: C_18  and  C_21
REMARK                            x       y       z     vdW  Elec       q    Type
REMARK                         _______ _______ _______ _____ _____    ______ ____
ROOT
ATOM      1  C   UNL     1      49.399   7.315  12.184  0.00  0.00    +0.000 C 
ATOM      2  C   UNL     1      48.406   6.775  13.223  0.00  0.00    +0.000 C 
ENDROOT
BRANCH   2   3
ATOM      3  C   UNL     1      47.008   6.865  12.630  0.00  0.00    +0.000 A 
ATOM      4  C   UNL     1      46.420   8.110  12.458  0.00  0.00    +0.000 A 
ATOM      5  C   UNL     1      45.186   8.172  11.836  0.00  0.00    +0.000 A 
ATOM      6  C   UNL     1      44.560   6.998  11.426  0.00  0.00    +0.000 A 
ATOM      7  C   UNL     1      45.173   5.768  11.661  0.00  0.00    +0.000 A 
ATOM      8  N   UNL     1      46.393   5.709  12.252  0.00  0.00    +0.000 NA
BRANCH   7   9
ATOM      9  C   UNL     1      44.536   4.444  11.217  0.00  0.00    +0.000 C 
ATOM     10  C   UNL     1      45.153   3.277  12.012  0.00  0.00    +0.000 C 
ATOM     11  C   UNL     1      43.016   4.482  11.484  0.00  0.00    +0.000 C 
ATOM     12  C   UNL     1      44.736   4.151   9.714  0.00  0.00    +0.000 C 
ENDBRANCH   7   9
ENDBRANCH   2   3
BRANCH   2  13
ATOM     13  O   UNL     1      48.460   7.535  14.455  0.00  0.00    +0.000 OA
BRANCH  13  14
ATOM     14  C   UNL     1      48.602   6.746  15.585  0.00  0.00    +0.000 A 
ATOM     15  C   UNL     1      49.054   7.323  16.776  0.00  0.00    +0.000 A 
ATOM     16  N   UNL     1      49.237   6.603  17.919  0.00  0.00    +0.000 NA
ATOM     17  C   UNL     1      48.913   5.288  17.829  0.00  0.00    +0.000 A 
ATOM     18  C   UNL     1      48.444   4.717  16.648  0.00  0.00    +0.000 A 
ATOM     19  N   UNL     1      48.310   5.424  15.493  0.00  0.00    +0.000 NA
BRANCH  18  20
ATOM     20  C   UNL     1      47.985   3.298  16.640  0.00  0.00    +0.000 C 
ATOM     21  N   UNL     1      46.993   2.915  17.494  0.00  0.00    +0.000 N 
ATOM     22  O   UNL     1      48.508   2.474  15.891  0.00  0.00    +0.000 OA
ATOM     23  H   UNL     1      46.511   3.555  18.123  0.00  0.00    +0.000 HD
ATOM     24  H   UNL     1      46.685   1.947  17.466  0.00  0.00    +0.000 HD
ENDBRANCH  18  20
ENDBRANCH  13  14
ENDBRANCH   2  13
TORSDOF 5
ENDMDL
MODEL 6
REMARK VINA RESULT:    -6.168      4.493      7.558
REMARK INTER + INTRA:          -8.748
REMARK INTER:                  -7.965
REMARK INTRA:                  -0.783
REMARK UNBOUND:                -0.776
REMARK  Name = 
REMARK  9 active torsions:
REMARK  status: ('A' for Active; 'I' for Inactive)
REMARK    1  A    between atoms: C_1  and  C_2
REMARK    2  A    between atoms: C_2  and  O_3
REMARK    3  A    between atoms: C_2  and  C_13
REMARK    4  A    between atoms: O_3  and  C_4
REMARK    5  A    between atoms: C_8  and  C_9
REMARK    6  A    between atoms: C_17  and  C_18
REMARK    7  A    between atoms: C_18  and  C_19
REMARK    8  A    between atoms: C_18  and  C_20
REMARK    9  A    between atoms: C_18  and  C_21
REMARK                            x       y       z     vdW  Elec       q    Type
REMARK                         _______ _______ _______ _____ _____    ______ ____
ROOT
ATOM      1  C   UNL     1      49.834   7.624  14.485  0.00  0.00    +0.000 C 
ATOM      2  C   UNL     1      48.766   6.551  14.737  0.00  0.00    +0.000 C 
ENDROOT
BRANCH   2   3
ATOM      3  C   UNL     1      47.519   6.934  13.954  0.00  0.00    +0.000 A 
ATOM      4  C   UNL     1      47.264   8.272  13.690  0.00  0.00    +0.000 A 
ATOM      5  C   UNL     1      46.174   8.589  12.901  0.00  0.00    +0.000 A 
ATOM      6  C   UNL     1      45.353   7.574  12.418  0.00  0.00    +0.000 A 
ATOM      7  C   UNL     1      45.626   6.247  12.749  0.00  0.00    +0.000 A 
ATOM      8  N   UNL     1      46.708   5.935  13.505  0.00  0.00    +0.000 NA
BRANCH   7   9
ATOM      9  C   UNL     1      44.765   5.086  12.232  0.00  0.00    +0.000 C 
ATOM     10  C   UNL     1      45.435   3.744  12.583  0.00  0.00    +0.000 C 
ATOM     11  C   UNL     1      43.371   5.137  12.895  0.00  0.00    +0.000 C 
ATOM     12  C   UNL     1      44.552   5.125  10.703  0.00  0.00    +0.000 C 
ENDBRANCH   7   9
ENDBRANCH   2   3
BRANCH   2  13
ATOM     13  O   UNL     1      48.441   6.446  16.145  0.00  0.00    +0.000 OA
BRANCH  13  14
ATOM     14  C   UNL     1      48.356   5.137  16.596  0.00  0.00    +0.000 A 
ATOM     15  C   UNL     1      47.098   4.563  16.810  0.00  0.00    +0.000 A 
ATOM     16  N   UNL     1      46.940   3.291  17.273  0.00  0.00    +0.000 NA
ATOM     17  C   UNL     1      48.093   2.605  17.476  0.00  0.00    +0.000 A 
ATOM     18  C   UNL     1      49.345   3.171  17.245  0.00  0.00    +0.000 A 
ATOM     19  N   UNL     1      49.506   4.457  16.832  0.00  0.00    +0.000 NA
BRANCH  18  20
ATOM     20  C   UNL     1      50.573   2.332  17.365  0.00  0.00    +0.000 C 
ATOM     21  N   UNL     1      51.586   2.747  18.179  0.00  0.00    +0.000 N 
ATOM     22  O   UNL     1      50.686   1.289  16.722  0.00  0.00    +0.000 OA
ATOM     23  H   UNL     1      51.542   3.591  18.749  0.00  0.00    +0.000 HD
ATOM     24  H   UNL     1      52.409   2.157  18.257  0.00  0.00    +0.000 HD
ENDBRANCH  18  20
ENDBRANCH  13  14
ENDBRANCH   2  13
TORSDOF 5
ENDMDL
MODEL 7
REMARK VINA RESULT:    -6.165      2.470      4.113
REMARK INTER + INTRA:          -8.744
REMARK INTER:                  -8.010
REMARK INTRA:                  -0.733
REMARK UNBOUND:                -0.776
REMARK  Name = 
REMARK  9 active torsions:
REMARK  status: ('A' for Active; 'I' for Inactive)
REMARK    1  A    between atoms: C_1  and  C_2
REMARK    2  A    between atoms: C_2  and  O_3
REMARK    3  A    between atoms: C_2  and  C_13
REMARK    4  A    between atoms: O_3  and  C_4
REMARK    5  A    between atoms: C_8  and  C_9
REMARK    6  A    between atoms: C_17  and  C_18
REMARK    7  A    between atoms: C_18  and  C_19
REMARK    8  A    between atoms: C_18  and  C_20
REMARK    9  A    between atoms: C_18  and  C_21
REMARK                            x       y       z     vdW  Elec       q    Type
REMARK                         _______ _______ _______ _____ _____    ______ ____
ROOT
ATOM      1  C   UNL     1      47.165   4.712  15.095  0.00  0.00    +0.000 C 
ATOM      2  C   UNL     1      47.024   5.132  13.626  0.00  0.00    +0.000 C 
ENDROOT
BRANCH   2   3
ATOM      3  C   UNL     1      48.006   6.264  13.362  0.00  0.00    +0.000 A 
ATOM      4  C   UNL     1      47.900   6.997  12.188  0.00  0.00    +0.000 A 
ATOM      5  C   UNL     1      48.746   8.077  12.011  0.00  0.00    +0.000 A 
ATOM      6  C   UNL     1      49.687   8.384  12.990  0.00  0.00    +0.000 A 
ATOM      7  C   UNL     1      49.782   7.590  14.131  0.00  0.00    +0.000 A 
ATOM      8  N   UNL     1      48.939   6.543  14.314  0.00  0.00    +0.000 NA
BRANCH   7   9
ATOM      9  C   UNL     1      50.791   7.890  15.250  0.00  0.00    +0.000 C 
ATOM     10  C   UNL     1      50.860   6.697  16.222  0.00  0.00    +0.000 C 
ATOM     11  C   UNL     1      52.190   8.120  14.640  0.00  0.00    +0.000 C 
ATOM     12  C   UNL     1      50.429   9.149  16.067  0.00  0.00    +0.000 C 
ENDBRANCH   7   9
ENDBRANCH   2   3
BRANCH   2  13
ATOM     13  O   UNL     1      45.678   5.577  13.326  0.00  0.00    +0.000 OA
BRANCH  13  14
ATOM     14  C   UNL     1      45.017   4.766  12.417  0.00  0.00    +0.000 A 
ATOM     15  C   UNL     1      43.988   3.930  12.862  0.00  0.00    +0.000 A 
ATOM     16  N   UNL     1      43.311   3.090  12.029  0.00  0.00    +0.000 NA
ATOM     17  C   UNL     1      43.681   3.151  10.725  0.00  0.00    +0.000 A 
ATOM     18  C   UNL     1      44.694   3.998  10.279  0.00  0.00    +0.000 A 
ATOM     19  N   UNL     1      45.406   4.798  11.117  0.00  0.00    +0.000 NA
BRANCH  18  20
ATOM     20  C   UNL     1      44.974   4.115   8.819  0.00  0.00    +0.000 C 
ATOM     21  N   UNL     1      44.323   3.291   7.947  0.00  0.00    +0.000 N 
ATOM     22  O   UNL     1      45.800   4.926   8.401  0.00  0.00    +0.000 OA
ATOM     23  H   UNL     1      43.617   2.614   8.232  0.00  0.00    +0.000 HD
ATOM     24  H   UNL     1      44.518   3.394   6.955  0.00  0.00    +0.000 HD
ENDBRANCH  18  20
ENDBRANCH  13  14
ENDBRANCH   2  13
TORSDOF 5
ENDMDL
MODEL 8
REMARK VINA RESULT:    -6.155      3.377      6.056
REMARK INTER + INTRA:          -8.730
REMARK INTER:                  -7.971
REMARK INTRA:                  -0.760
REMARK UNBOUND:                -0.776
REMARK  Name = 
REMARK  9 active torsions:
REMARK  status: ('A' for Active; 'I' for Inactive)
REMARK    1  A    between atoms: C_1  and  C_2
REMARK    2  A    between atoms: C_2  and  O_3
REMARK    3  A    between atoms: C_2  and  C_13
REMARK    4  A    between atoms: O_3  and  C_4
REMARK    5  A    between atoms: C_8  and  C_9
REMARK    6  A    between atoms: C_17  and  C_18
REMARK    7  A    between atoms: C_18  and  C_19
REMARK    8  A    between atoms: C_18  and  C_20
REMARK    9  A    between atoms: C_18  and  C_21
REMARK                            x       y       z     vdW  Elec       q    Type
REMARK                         _______ _______ _______ _____ _____    ______ ____
ROOT
ATOM      1  C   UNL     1      49.545   7.353  13.041  0.00  0.00    +0.000 C 
ATOM      2  C   UNL     1      48.295   6.884  13.798  0.00  0.00    +0.000 C 
ENDROOT
BRANCH   2   3
ATOM      3  C   UNL     1      48.658   6.749  15.270  0.00  0.00    +0.000 A 
ATOM      4  C   UNL     1      49.003   7.882  15.992  0.00  0.00    +0.000 A 
ATOM      5  C   UNL     1      49.242   7.749  17.348  0.00  0.00    +0.000 A 
ATOM      6  C   UNL     1      49.156   6.493  17.943  0.00  0.00    +0.000 A 
ATOM      7  C   UNL     1      48.849   5.378  17.164  0.00  0.00    +0.000 A 
ATOM      8  N   UNL     1      48.595   5.513  15.839  0.00  0.00    +0.000 NA
BRANCH   7   9
ATOM      9  C   UNL     1      48.727   3.972  17.769  0.00  0.00    +0.000 C 
ATOM     10  C   UNL     1      47.472   3.273  17.213  0.00  0.00    +0.000 C 
ATOM     11  C   UNL     1      49.971   3.136  17.397  0.00  0.00    +0.000 C 
ATOM     12  C   UNL     1      48.620   3.984  19.310  0.00  0.00    +0.000 C 
ENDBRANCH   7   9
ENDBRANCH   2   3
BRANCH   2  13
ATOM     13  O   UNL     1      47.818   5.610  13.298  0.00  0.00    +0.000 OA
BRANCH  13  14
ATOM     14  C   UNL     1      46.541   5.671  12.763  0.00  0.00    +0.000 A 
ATOM     15  C   UNL     1      45.984   6.915  12.448  0.00  0.00    +0.000 A 
ATOM     16  N   UNL     1      44.727   7.051  11.940  0.00  0.00    +0.000 NA
ATOM     17  C   UNL     1      44.064   5.886  11.725  0.00  0.00    +0.000 A 
ATOM     18  C   UNL     1      44.625   4.646  12.021  0.00  0.00    +0.000 A 
ATOM     19  N   UNL     1      45.860   4.512  12.577  0.00  0.00    +0.000 NA
BRANCH  18  20
ATOM     20  C   UNL     1      43.903   3.396  11.649  0.00  0.00    +0.000 C 
ATOM     21  N   UNL     1      43.780   2.398  12.572  0.00  0.00    +0.000 N 
ATOM     22  O   UNL     1      43.440   3.251  10.518  0.00  0.00    +0.000 OA
ATOM     23  H   UNL     1      44.126   2.467  13.528  0.00  0.00    +0.000 HD
ATOM     24  H   UNL     1      43.274   1.558  12.304  0.00  0.00    +0.000 HD
ENDBRANCH  18  20
ENDBRANCH  13  14
ENDBRANCH   2  13
TORSDOF 5
ENDMDL
MODEL 9
REMARK VINA RESULT:    -5.960      2.308      4.281
REMARK INTER + INTRA:          -8.478
REMARK INTER:                  -7.800
REMARK INTRA:                  -0.678
REMARK UNBOUND:                -0.776
REMARK  Name = 
REMARK  9 active torsions:
REMARK  status: ('A' for Active; 'I' for Inactive)
REMARK    1  A    between atoms: C_1  and  C_2
REMARK    2  A    between atoms: C_2  and  O_3
REMARK    3  A    between atoms: C_2  and  C_13
REMARK    4  A    between atoms: O_3  and  C_4
REMARK    5  A    between atoms: C_8  and  C_9
REMARK    6  A    between atoms: C_17  and  C_18
REMARK    7  A    between atoms: C_18  and  C_19
REMARK    8  A    between atoms: C_18  and  C_20
REMARK    9  A    between atoms: C_18  and  C_21
REMARK                            x       y       z     vdW  Elec       q    Type
REMARK                         _______ _______ _______ _____ _____    ______ ____
ROOT
ATOM      1  C   UNL     1      47.465   5.818  13.794  0.00  0.00    +0.000 C 
ATOM      2  C   UNL     1      46.929   6.268  12.428  0.00  0.00    +0.000 C 
ENDROOT
BRANCH   2   3
ATOM      3  C   UNL     1      47.511   7.640  12.122  0.00  0.00    +0.000 A 
ATOM      4  C   UNL     1      46.678   8.749  12.126  0.00  0.00    +0.000 A 
ATOM      5  C   UNL     1      47.244   9.996  11.933  0.00  0.00    +0.000 A 
ATOM      6  C   UNL     1      48.615  10.105  11.717  0.00  0.00    +0.000 A 
ATOM      7  C   UNL     1      49.403   8.956  11.678  0.00  0.00    +0.000 A 
ATOM      8  N   UNL     1      48.850   7.735  11.888  0.00  0.00    +0.000 NA
BRANCH   7   9
ATOM      9  C   UNL     1      50.921   9.017  11.458  0.00  0.00    +0.000 C 
ATOM     10  C   UNL     1      51.639   9.133  12.816  0.00  0.00    +0.000 C 
ATOM     11  C   UNL     1      51.396   7.730  10.750  0.00  0.00    +0.000 C 
ATOM     12  C   UNL     1      51.357  10.215  10.586  0.00  0.00    +0.000 C 
ENDBRANCH   7   9
ENDBRANCH   2   3
BRANCH   2  13
ATOM     13  O   UNL     1      45.482   6.343  12.423  0.00  0.00    +0.000 OA
BRANCH  13  14
ATOM     14  C   UNL     1      44.868   5.138  12.117  0.00  0.00    +0.000 A 
ATOM     15  C   UNL     1      44.078   4.504  13.081  0.00  0.00    +0.000 A 
ATOM     16  N   UNL     1      43.463   3.308  12.857  0.00  0.00    +0.000 NA
ATOM     17  C   UNL     1      43.642   2.793  11.615  0.00  0.00    +0.000 A 
ATOM     18  C   UNL     1      44.413   3.434  10.648  0.00  0.00    +0.000 A 
ATOM     19  N   UNL     1      45.070   4.601  10.887  0.00  0.00    +0.000 NA
BRANCH  18  20
ATOM     20  C   UNL     1      44.473   2.886   9.263  0.00  0.00    +0.000 C 
ATOM     21  N   UNL     1      44.351   3.738   8.204  0.00  0.00    +0.000 N 
ATOM     22  O   UNL     1      44.608   1.678   9.070  0.00  0.00    +0.000 OA
ATOM     23  H   UNL     1      44.256   4.748   8.300  0.00  0.00    +0.000 HD
ATOM     24  H   UNL     1      44.407   3.348   7.267  0.00  0.00    +0.000 HD
ENDBRANCH  18  20
ENDBRANCH  13  14
ENDBRANCH   2  13
TORSDOF 5
ENDMDL
