MODEL 1
REMARK VINA RESULT:    -9.108      0.000      0.000
REMARK INTER + INTRA:         -12.513
REMARK INTER:                 -11.770
REMARK INTRA:                  -0.743
REMARK UNBOUND:                -0.743
REMARK  Name = 
REMARK  5 active torsions:
REMARK  status: ('A' for Active; 'I' for Inactive)
REMARK    1  A    between atoms: C_2  and  C_4
REMARK    2  A    between atoms: C_7  and  N_8
REMARK    3  A    between atoms: N_8  and  C_9
REMARK    4  A    between atoms: C_9  and  C_10
REMARK    5  A    between atoms: C_12  and  C_13
REMARK                            x       y       z     vdW  Elec       q    Type
REMARK                         _______ _______ _______ _____ _____    ______ ____
ROOT
ATOM      1  C   UNL     1      43.837   5.003  11.298  0.00  0.00    +0.000 C 
ATOM      2  C   UNL     1      42.993   4.018  12.095  0.00  0.00    +0.000 C 
ATOM      3  C   UNL     1      42.561   5.441  12.014  0.00  0.00    +0.000 C 
ENDROOT
BRANCH   1   4
ATOM      4  C   UNL     1      45.119   5.608  11.897  0.00  0.00    +0.000 A 
ATOM      5  C   UNL     1      45.654   5.079  13.084  0.00  0.00    +0.000 A 
ATOM      6  C   UNL     1      46.882   5.527  13.600  0.00  0.00    +0.000 A 
ATOM      7  C   UNL     1      47.531   6.532  12.873  0.00  0.00    +0.000 A 
ATOM      8  C   UNL     1      46.938   7.030  11.724  0.00  0.00    +0.000 A 
ATOM      9  N   UNL     1      45.765   6.593  11.226  0.00  0.00    +0.000 NA
BRANCH   6  10
ATOM     10  C   UNL     1      47.467   4.955  14.829  0.00  0.00    +0.000 A 
ATOM     11  C   UNL     1      48.396   5.613  15.621  0.00  0.00    +0.000 A 
ATOM     12  N   UNL     1      48.944   5.117  16.754  0.00  0.00    +0.000 NA
ATOM     13  C   UNL     1      48.530   3.895  17.112  0.00  0.00    +0.000 A 
ATOM     14  N   UNL     1      47.638   3.148  16.450  0.00  0.00    +0.000 NA
ATOM     15  C   UNL     1      47.135   3.700  15.321  0.00  0.00    +0.000 A 
ENDBRANCH   6  10
ENDBRANCH   1   4
BRANCH   1  16
ATOM     16  N   UNL     1      43.851   4.877   9.820  0.00  0.00    +0.000 N 
ATOM     17  H   UNL     1      42.968   4.996   9.331  0.00  0.00    +0.000 HD
BRANCH  16  21
ATOM     18  C   UNL     1      46.481   2.297   7.727  0.00  0.00    +0.000 A 
ATOM     19  C   UNL     1      45.570   1.762   8.639  0.00  0.00    +0.000 A 
ATOM     20  C   UNL     1      44.728   2.610   9.364  0.00  0.00    +0.000 A 
ATOM     21  C   UNL     1      44.720   3.992   9.142  0.00  0.00    +0.000 A 
ATOM     22  C   UNL     1      45.685   4.521   8.273  0.00  0.00    +0.000 A 
ATOM     23  C   UNL     1      46.567   3.683   7.577  0.00  0.00    +0.000 A 
BRANCH  18  25
ATOM     24  N   UNL     1      48.435   2.015   6.303  0.00  0.00    +0.000 N 
ATOM     25  C   UNL     1      47.380   1.422   6.939  0.00  0.00    +0.000 C 
ATOM     26  O   UNL     1      47.214   0.207   6.889  0.00  0.00    +0.000 OA
ATOM     27  H   UNL     1      49.096   1.398   5.850  0.00  0.00    +0.000 HD
ATOM     28  H   UNL     1      48.740   2.951   6.525  0.00  0.00    +0.000 HD
ENDBRANCH  18  25
ENDBRANCH  16  21
ENDBRANCH   1  16
TORSDOF 5
ENDMDL
MODEL 2
REMARK VINA RESULT:    -8.868      1.818      3.500
REMARK INTER + INTRA:         -12.203
REMARK INTER:                 -11.330
REMARK INTRA:                  -0.873
REMARK UNBOUND:                -0.743
REMARK  Name = 
REMARK  5 active torsions:
REMARK  status: ('A' for Active; 'I' for Inactive)
REMARK    1  A    between atoms: C_2  and  C_4
REMARK    2  A    between atoms: C_7  and  N_8
REMARK    3  A    between atoms: N_8  and  C_9
REMARK    4  A    between atoms: C_9  and  C_10
REMARK    5  A    between atoms: C_12  and  C_13
REMARK                            x       y       z     vdW  Elec       q    Type
REMARK                         _______ _______ _______ _____ _____    ______ ____
ROOT
ATOM      1  C   UNL     1      43.850   4.870  11.438  0.00  0.00    +0.000 C 
ATOM      2  C   UNL     1      42.853   3.974  12.158  0.00  0.00    +0.000 C 
ATOM      3  C   UNL     1      42.652   5.450  12.185  0.00  0.00    +0.000 C 
ENDROOT
BRANCH   1   4
ATOM      4  C   UNL     1      45.204   5.218  12.082  0.00  0.00    +0.000 A 
ATOM      5  C   UNL     1      45.853   6.418  11.742  0.00  0.00    +0.000 A 
ATOM      6  C   UNL     1      47.030   6.825  12.391  0.00  0.00    +0.000 A 
ATOM      7  C   UNL     1      47.523   5.966  13.381  0.00  0.00    +0.000 A 
ATOM      8  C   UNL     1      46.851   4.785  13.651  0.00  0.00    +0.000 A 
ATOM      9  N   UNL     1      45.717   4.400  13.034  0.00  0.00    +0.000 NA
BRANCH   6  10
ATOM     10  C   UNL     1      47.702   8.098  12.064  0.00  0.00    +0.000 A 
ATOM     11  C   UNL     1      49.032   8.195  11.684  0.00  0.00    +0.000 A 
ATOM     12  N   UNL     1      49.671   9.347  11.372  0.00  0.00    +0.000 NA
ATOM     13  C   UNL     1      48.929  10.459  11.441  0.00  0.00    +0.000 A 
ATOM     14  N   UNL     1      47.637  10.515  11.785  0.00  0.00    +0.000 NA
ATOM     15  C   UNL     1      47.061   9.330  12.092  0.00  0.00    +0.000 A 
ENDBRANCH   6  10
ENDBRANCH   1   4
BRANCH   1  16
ATOM     16  N   UNL     1      43.863   4.854   9.955  0.00  0.00    +0.000 N 
ATOM     17  H   UNL     1      42.976   4.991   9.478  0.00  0.00    +0.000 HD
BRANCH  16  21
ATOM     18  C   UNL     1      46.531   2.485   7.669  0.00  0.00    +0.000 A 
ATOM     19  C   UNL     1      45.680   1.873   8.591  0.00  0.00    +0.000 A 
ATOM     20  C   UNL     1      44.827   2.651   9.379  0.00  0.00    +0.000 A 
ATOM     21  C   UNL     1      44.746   4.038   9.212  0.00  0.00    +0.000 A 
ATOM     22  C   UNL     1      45.652   4.646   8.331  0.00  0.00    +0.000 A 
ATOM     23  C   UNL     1      46.546   3.879   7.572  0.00  0.00    +0.000 A 
BRANCH  18  25
ATOM     24  N   UNL     1      48.583   2.292   6.375  0.00  0.00    +0.000 N 
ATOM     25  C   UNL     1      47.440   1.685   6.816  0.00  0.00    +0.000 C 
ATOM     26  O   UNL     1      47.202   0.512   6.546  0.00  0.00    +0.000 OA
ATOM     27  H   UNL     1      49.242   1.709   5.876  0.00  0.00    +0.000 HD
ATOM     28  H   UNL     1      48.925   3.152   6.777  0.00  0.00    +0.000 HD
ENDBRANCH  18  25
ENDBRANCH  16  21
ENDBRANCH   1  16
TORSDOF 5
ENDMDL
MODEL 3
REMARK VINA RESULT:    -8.566      1.631      2.340
REMARK INTER + INTRA:         -11.813
REMARK INTER:                 -11.134
REMARK INTRA:                  -0.679
REMARK UNBOUND:                -0.743
REMARK  Name = 
REMARK  5 active torsions:
REMARK  status: ('A' for Active; 'I' for Inactive)
REMARK    1  A    between atoms: C_2  and  C_4
REMARK    2  A    between atoms: C_7  and  N_8
REMARK    3  A    between atoms: N_8  and  C_9
REMARK    4  A    between atoms: C_9  and  C_10
REMARK    5  A    between atoms: C_12  and  C_13
REMARK                            x       y       z     vdW  Elec       q    Type
REMARK                         _______ _______ _______ _____ _____    ______ ____
ROOT
ATOM      1  C   UNL     1      44.027   5.021  11.569  0.00  0.00    +0.000 C 
ATOM      2  C   UNL     1      44.167   3.833  12.510  0.00  0.00    +0.000 C 
ATOM      3  C   UNL     1      42.943   4.680  12.589  0.00  0.00    +0.000 C 
ENDROOT
BRANCH   1   4
ATOM      4  C   UNL     1      44.751   6.348  11.860  0.00  0.00    +0.000 A 
ATOM      5  C   UNL     1      45.961   6.343  12.576  0.00  0.00    +0.000 A 
ATOM      6  C   UNL     1      46.708   7.517  12.763  0.00  0.00    +0.000 A 
ATOM      7  C   UNL     1      46.177   8.687  12.208  0.00  0.00    +0.000 A 
ATOM      8  C   UNL     1      44.966   8.631  11.536  0.00  0.00    +0.000 A 
ATOM      9  N   UNL     1      44.255   7.502  11.349  0.00  0.00    +0.000 NA
BRANCH   6  10
ATOM     10  C   UNL     1      47.995   7.516  13.486  0.00  0.00    +0.000 A 
ATOM     11  C   UNL     1      48.335   6.585  14.457  0.00  0.00    +0.000 A 
ATOM     12  N   UNL     1      49.509   6.556  15.130  0.00  0.00    +0.000 NA
ATOM     13  C   UNL     1      50.389   7.511  14.805  0.00  0.00    +0.000 A 
ATOM     14  N   UNL     1      50.199   8.467  13.887  0.00  0.00    +0.000 NA
ATOM     15  C   UNL     1      49.002   8.444  13.256  0.00  0.00    +0.000 A 
ENDBRANCH   6  10
ENDBRANCH   1   4
BRANCH   1  16
ATOM     16  N   UNL     1      43.800   4.751  10.128  0.00  0.00    +0.000 N 
ATOM     17  H   UNL     1      42.837   4.659   9.815  0.00  0.00    +0.000 HD
BRANCH  16  21
ATOM     18  C   UNL     1      46.485   2.494   7.751  0.00  0.00    +0.000 A 
ATOM     19  C   UNL     1      45.617   1.837   8.624  0.00  0.00    +0.000 A 
ATOM     20  C   UNL     1      44.758   2.576   9.442  0.00  0.00    +0.000 A 
ATOM     21  C   UNL     1      44.688   3.971   9.353  0.00  0.00    +0.000 A 
ATOM     22  C   UNL     1      45.612   4.621   8.522  0.00  0.00    +0.000 A 
ATOM     23  C   UNL     1      46.512   3.891   7.733  0.00  0.00    +0.000 A 
BRANCH  18  25
ATOM     24  N   UNL     1      48.464   2.413   6.337  0.00  0.00    +0.000 N 
ATOM     25  C   UNL     1      47.402   1.737   6.868  0.00  0.00    +0.000 C 
ATOM     26  O   UNL     1      47.242   0.539   6.650  0.00  0.00    +0.000 OA
ATOM     27  H   UNL     1      49.136   1.865   5.815  0.00  0.00    +0.000 HD
ATOM     28  H   UNL     1      48.761   3.311   6.689  0.00  0.00    +0.000 HD
ENDBRANCH  18  25
ENDBRANCH  16  21
ENDBRANCH   1  16
TORSDOF 5
ENDMDL
MODEL 4
REMARK VINA RESULT:    -6.972      2.607      7.312
REMARK INTER + INTRA:          -9.752
REMARK INTER:                  -9.684
REMARK INTRA:                  -0.068
REMARK UNBOUND:                -0.743
REMARK  Name = 
REMARK  5 active torsions:
REMARK  status: ('A' for Active; 'I' for Inactive)
REMARK    1  A    between atoms: C_2  and  C_4
REMARK    2  A    between atoms: C_7  and  N_8
REMARK    3  A    between atoms: N_8  and  C_9
REMARK    4  A    between atoms: C_9  and  C_10
REMARK    5  A    between atoms: C_12  and  C_13
REMARK                            x       y       z     vdW  Elec       q    Type
REMARK                         _______ _______ _______ _____ _____    ______ ____
ROOT
ATOM      1  C   UNL     1      46.163   7.426  12.012  0.00  0.00    +0.000 C 
ATOM      2  C   UNL     1      46.122   8.910  11.674  0.00  0.00    +0.000 C 
ATOM      3  C   UNL     1      45.369   8.416  12.861  0.00  0.00    +0.000 C 
ENDROOT
BRANCH   1   4
ATOM      4  C   UNL     1      45.280   6.420  11.252  0.00  0.00    +0.000 A 
ATOM      5  C   UNL     1      45.859   5.551  10.310  0.00  0.00    +0.000 A 
ATOM      6  C   UNL     1      45.108   4.545   9.682  0.00  0.00    +0.000 A 
ATOM      7  C   UNL     1      43.757   4.464  10.037  0.00  0.00    +0.000 A 
ATOM      8  C   UNL     1      43.240   5.366  10.952  0.00  0.00    +0.000 A 
ATOM      9  N   UNL     1      43.964   6.326  11.562  0.00  0.00    +0.000 NA
BRANCH   6  10
ATOM     10  C   UNL     1      45.715   3.608   8.715  0.00  0.00    +0.000 A 
ATOM     11  C   UNL     1      45.668   2.228   8.843  0.00  0.00    +0.000 A 
ATOM     12  N   UNL     1      46.208   1.346   7.970  0.00  0.00    +0.000 NA
ATOM     13  C   UNL     1      46.825   1.883   6.910  0.00  0.00    +0.000 A 
ATOM     14  N   UNL     1      46.942   3.192   6.656  0.00  0.00    +0.000 NA
ATOM     15  C   UNL     1      46.387   4.018   7.571  0.00  0.00    +0.000 A 
ENDBRANCH   6  10
ENDBRANCH   1   4
BRANCH   1  16
ATOM     16  N   UNL     1      47.433   6.860  12.527  0.00  0.00    +0.000 N 
ATOM     17  H   UNL     1      48.130   6.574  11.844  0.00  0.00    +0.000 HD
BRANCH  16  21
ATOM     18  C   UNL     1      47.546   4.471  16.025  0.00  0.00    +0.000 A 
ATOM     19  C   UNL     1      48.233   5.686  15.996  0.00  0.00    +0.000 A 
ATOM     20  C   UNL     1      48.236   6.459  14.832  0.00  0.00    +0.000 A 
ATOM     21  C   UNL     1      47.495   6.082  13.706  0.00  0.00    +0.000 A 
ATOM     22  C   UNL     1      46.865   4.830  13.726  0.00  0.00    +0.000 A 
ATOM     23  C   UNL     1      46.896   4.024  14.872  0.00  0.00    +0.000 A 
BRANCH  18  25
ATOM     24  N   UNL     1      48.588   3.728  18.095  0.00  0.00    +0.000 N 
ATOM     25  C   UNL     1      47.520   3.634  17.247  0.00  0.00    +0.000 C 
ATOM     26  O   UNL     1      46.563   2.913  17.513  0.00  0.00    +0.000 OA
ATOM     27  H   UNL     1      48.517   3.228  18.972  0.00  0.00    +0.000 HD
ATOM     28  H   UNL     1      49.258   4.480  18.036  0.00  0.00    +0.000 HD
ENDBRANCH  18  25
ENDBRANCH  16  21
ENDBRANCH   1  16
TORSDOF 5
ENDMDL
MODEL 5
REMARK VINA RESULT:    -6.613      2.914      7.521
REMARK INTER + INTRA:          -9.288
REMARK INTER:                  -8.889
REMARK INTRA:                  -0.399
REMARK UNBOUND:                -0.743
REMARK  Name = 
REMARK  5 active torsions:
REMARK  status: ('A' for Active; 'I' for Inactive)
REMARK    1  A    between atoms: C_2  and  C_4
REMARK    2  A    between atoms: C_7  and  N_8
REMARK    3  A    between atoms: N_8  and  C_9
REMARK    4  A    between atoms: C_9  and  C_10
REMARK    5  A    between atoms: C_12  and  C_13
REMARK                            x       y       z     vdW  Elec       q    Type
REMARK                         _______ _______ _______ _____ _____    ______ ____
ROOT
ATOM      1  C   UNL     1      48.600   7.902  12.698  0.00  0.00    +0.000 C 
ATOM      2  C   UNL     1      49.797   7.333  11.949  0.00  0.00    +0.000 C 
ATOM      3  C   UNL     1      49.479   8.782  11.813  0.00  0.00    +0.000 C 
ENDROOT
BRANCH   1   4
ATOM      4  C   UNL     1      47.171   7.717  12.158  0.00  0.00    +0.000 A 
ATOM      5  C   UNL     1      46.840   6.558  11.435  0.00  0.00    +0.000 A 
ATOM      6  C   UNL     1      45.522   6.300  11.025  0.00  0.00    +0.000 A 
ATOM      7  C   UNL     1      44.565   7.263  11.367  0.00  0.00    +0.000 A 
ATOM      8  C   UNL     1      44.959   8.397  12.058  0.00  0.00    +0.000 A 
ATOM      9  N   UNL     1      46.223   8.638  12.459  0.00  0.00    +0.000 NA
BRANCH   6  10
ATOM     10  C   UNL     1      45.159   5.070  10.292  0.00  0.00    +0.000 A 
ATOM     11  C   UNL     1      44.325   4.086  10.800  0.00  0.00    +0.000 A 
ATOM     12  N   UNL     1      43.970   2.953  10.150  0.00  0.00    +0.000 NA
ATOM     13  C   UNL     1      44.479   2.807   8.920  0.00  0.00    +0.000 A 
ATOM     14  N   UNL     1      45.290   3.675   8.303  0.00  0.00    +0.000 NA
ATOM     15  C   UNL     1      45.611   4.782   9.011  0.00  0.00    +0.000 A 
ENDBRANCH   6  10
ENDBRANCH   1   4
BRANCH   1  16
ATOM     16  N   UNL     1      48.687   8.014  14.174  0.00  0.00    +0.000 N 
ATOM     17  H   UNL     1      49.385   8.647  14.555  0.00  0.00    +0.000 HD
BRANCH  16  21
ATOM     18  C   UNL     1      47.857   4.709  16.693  0.00  0.00    +0.000 A 
ATOM     19  C   UNL     1      48.681   5.737  17.153  0.00  0.00    +0.000 A 
ATOM     20  C   UNL     1      48.994   6.810  16.313  0.00  0.00    +0.000 A 
ATOM     21  C   UNL     1      48.434   6.922  15.035  0.00  0.00    +0.000 A 
ATOM     22  C   UNL     1      47.663   5.850  14.563  0.00  0.00    +0.000 A 
ATOM     23  C   UNL     1      47.383   4.746  15.379  0.00  0.00    +0.000 A 
BRANCH  18  25
ATOM     24  N   UNL     1      48.333   3.293  18.614  0.00  0.00    +0.000 N 
ATOM     25  C   UNL     1      47.503   3.563  17.563  0.00  0.00    +0.000 C 
ATOM     26  O   UNL     1      46.484   2.904  17.376  0.00  0.00    +0.000 OA
ATOM     27  H   UNL     1      48.032   2.572  19.257  0.00  0.00    +0.000 HD
ATOM     28  H   UNL     1      49.024   3.953  18.938  0.00  0.00    +0.000 HD
ENDBRANCH  18  25
ENDBRANCH  16  21
ENDBRANCH   1  16
TORSDOF 5
ENDMDL
MODEL 6
REMARK VINA RESULT:    -6.486      4.117      8.038
REMARK INTER + INTRA:          -9.124
REMARK INTER:                  -8.434
REMARK INTRA:                  -0.690
REMARK UNBOUND:                -0.743
REMARK  Name = 
REMARK  5 active torsions:
REMARK  status: ('A' for Active; 'I' for Inactive)
REMARK    1  A    between atoms: C_2  and  C_4
REMARK    2  A    between atoms: C_7  and  N_8
REMARK    3  A    between atoms: N_8  and  C_9
REMARK    4  A    between atoms: C_9  and  C_10
REMARK    5  A    between atoms: C_12  and  C_13
REMARK                            x       y       z     vdW  Elec       q    Type
REMARK                         _______ _______ _______ _____ _____    ______ ____
ROOT
ATOM      1  C   UNL     1      49.046   7.019  16.524  0.00  0.00    +0.000 C 
ATOM      2  C   UNL     1      50.107   8.060  16.851  0.00  0.00    +0.000 C 
ATOM      3  C   UNL     1      48.669   8.436  16.948  0.00  0.00    +0.000 C 
ENDROOT
BRANCH   1   4
ATOM      4  C   UNL     1      48.683   6.696  15.063  0.00  0.00    +0.000 A 
ATOM      5  C   UNL     1      47.498   5.997  14.774  0.00  0.00    +0.000 A 
ATOM      6  C   UNL     1      47.075   5.784  13.452  0.00  0.00    +0.000 A 
ATOM      7  C   UNL     1      47.902   6.296  12.445  0.00  0.00    +0.000 A 
ATOM      8  C   UNL     1      49.070   6.954  12.795  0.00  0.00    +0.000 A 
ATOM      9  N   UNL     1      49.470   7.165  14.064  0.00  0.00    +0.000 NA
BRANCH   6  10
ATOM     10  C   UNL     1      45.817   5.078  13.140  0.00  0.00    +0.000 A 
ATOM     11  C   UNL     1      44.577   5.698  13.082  0.00  0.00    +0.000 A 
ATOM     12  N   UNL     1      43.410   5.077  12.792  0.00  0.00    +0.000 NA
ATOM     13  C   UNL     1      43.496   3.765  12.542  0.00  0.00    +0.000 A 
ATOM     14  N   UNL     1      44.621   3.040  12.557  0.00  0.00    +0.000 NA
ATOM     15  C   UNL     1      45.751   3.719  12.861  0.00  0.00    +0.000 A 
ENDBRANCH   6  10
ENDBRANCH   1   4
BRANCH   1  16
ATOM     16  N   UNL     1      48.860   5.889  17.466  0.00  0.00    +0.000 N 
ATOM     17  H   UNL     1      48.477   6.102  18.383  0.00  0.00    +0.000 HD
BRANCH  16  21
ATOM     18  C   UNL     1      51.392   2.493  17.572  0.00  0.00    +0.000 A 
ATOM     19  C   UNL     1      51.945   3.770  17.682  0.00  0.00    +0.000 A 
ATOM     20  C   UNL     1      51.121   4.897  17.606  0.00  0.00    +0.000 A 
ATOM     21  C   UNL     1      49.731   4.776  17.498  0.00  0.00    +0.000 A 
ATOM     22  C   UNL     1      49.197   3.491  17.322  0.00  0.00    +0.000 A 
ATOM     23  C   UNL     1      50.020   2.357  17.348  0.00  0.00    +0.000 A 
BRANCH  18  25
ATOM     24  N   UNL     1      51.654   0.136  18.119  0.00  0.00    +0.000 N 
ATOM     25  C   UNL     1      52.240   1.281  17.657  0.00  0.00    +0.000 C 
ATOM     26  O   UNL     1      53.412   1.289  17.290  0.00  0.00    +0.000 OA
ATOM     27  H   UNL     1      52.213  -0.707  18.081  0.00  0.00    +0.000 HD
ATOM     28  H   UNL     1      50.653   0.034  18.188  0.00  0.00    +0.000 HD
ENDBRANCH  18  25
ENDBRANCH  16  21
ENDBRANCH   1  16
TORSDOF 5
ENDMDL
MODEL 7
REMARK VINA RESULT:    -6.420      2.801      4.590
REMARK INTER + INTRA:          -9.039
REMARK INTER:                  -8.755
REMARK INTRA:                  -0.284
REMARK UNBOUND:                -0.743
REMARK  Name = 
REMARK  5 active torsions:
REMARK  status: ('A' for Active; 'I' for Inactive)
REMARK    1  A    between atoms: C_2  and  C_4
REMARK    2  A    between atoms: C_7  and  N_8
REMARK    3  A    between atoms: N_8  and  C_9
REMARK    4  A    between atoms: C_9  and  C_10
REMARK    5  A    between atoms: C_12  and  C_13
REMARK                            x       y       z     vdW  Elec       q    Type
REMARK                         _______ _______ _______ _____ _____    ______ ____
ROOT
ATOM      1  C   UNL     1      47.947   8.019  12.546  0.00  0.00    +0.000 C 
ATOM      2  C   UNL     1      48.641   8.971  11.582  0.00  0.00    +0.000 C 
ATOM      3  C   UNL     1      48.825   7.503  11.409  0.00  0.00    +0.000 C 
ENDROOT
BRANCH   1   4
ATOM      4  C   UNL     1      48.530   7.751  13.945  0.00  0.00    +0.000 A 
ATOM      5  C   UNL     1      48.154   6.595  14.650  0.00  0.00    +0.000 A 
ATOM      6  C   UNL     1      48.749   6.257  15.877  0.00  0.00    +0.000 A 
ATOM      7  C   UNL     1      49.724   7.139  16.358  0.00  0.00    +0.000 A 
ATOM      8  C   UNL     1      50.032   8.275  15.628  0.00  0.00    +0.000 A 
ATOM      9  N   UNL     1      49.466   8.593  14.447  0.00  0.00    +0.000 NA
BRANCH   6  10
ATOM     10  C   UNL     1      48.384   5.029  16.609  0.00  0.00    +0.000 A 
ATOM     11  C   UNL     1      47.190   4.345  16.425  0.00  0.00    +0.000 A 
ATOM     12  N   UNL     1      46.832   3.215  17.078  0.00  0.00    +0.000 NA
ATOM     13  C   UNL     1      47.725   2.744  17.958  0.00  0.00    +0.000 A 
ATOM     14  N   UNL     1      48.914   3.295  18.232  0.00  0.00    +0.000 NA
ATOM     15  C   UNL     1      49.207   4.427  17.552  0.00  0.00    +0.000 A 
ENDBRANCH   6  10
ENDBRANCH   1   4
BRANCH   1  16
ATOM     16  N   UNL     1      46.472   7.889  12.461  0.00  0.00    +0.000 N 
ATOM     17  H   UNL     1      45.916   8.406  13.137  0.00  0.00    +0.000 HD
BRANCH  16  21
ATOM     18  C   UNL     1      44.560   4.276  11.345  0.00  0.00    +0.000 A 
ATOM     19  C   UNL     1      45.204   5.044  10.374  0.00  0.00    +0.000 A 
ATOM     20  C   UNL     1      45.801   6.258  10.727  0.00  0.00    +0.000 A 
ATOM     21  C   UNL     1      45.838   6.692  12.057  0.00  0.00    +0.000 A 
ATOM     22  C   UNL     1      45.129   5.944  13.009  0.00  0.00    +0.000 A 
ATOM     23  C   UNL     1      44.486   4.750  12.657  0.00  0.00    +0.000 A 
BRANCH  18  25
ATOM     24  N   UNL     1      44.495   2.250   9.998  0.00  0.00    +0.000 N 
ATOM     25  C   UNL     1      43.925   2.982  11.001  0.00  0.00    +0.000 C 
ATOM     26  O   UNL     1      42.949   2.561  11.616  0.00  0.00    +0.000 OA
ATOM     27  H   UNL     1      44.113   1.327   9.837  0.00  0.00    +0.000 HD
ATOM     28  H   UNL     1      45.422   2.442   9.651  0.00  0.00    +0.000 HD
ENDBRANCH  18  25
ENDBRANCH  16  21
ENDBRANCH   1  16
TORSDOF 5
ENDMDL
MODEL 8
REMARK VINA RESULT:    -6.127      4.030      6.386
REMARK INTER + INTRA:          -8.661
REMARK INTER:                  -7.914
REMARK INTRA:                  -0.747
REMARK UNBOUND:                -0.743
REMARK  Name = 
REMARK  5 active torsions:
REMARK  status: ('A' for Active; 'I' for Inactive)
REMARK    1  A    between atoms: C_2  and  C_4
REMARK    2  A    between atoms: C_7  and  N_8
REMARK    3  A    between atoms: N_8  and  C_9
REMARK    4  A    between atoms: C_9  and  C_10
REMARK    5  A    between atoms: C_12  and  C_13
REMARK                            x       y       z     vdW  Elec       q    Type
REMARK                         _______ _______ _______ _____ _____    ______ ____
ROOT
ATOM      1  C   UNL     1      48.946   7.520  15.512  0.00  0.00    +0.000 C 
ATOM      2  C   UNL     1      48.414   8.935  15.690  0.00  0.00    +0.000 C 
ATOM      3  C   UNL     1      49.887   8.712  15.672  0.00  0.00    +0.000 C 
ENDROOT
BRANCH   1   4
ATOM      4  C   UNL     1      48.988   6.539  16.698  0.00  0.00    +0.000 A 
ATOM      5  C   UNL     1      49.817   5.406  16.640  0.00  0.00    +0.000 A 
ATOM      6  C   UNL     1      49.970   4.551  17.744  0.00  0.00    +0.000 A 
ATOM      7  C   UNL     1      49.244   4.885  18.894  0.00  0.00    +0.000 A 
ATOM      8  C   UNL     1      48.424   6.001  18.878  0.00  0.00    +0.000 A 
ATOM      9  N   UNL     1      48.286   6.826  17.822  0.00  0.00    +0.000 NA
BRANCH   6  10
ATOM     10  C   UNL     1      50.862   3.376  17.704  0.00  0.00    +0.000 A 
ATOM     11  C   UNL     1      52.179   3.390  18.140  0.00  0.00    +0.000 A 
ATOM     12  N   UNL     1      53.017   2.327  18.121  0.00  0.00    +0.000 NA
ATOM     13  C   UNL     1      52.500   1.189  17.641  0.00  0.00    +0.000 A 
ATOM     14  N   UNL     1      51.250   1.029  17.192  0.00  0.00    +0.000 NA
ATOM     15  C   UNL     1      50.467   2.131  17.232  0.00  0.00    +0.000 A 
ENDBRANCH   6  10
ENDBRANCH   1   4
BRANCH   1  16
ATOM     16  N   UNL     1      48.788   6.873  14.187  0.00  0.00    +0.000 N 
ATOM     17  H   UNL     1      49.400   7.186  13.438  0.00  0.00    +0.000 HD
BRANCH  16  21
ATOM     18  C   UNL     1      45.016   5.639  12.703  0.00  0.00    +0.000 A 
ATOM     19  C   UNL     1      45.744   4.786  13.534  0.00  0.00    +0.000 A 
ATOM     20  C   UNL     1      47.007   5.168  13.994  0.00  0.00    +0.000 A 
ATOM     21  C   UNL     1      47.536   6.431  13.703  0.00  0.00    +0.000 A 
ATOM     22  C   UNL     1      46.825   7.249  12.814  0.00  0.00    +0.000 A 
ATOM     23  C   UNL     1      45.579   6.855  12.308  0.00  0.00    +0.000 A 
BRANCH  18  25
ATOM     24  N   UNL     1      42.620   5.416  13.065  0.00  0.00    +0.000 N 
ATOM     25  C   UNL     1      43.672   5.263  12.206  0.00  0.00    +0.000 C 
ATOM     26  O   UNL     1      43.498   4.868  11.057  0.00  0.00    +0.000 OA
ATOM     27  H   UNL     1      41.697   5.249  12.686  0.00  0.00    +0.000 HD
ATOM     28  H   UNL     1      42.690   5.963  13.910  0.00  0.00    +0.000 HD
ENDBRANCH  18  25
ENDBRANCH  16  21
ENDBRANCH   1  16
TORSDOF 5
ENDMDL
