MODEL 1
REMARK VINA RESULT:    -8.400      0.000      0.000
REMARK INTER + INTRA:         -12.151
REMARK INTER:                 -11.346
REMARK INTRA:                  -0.805
REMARK UNBOUND:                -0.805
REMARK  Name = 
REMARK  7 active torsions:
REMARK  status: ('A' for Active; 'I' for Inactive)
REMARK    1  A    between atoms: C_1  and  N_2
REMARK    2  A    between atoms: N_2  and  C_3
REMARK    3  A    between atoms: C_3  and  C_4
REMARK    4  A    between atoms: C_7  and  C_8
REMARK    5  A    between atoms: C_8  and  N_9
REMARK    6  A    between atoms: C_10  and  C_12
REMARK    7  A    between atoms: C_19  and  C_21
REMARK                            x       y       z     vdW  Elec       q    Type
REMARK                         _______ _______ _______ _____ _____    ______ ____
ROOT
ATOM      1  C   UNL     1      47.483   5.658  13.868  0.00  0.00    +0.000 A 
ATOM      2  C   UNL     1      48.261   6.278  14.858  0.00  0.00    +0.000 A 
ATOM      3  C   UNL     1      48.400   5.693  16.119  0.00  0.00    +0.000 A 
ATOM      4  C   UNL     1      47.765   4.477  16.407  0.00  0.00    +0.000 A 
ATOM      5  C   UNL     1      46.939   3.894  15.436  0.00  0.00    +0.000 A 
ATOM      6  C   UNL     1      46.809   4.470  14.173  0.00  0.00    +0.000 A 
ENDROOT
BRANCH   1   7
ATOM      7  C   UNL     1      47.397   6.241  12.480  0.00  0.00    +0.000 C 
BRANCH   7   9
ATOM      8  C   UNL     1      46.677   8.671  12.294  0.00  0.00    +0.000 C 
ATOM      9  N   UNL     1      46.355   7.249  12.234  0.00  0.00    +0.000 N 
ATOM     10  C   UNL     1      45.082   6.942  11.718  0.00  0.00    +0.000 C 
ATOM     11  O   UNL     1      44.308   7.833  11.368  0.00  0.00    +0.000 OA
BRANCH  10  12
ATOM     12  C   UNL     1      44.649   5.541  11.637  0.00  0.00    +0.000 A 
ATOM     13  C   UNL     1      43.870   4.904  12.590  0.00  0.00    +0.000 A 
ATOM     14  S   UNL     1      43.466   3.296  12.183  0.00  0.00    +0.000 S 
ATOM     15  C   UNL     1      44.197   3.446  10.654  0.00  0.00    +0.000 A 
ATOM     16  N   UNL     1      44.117   2.441   9.744  0.00  0.00    +0.000 NA
ATOM     17  C   UNL     1      44.656   2.721   8.602  0.00  0.00    +0.000 A 
ATOM     18  N   UNL     1      45.295   3.897   8.305  0.00  0.00    +0.000 N 
ATOM     19  C   UNL     1      45.522   4.885   9.241  0.00  0.00    +0.000 A 
ATOM     20  O   UNL     1      46.305   5.800   9.014  0.00  0.00    +0.000 OA
ATOM     21  C   UNL     1      44.825   4.668  10.499  0.00  0.00    +0.000 A 
ATOM     22  H   UNL     1      45.756   4.022   7.417  0.00  0.00    +0.000 HD
ENDBRANCH  10  12
ENDBRANCH   7   9
ENDBRANCH   1   7
BRANCH   4  23
ATOM     23  C   UNL     1      47.973   3.796  17.731  0.00  0.00    +0.000 C 
BRANCH  23  24
ATOM     24  N   UNL     1      49.337   3.378  17.913  0.00  0.00    +0.000 N 
ATOM     25  C   UNL     1      49.871   2.374  17.150  0.00  0.00    +0.000 C 
ATOM     26  O   UNL     1      49.225   1.778  16.290  0.00  0.00    +0.000 OA
ATOM     27  H   UNL     1      49.926   3.903  18.544  0.00  0.00    +0.000 HD
BRANCH  25  28
ATOM     28  C   UNL     1      51.261   2.064  17.420  0.00  0.00    +0.000 A 
ATOM     29  C   UNL     1      52.344   2.862  17.762  0.00  0.00    +0.000 A 
ATOM     30  C   UNL     1      53.475   2.029  17.921  0.00  0.00    +0.000 A 
ATOM     31  C   UNL     1      53.069   0.737  17.675  0.00  0.00    +0.000 A 
ATOM     32  N   UNL     1      51.734   0.768  17.376  0.00  0.00    +0.000 N 
ATOM     33  H   UNL     1      51.154  -0.033  17.153  0.00  0.00    +0.000 HD
ENDBRANCH  25  28
ENDBRANCH  23  24
ENDBRANCH   4  23
TORSDOF 6
ENDMDL
MODEL 2
REMARK VINA RESULT:    -8.395      1.285      1.936
REMARK INTER + INTRA:         -12.145
REMARK INTER:                 -11.028
REMARK INTRA:                  -1.116
REMARK UNBOUND:                -0.805
REMARK  Name = 
REMARK  7 active torsions:
REMARK  status: ('A' for Active; 'I' for Inactive)
REMARK    1  A    between atoms: C_1  and  N_2
REMARK    2  A    between atoms: N_2  and  C_3
REMARK    3  A    between atoms: C_3  and  C_4
REMARK    4  A    between atoms: C_7  and  C_8
REMARK    5  A    between atoms: C_8  and  N_9
REMARK    6  A    between atoms: C_10  and  C_12
REMARK    7  A    between atoms: C_19  and  C_21
REMARK                            x       y       z     vdW  Elec       q    Type
REMARK                         _______ _______ _______ _____ _____    ______ ____
ROOT
ATOM      1  C   UNL     1      47.501   5.706  14.015  0.00  0.00    +0.000 A 
ATOM      2  C   UNL     1      48.278   6.164  15.091  0.00  0.00    +0.000 A 
ATOM      3  C   UNL     1      48.376   5.413  16.265  0.00  0.00    +0.000 A 
ATOM      4  C   UNL     1      47.699   4.191  16.379  0.00  0.00    +0.000 A 
ATOM      5  C   UNL     1      46.874   3.769  15.327  0.00  0.00    +0.000 A 
ATOM      6  C   UNL     1      46.786   4.512  14.149  0.00  0.00    +0.000 A 
ENDROOT
BRANCH   1   7
ATOM      7  C   UNL     1      47.460   6.471  12.717  0.00  0.00    +0.000 C 
BRANCH   7   9
ATOM      8  C   UNL     1      46.495   8.764  13.237  0.00  0.00    +0.000 C 
ATOM      9  N   UNL     1      46.399   7.476  12.557  0.00  0.00    +0.000 N 
ATOM     10  C   UNL     1      45.370   7.376  11.602  0.00  0.00    +0.000 C 
ATOM     11  O   UNL     1      44.608   8.319  11.390  0.00  0.00    +0.000 OA
BRANCH  10  12
ATOM     12  C   UNL     1      45.171   6.114  10.878  0.00  0.00    +0.000 A 
ATOM     13  C   UNL     1      45.771   5.801   9.669  0.00  0.00    +0.000 A 
ATOM     14  S   UNL     1      45.407   4.230   9.109  0.00  0.00    +0.000 S 
ATOM     15  C   UNL     1      44.553   3.865  10.533  0.00  0.00    +0.000 A 
ATOM     16  N   UNL     1      44.059   2.617  10.748  0.00  0.00    +0.000 NA
ATOM     17  C   UNL     1      43.497   2.466  11.903  0.00  0.00    +0.000 A 
ATOM     18  N   UNL     1      43.354   3.455  12.840  0.00  0.00    +0.000 N 
ATOM     19  C   UNL     1      43.713   4.767  12.608  0.00  0.00    +0.000 A 
ATOM     20  O   UNL     1      43.347   5.663  13.359  0.00  0.00    +0.000 OA
ATOM     21  C   UNL     1      44.463   4.957  11.377  0.00  0.00    +0.000 A 
ATOM     22  H   UNL     1      42.840   3.287  13.692  0.00  0.00    +0.000 HD
ENDBRANCH  10  12
ENDBRANCH   7   9
ENDBRANCH   1   7
BRANCH   4  23
ATOM     23  C   UNL     1      47.861   3.334  17.604  0.00  0.00    +0.000 C 
BRANCH  23  24
ATOM     24  N   UNL     1      49.239   3.016  17.860  0.00  0.00    +0.000 N 
ATOM     25  C   UNL     1      49.922   2.148  17.050  0.00  0.00    +0.000 C 
ATOM     26  O   UNL     1      49.403   1.595  16.082  0.00  0.00    +0.000 OA
ATOM     27  H   UNL     1      49.727   3.519  18.589  0.00  0.00    +0.000 HD
BRANCH  25  28
ATOM     28  C   UNL     1      51.310   1.930  17.407  0.00  0.00    +0.000 A 
ATOM     29  C   UNL     1      52.319   2.800  17.795  0.00  0.00    +0.000 A 
ATOM     30  C   UNL     1      53.488   2.042  18.037  0.00  0.00    +0.000 A 
ATOM     31  C   UNL     1      53.178   0.724  17.793  0.00  0.00    +0.000 A 
ATOM     32  N   UNL     1      51.864   0.666  17.415  0.00  0.00    +0.000 N 
ATOM     33  H   UNL     1      51.348  -0.173  17.175  0.00  0.00    +0.000 HD
ENDBRANCH  25  28
ENDBRANCH  23  24
ENDBRANCH   4  23
TORSDOF 6
ENDMDL
MODEL 3
REMARK VINA RESULT:    -7.962      3.451      8.299
REMARK INTER + INTRA:         -11.560
REMARK INTER:                 -10.394
REMARK INTRA:                  -1.166
REMARK UNBOUND:                -0.805
REMARK  Name = 
REMARK  7 active torsions:
REMARK  status: ('A' for Active; 'I' for Inactive)
REMARK    1  A    between atoms: C_1  and  N_2
REMARK    2  A    between atoms: N_2  and  C_3
REMARK    3  A    between atoms: C_3  and  C_4
REMARK    4  A    between atoms: C_7  and  C_8
REMARK    5  A    between atoms: C_8  and  N_9
REMARK    6  A    between atoms: C_10  and  C_12
REMARK    7  A    between atoms: C_19  and  C_21
REMARK                            x       y       z     vdW  Elec       q    Type
REMARK                         _______ _______ _______ _____ _____    ______ ____
ROOT
ATOM      1  C   UNL     1      46.497   6.440  13.235  0.00  0.00    +0.000 A 
ATOM      2  C   UNL     1      46.652   5.106  13.644  0.00  0.00    +0.000 A 
ATOM      3  C   UNL     1      45.937   4.083  13.015  0.00  0.00    +0.000 A 
ATOM      4  C   UNL     1      45.058   4.381  11.965  0.00  0.00    +0.000 A 
ATOM      5  C   UNL     1      44.859   5.721  11.601  0.00  0.00    +0.000 A 
ATOM      6  C   UNL     1      45.581   6.740  12.221  0.00  0.00    +0.000 A 
ENDROOT
BRANCH   1   7
ATOM      7  C   UNL     1      47.327   7.535  13.854  0.00  0.00    +0.000 C 
BRANCH   7   9
ATOM      8  C   UNL     1      49.416   7.115  12.469  0.00  0.00    +0.000 C 
ATOM      9  N   UNL     1      48.789   7.415  13.752  0.00  0.00    +0.000 N 
ATOM     10  C   UNL     1      49.674   7.790  14.779  0.00  0.00    +0.000 C 
ATOM     11  O   UNL     1      50.888   7.834  14.585  0.00  0.00    +0.000 OA
BRANCH  10  12
ATOM     12  C   UNL     1      49.148   8.091  16.118  0.00  0.00    +0.000 A 
ATOM     13  C   UNL     1      48.918   9.369  16.601  0.00  0.00    +0.000 A 
ATOM     14  S   UNL     1      48.233   9.399  18.164  0.00  0.00    +0.000 S 
ATOM     15  C   UNL     1      48.086   7.704  18.187  0.00  0.00    +0.000 A 
ATOM     16  N   UNL     1      47.468   7.074  19.220  0.00  0.00    +0.000 NA
ATOM     17  C   UNL     1      47.366   5.793  19.068  0.00  0.00    +0.000 A 
ATOM     18  N   UNL     1      47.856   5.089  18.000  0.00  0.00    +0.000 N 
ATOM     19  C   UNL     1      48.611   5.670  17.001  0.00  0.00    +0.000 A 
ATOM     20  O   UNL     1      49.239   4.981  16.205  0.00  0.00    +0.000 OA
ATOM     21  C   UNL     1      48.643   7.122  17.063  0.00  0.00    +0.000 A 
ATOM     22  H   UNL     1      47.805   4.082  17.980  0.00  0.00    +0.000 HD
ENDBRANCH  10  12
ENDBRANCH   7   9
ENDBRANCH   1   7
BRANCH   4  23
ATOM     23  C   UNL     1      44.345   3.283  11.225  0.00  0.00    +0.000 C 
BRANCH  23  24
ATOM     24  N   UNL     1      45.142   2.752  10.152  0.00  0.00    +0.000 N 
ATOM     25  C   UNL     1      45.038   3.258   8.883  0.00  0.00    +0.000 C 
ATOM     26  O   UNL     1      44.267   4.170   8.593  0.00  0.00    +0.000 OA
ATOM     27  H   UNL     1      45.852   2.066  10.368  0.00  0.00    +0.000 HD
BRANCH  25  28
ATOM     28  C   UNL     1      45.912   2.647   7.900  0.00  0.00    +0.000 A 
ATOM     29  C   UNL     1      46.434   3.112   6.702  0.00  0.00    +0.000 A 
ATOM     30  C   UNL     1      47.244   2.094   6.148  0.00  0.00    +0.000 A 
ATOM     31  C   UNL     1      47.204   1.024   7.012  0.00  0.00    +0.000 A 
ATOM     32  N   UNL     1      46.402   1.367   8.066  0.00  0.00    +0.000 N 
ATOM     33  H   UNL     1      46.185   0.783   8.866  0.00  0.00    +0.000 HD
ENDBRANCH  25  28
ENDBRANCH  23  24
ENDBRANCH   4  23
TORSDOF 6
ENDMDL
MODEL 4
REMARK VINA RESULT:    -7.621      3.576      8.561
REMARK INTER + INTRA:         -11.099
REMARK INTER:                  -9.881
REMARK INTRA:                  -1.217
REMARK UNBOUND:                -0.805
REMARK  Name = 
REMARK  7 active torsions:
REMARK  status: ('A' for Active; 'I' for Inactive)
REMARK    1  A    between atoms: C_1  and  N_2
REMARK    2  A    between atoms: N_2  and  C_3
REMARK    3  A    between atoms: C_3  and  C_4
REMARK    4  A    between atoms: C_7  and  C_8
REMARK    5  A    between atoms: C_8  and  N_9
REMARK    6  A    between atoms: C_10  and  C_12
REMARK    7  A    between atoms: C_19  and  C_21
REMARK                            x       y       z     vdW  Elec       q    Type
REMARK                         _______ _______ _______ _____ _____    ______ ____
ROOT
ATOM      1  C   UNL     1      46.912   7.432  13.444  0.00  0.00    +0.000 A 
ATOM      2  C   UNL     1      47.073   6.065  13.169  0.00  0.00    +0.000 A 
ATOM      3  C   UNL     1      46.228   5.420  12.262  0.00  0.00    +0.000 A 
ATOM      4  C   UNL     1      45.211   6.135  11.616  0.00  0.00    +0.000 A 
ATOM      5  C   UNL     1      45.013   7.485  11.941  0.00  0.00    +0.000 A 
ATOM      6  C   UNL     1      45.864   8.132  12.837  0.00  0.00    +0.000 A 
ENDROOT
BRANCH   1   7
ATOM      7  C   UNL     1      47.872   8.151  14.357  0.00  0.00    +0.000 C 
BRANCH   7   9
ATOM      8  C   UNL     1      50.235   8.106  13.424  0.00  0.00    +0.000 C 
ATOM      9  N   UNL     1      49.256   7.657  14.408  0.00  0.00    +0.000 N 
ATOM     10  C   UNL     1      49.783   6.928  15.490  0.00  0.00    +0.000 C 
ATOM     11  O   UNL     1      50.987   6.685  15.564  0.00  0.00    +0.000 OA
BRANCH  10  12
ATOM     12  C   UNL     1      48.879   6.409  16.525  0.00  0.00    +0.000 A 
ATOM     13  C   UNL     1      48.327   5.137  16.519  0.00  0.00    +0.000 A 
ATOM     14  S   UNL     1      47.376   4.796  17.894  0.00  0.00    +0.000 S 
ATOM     15  C   UNL     1      47.789   6.281  18.612  0.00  0.00    +0.000 A 
ATOM     16  N   UNL     1      47.382   6.581  19.873  0.00  0.00    +0.000 NA
ATOM     17  C   UNL     1      47.830   7.711  20.315  0.00  0.00    +0.000 A 
ATOM     18  N   UNL     1      48.613   8.578  19.599  0.00  0.00    +0.000 N 
ATOM     19  C   UNL     1      48.931   8.379  18.270  0.00  0.00    +0.000 A 
ATOM     20  O   UNL     1      49.414   9.281  17.596  0.00  0.00    +0.000 OA
ATOM     21  C   UNL     1      48.558   7.065  17.772  0.00  0.00    +0.000 A 
ATOM     22  H   UNL     1      48.868   9.477  19.979  0.00  0.00    +0.000 HD
ENDBRANCH  10  12
ENDBRANCH   7   9
ENDBRANCH   1   7
BRANCH   4  23
ATOM     23  C   UNL     1      44.347   5.474  10.577  0.00  0.00    +0.000 C 
BRANCH  23  24
ATOM     24  N   UNL     1      45.129   4.775   9.593  0.00  0.00    +0.000 N 
ATOM     25  C   UNL     1      44.878   3.460   9.302  0.00  0.00    +0.000 C 
ATOM     26  O   UNL     1      43.995   2.813   9.861  0.00  0.00    +0.000 OA
ATOM     27  H   UNL     1      45.801   5.296   9.047  0.00  0.00    +0.000 HD
BRANCH  25  28
ATOM     28  C   UNL     1      45.724   2.881   8.276  0.00  0.00    +0.000 A 
ATOM     29  C   UNL     1      46.269   3.406   7.113  0.00  0.00    +0.000 A 
ATOM     30  C   UNL     1      47.033   2.395   6.487  0.00  0.00    +0.000 A 
ATOM     31  C   UNL     1      46.943   1.269   7.273  0.00  0.00    +0.000 A 
ATOM     32  N   UNL     1      46.154   1.572   8.350  0.00  0.00    +0.000 N 
ATOM     33  H   UNL     1      45.910   0.943   9.106  0.00  0.00    +0.000 HD
ENDBRANCH  25  28
ENDBRANCH  23  24
ENDBRANCH   4  23
TORSDOF 6
ENDMDL
MODEL 5
REMARK VINA RESULT:    -7.418      2.659      8.274
REMARK INTER + INTRA:         -10.825
REMARK INTER:                  -9.740
REMARK INTRA:                  -1.085
REMARK UNBOUND:                -0.805
REMARK  Name = 
REMARK  7 active torsions:
REMARK  status: ('A' for Active; 'I' for Inactive)
REMARK    1  A    between atoms: C_1  and  N_2
REMARK    2  A    between atoms: N_2  and  C_3
REMARK    3  A    between atoms: C_3  and  C_4
REMARK    4  A    between atoms: C_7  and  C_8
REMARK    5  A    between atoms: C_8  and  N_9
REMARK    6  A    between atoms: C_10  and  C_12
REMARK    7  A    between atoms: C_19  and  C_21
REMARK                            x       y       z     vdW  Elec       q    Type
REMARK                         _______ _______ _______ _____ _____    ______ ____
ROOT
ATOM      1  C   UNL     1      48.069   6.990  14.436  0.00  0.00    +0.000 A 
ATOM      2  C   UNL     1      47.598   5.723  14.056  0.00  0.00    +0.000 A 
ATOM      3  C   UNL     1      46.620   5.599  13.065  0.00  0.00    +0.000 A 
ATOM      4  C   UNL     1      46.102   6.740  12.439  0.00  0.00    +0.000 A 
ATOM      5  C   UNL     1      46.529   8.006  12.866  0.00  0.00    +0.000 A 
ATOM      6  C   UNL     1      47.514   8.130  13.846  0.00  0.00    +0.000 A 
ENDROOT
BRANCH   1   7
ATOM      7  C   UNL     1      49.182   7.125  15.444  0.00  0.00    +0.000 C 
BRANCH   7   9
ATOM      8  C   UNL     1      48.786   9.115  16.973  0.00  0.00    +0.000 C 
ATOM      9  N   UNL     1      48.837   7.672  16.764  0.00  0.00    +0.000 N 
ATOM     10  C   UNL     1      48.325   6.895  17.820  0.00  0.00    +0.000 C 
ATOM     11  O   UNL     1      47.891   7.422  18.843  0.00  0.00    +0.000 OA
BRANCH  10  12
ATOM     12  C   UNL     1      48.350   5.429  17.720  0.00  0.00    +0.000 A 
ATOM     13  C   UNL     1      47.246   4.644  17.431  0.00  0.00    +0.000 A 
ATOM     14  S   UNL     1      47.601   2.979  17.309  0.00  0.00    +0.000 S 
ATOM     15  C   UNL     1      49.267   3.268  17.495  0.00  0.00    +0.000 A 
ATOM     16  N   UNL     1      50.166   2.256  17.382  0.00  0.00    +0.000 NA
ATOM     17  C   UNL     1      51.399   2.635  17.475  0.00  0.00    +0.000 A 
ATOM     18  N   UNL     1      51.807   3.922  17.705  0.00  0.00    +0.000 N 
ATOM     19  C   UNL     1      50.928   4.954  17.966  0.00  0.00    +0.000 A 
ATOM     20  O   UNL     1      51.326   6.024  18.410  0.00  0.00    +0.000 OA
ATOM     21  C   UNL     1      49.535   4.602  17.746  0.00  0.00    +0.000 A 
ATOM     22  H   UNL     1      52.784   4.137  17.839  0.00  0.00    +0.000 HD
ENDBRANCH  10  12
ENDBRANCH   7   9
ENDBRANCH   1   7
BRANCH   4  23
ATOM     23  C   UNL     1      45.111   6.617  11.315  0.00  0.00    +0.000 C 
BRANCH  23  24
ATOM     24  N   UNL     1      45.487   5.597  10.375  0.00  0.00    +0.000 N 
ATOM     25  C   UNL     1      44.687   4.504  10.167  0.00  0.00    +0.000 C 
ATOM     26  O   UNL     1      43.629   4.331  10.769  0.00  0.00    +0.000 OA
ATOM     27  H   UNL     1      46.301   5.746   9.795  0.00  0.00    +0.000 HD
BRANCH  25  28
ATOM     28  C   UNL     1      45.172   3.561   9.178  0.00  0.00    +0.000 A 
ATOM     29  C   UNL     1      45.634   3.729   7.880  0.00  0.00    +0.000 A 
ATOM     30  C   UNL     1      45.994   2.460   7.372  0.00  0.00    +0.000 A 
ATOM     31  C   UNL     1      45.747   1.537   8.363  0.00  0.00    +0.000 A 
ATOM     32  N   UNL     1      45.254   2.210   9.447  0.00  0.00    +0.000 N 
ATOM     33  H   UNL     1      44.984   1.798  10.333  0.00  0.00    +0.000 HD
ENDBRANCH  25  28
ENDBRANCH  23  24
ENDBRANCH   4  23
TORSDOF 6
ENDMDL
MODEL 6
REMARK VINA RESULT:    -7.324      3.041      8.253
REMARK INTER + INTRA:         -10.697
REMARK INTER:                  -9.625
REMARK INTRA:                  -1.072
REMARK UNBOUND:                -0.805
REMARK  Name = 
REMARK  7 active torsions:
REMARK  status: ('A' for Active; 'I' for Inactive)
REMARK    1  A    between atoms: C_1  and  N_2
REMARK    2  A    between atoms: N_2  and  C_3
REMARK    3  A    between atoms: C_3  and  C_4
REMARK    4  A    between atoms: C_7  and  C_8
REMARK    5  A    between atoms: C_8  and  N_9
REMARK    6  A    between atoms: C_10  and  C_12
REMARK    7  A    between atoms: C_19  and  C_21
REMARK                            x       y       z     vdW  Elec       q    Type
REMARK                         _______ _______ _______ _____ _____    ______ ____
ROOT
ATOM      1  C   UNL     1      48.240   7.738  14.386  0.00  0.00    +0.000 A 
ATOM      2  C   UNL     1      47.549   8.807  13.793  0.00  0.00    +0.000 A 
ATOM      3  C   UNL     1      46.514   8.565  12.887  0.00  0.00    +0.000 A 
ATOM      4  C   UNL     1      46.152   7.251  12.563  0.00  0.00    +0.000 A 
ATOM      5  C   UNL     1      46.886   6.188  13.109  0.00  0.00    +0.000 A 
ATOM      6  C   UNL     1      47.912   6.427  14.023  0.00  0.00    +0.000 A 
ENDROOT
BRANCH   1   7
ATOM      7  C   UNL     1      49.302   7.991  15.426  0.00  0.00    +0.000 C 
BRANCH   7   9
ATOM      8  C   UNL     1      47.893   9.261  17.117  0.00  0.00    +0.000 C 
ATOM      9  N   UNL     1      48.854   8.207  16.810  0.00  0.00    +0.000 N 
ATOM     10  C   UNL     1      49.124   7.314  17.864  0.00  0.00    +0.000 C 
ATOM     11  O   UNL     1      48.586   7.449  18.962  0.00  0.00    +0.000 OA
BRANCH  10  12
ATOM     12  C   UNL     1      50.096   6.230  17.666  0.00  0.00    +0.000 A 
ATOM     13  C   UNL     1      51.459   6.351  17.882  0.00  0.00    +0.000 A 
ATOM     14  S   UNL     1      52.323   4.899  17.640  0.00  0.00    +0.000 S 
ATOM     15  C   UNL     1      50.885   4.027  17.383  0.00  0.00    +0.000 A 
ATOM     16  N   UNL     1      50.909   2.679  17.219  0.00  0.00    +0.000 NA
ATOM     17  C   UNL     1      49.738   2.142  17.104  0.00  0.00    +0.000 A 
ATOM     18  N   UNL     1      48.556   2.834  17.103  0.00  0.00    +0.000 N 
ATOM     19  C   UNL     1      48.493   4.213  17.125  0.00  0.00    +0.000 A 
ATOM     20  O   UNL     1      47.448   4.800  16.873  0.00  0.00    +0.000 OA
ATOM     21  C   UNL     1      49.774   4.851  17.382  0.00  0.00    +0.000 A 
ATOM     22  H   UNL     1      47.681   2.360  16.937  0.00  0.00    +0.000 HD
ENDBRANCH  10  12
ENDBRANCH   7   9
ENDBRANCH   1   7
BRANCH   4  23
ATOM     23  C   UNL     1      44.986   6.976  11.654  0.00  0.00    +0.000 C 
BRANCH  23  24
ATOM     24  N   UNL     1      45.288   5.957  10.685  0.00  0.00    +0.000 N 
ATOM     25  C   UNL     1      44.617   4.763  10.691  0.00  0.00    +0.000 C 
ATOM     26  O   UNL     1      43.744   4.495  11.515  0.00  0.00    +0.000 OA
ATOM     27  H   UNL     1      45.932   6.173   9.937  0.00  0.00    +0.000 HD
BRANCH  25  28
ATOM     28  C   UNL     1      45.003   3.831   9.649  0.00  0.00    +0.000 A 
ATOM     29  C   UNL     1      45.455   4.021   8.351  0.00  0.00    +0.000 A 
ATOM     30  C   UNL     1      45.697   2.753   7.777  0.00  0.00    +0.000 A 
ATOM     31  C   UNL     1      45.389   1.808   8.728  0.00  0.00    +0.000 A 
ATOM     32  N   UNL     1      44.974   2.466   9.854  0.00  0.00    +0.000 N 
ATOM     33  H   UNL     1      44.685   2.036  10.725  0.00  0.00    +0.000 HD
ENDBRANCH  25  28
ENDBRANCH  23  24
ENDBRANCH   4  23
TORSDOF 6
ENDMDL
MODEL 7
REMARK VINA RESULT:    -6.858      2.813      8.883
REMARK INTER + INTRA:         -10.068
REMARK INTER:                  -9.254
REMARK INTRA:                  -0.814
REMARK UNBOUND:                -0.805
REMARK  Name = 
REMARK  7 active torsions:
REMARK  status: ('A' for Active; 'I' for Inactive)
REMARK    1  A    between atoms: C_1  and  N_2
REMARK    2  A    between atoms: N_2  and  C_3
REMARK    3  A    between atoms: C_3  and  C_4
REMARK    4  A    between atoms: C_7  and  C_8
REMARK    5  A    between atoms: C_8  and  N_9
REMARK    6  A    between atoms: C_10  and  C_12
REMARK    7  A    between atoms: C_19  and  C_21
REMARK                            x       y       z     vdW  Elec       q    Type
REMARK                         _______ _______ _______ _____ _____    ______ ____
ROOT
ATOM      1  C   UNL     1      48.279   5.748  15.415  0.00  0.00    +0.000 A 
ATOM      2  C   UNL     1      48.225   6.884  14.592  0.00  0.00    +0.000 A 
ATOM      3  C   UNL     1      47.265   6.981  13.580  0.00  0.00    +0.000 A 
ATOM      4  C   UNL     1      46.345   5.943  13.379  0.00  0.00    +0.000 A 
ATOM      5  C   UNL     1      46.443   4.784  14.163  0.00  0.00    +0.000 A 
ATOM      6  C   UNL     1      47.392   4.692  15.181  0.00  0.00    +0.000 A 
ENDROOT
BRANCH   1   7
ATOM      7  C   UNL     1      49.256   5.675  16.560  0.00  0.00    +0.000 C 
BRANCH   7   9
ATOM      8  C   UNL     1      47.318   5.747  18.202  0.00  0.00    +0.000 C 
ATOM      9  N   UNL     1      48.709   5.425  17.902  0.00  0.00    +0.000 N 
ATOM     10  C   UNL     1      49.379   4.679  18.890  0.00  0.00    +0.000 C 
ATOM     11  O   UNL     1      48.811   4.352  19.931  0.00  0.00    +0.000 OA
BRANCH  10  12
ATOM     12  C   UNL     1      50.791   4.322  18.697  0.00  0.00    +0.000 A 
ATOM     13  C   UNL     1      51.857   5.021  19.239  0.00  0.00    +0.000 A 
ATOM     14  S   UNL     1      53.378   4.322  18.903  0.00  0.00    +0.000 S 
ATOM     15  C   UNL     1      52.651   2.983  18.146  0.00  0.00    +0.000 A 
ATOM     16  N   UNL     1      53.403   1.937  17.713  0.00  0.00    +0.000 NA
ATOM     17  C   UNL     1      52.711   0.960  17.224  0.00  0.00    +0.000 A 
ATOM     18  N   UNL     1      51.347   0.952  17.098  0.00  0.00    +0.000 N 
ATOM     19  C   UNL     1      50.559   2.047  17.393  0.00  0.00    +0.000 A 
ATOM     20  O   UNL     1      49.387   2.095  17.037  0.00  0.00    +0.000 OA
ATOM     21  C   UNL     1      51.278   3.118  18.064  0.00  0.00    +0.000 A 
ATOM     22  H   UNL     1      50.876   0.186  16.640  0.00  0.00    +0.000 HD
ENDBRANCH  10  12
ENDBRANCH   7   9
ENDBRANCH   1   7
BRANCH   4  23
ATOM     23  C   UNL     1      45.257   6.070  12.350  0.00  0.00    +0.000 C 
BRANCH  23  24
ATOM     24  N   UNL     1      45.535   5.290  11.174  0.00  0.00    +0.000 N 
ATOM     25  C   UNL     1      44.794   4.177  10.879  0.00  0.00    +0.000 C 
ATOM     26  O   UNL     1      43.875   3.782  11.593  0.00  0.00    +0.000 OA
ATOM     27  H   UNL     1      46.221   5.633  10.515  0.00  0.00    +0.000 HD
BRANCH  25  28
ATOM     28  C   UNL     1      45.165   3.494   9.654  0.00  0.00    +0.000 A 
ATOM     29  C   UNL     1      45.491   3.962   8.389  0.00  0.00    +0.000 A 
ATOM     30  C   UNL     1      45.784   2.850   7.568  0.00  0.00    +0.000 A 
ATOM     31  C   UNL     1      45.634   1.721   8.340  0.00  0.00    +0.000 A 
ATOM     32  N   UNL     1      45.262   2.119   9.595  0.00  0.00    +0.000 N 
ATOM     33  H   UNL     1      45.082   1.510  10.385  0.00  0.00    +0.000 HD
ENDBRANCH  25  28
ENDBRANCH  23  24
ENDBRANCH   4  23
TORSDOF 6
ENDMDL
MODEL 8
REMARK VINA RESULT:    -6.799      3.188      8.202
REMARK INTER + INTRA:          -9.989
REMARK INTER:                  -8.507
REMARK INTRA:                  -1.483
REMARK UNBOUND:                -0.805
REMARK  Name = 
REMARK  7 active torsions:
REMARK  status: ('A' for Active; 'I' for Inactive)
REMARK    1  A    between atoms: C_1  and  N_2
REMARK    2  A    between atoms: N_2  and  C_3
REMARK    3  A    between atoms: C_3  and  C_4
REMARK    4  A    between atoms: C_7  and  C_8
REMARK    5  A    between atoms: C_8  and  N_9
REMARK    6  A    between atoms: C_10  and  C_12
REMARK    7  A    between atoms: C_19  and  C_21
REMARK                            x       y       z     vdW  Elec       q    Type
REMARK                         _______ _______ _______ _____ _____    ______ ____
ROOT
ATOM      1  C   UNL     1      49.896   7.959  16.728  0.00  0.00    +0.000 A 
ATOM      2  C   UNL     1      49.277   9.206  16.549  0.00  0.00    +0.000 A 
ATOM      3  C   UNL     1      48.438   9.430  15.455  0.00  0.00    +0.000 A 
ATOM      4  C   UNL     1      48.203   8.408  14.525  0.00  0.00    +0.000 A 
ATOM      5  C   UNL     1      48.872   7.184  14.674  0.00  0.00    +0.000 A 
ATOM      6  C   UNL     1      49.701   6.956  15.772  0.00  0.00    +0.000 A 
ENDROOT
BRANCH   1   7
ATOM      7  C   UNL     1      50.736   7.686  17.950  0.00  0.00    +0.000 C 
BRANCH   7   9
ATOM      8  C   UNL     1      49.481   8.339  20.061  0.00  0.00    +0.000 C 
ATOM      9  N   UNL     1      50.031   7.310  19.184  0.00  0.00    +0.000 N 
ATOM     10  C   UNL     1      49.645   5.992  19.490  0.00  0.00    +0.000 C 
ATOM     11  O   UNL     1      48.910   5.752  20.447  0.00  0.00    +0.000 OA
BRANCH  10  12
ATOM     12  C   UNL     1      50.162   4.878  18.683  0.00  0.00    +0.000 A 
ATOM     13  C   UNL     1      51.451   4.378  18.771  0.00  0.00    +0.000 A 
ATOM     14  S   UNL     1      51.735   3.032  17.760  0.00  0.00    +0.000 S 
ATOM     15  C   UNL     1      50.104   2.984  17.280  0.00  0.00    +0.000 A 
ATOM     16  N   UNL     1      49.643   1.986  16.482  0.00  0.00    +0.000 NA
ATOM     17  C   UNL     1      48.371   2.037  16.258  0.00  0.00    +0.000 A 
ATOM     18  N   UNL     1      47.531   3.013  16.727  0.00  0.00    +0.000 N 
ATOM     19  C   UNL     1      47.980   4.119  17.420  0.00  0.00    +0.000 A 
ATOM     20  O   UNL     1      47.249   5.086  17.606  0.00  0.00    +0.000 OA
ATOM     21  C   UNL     1      49.379   4.038  17.805  0.00  0.00    +0.000 A 
ATOM     22  H   UNL     1      46.560   3.033  16.454  0.00  0.00    +0.000 HD
ENDBRANCH  10  12
ENDBRANCH   7   9
ENDBRANCH   1   7
BRANCH   4  23
ATOM     23  C   UNL     1      47.238   8.608  13.390  0.00  0.00    +0.000 C 
BRANCH  23  24
ATOM     24  N   UNL     1      46.160   7.657  13.426  0.00  0.00    +0.000 N 
ATOM     25  C   UNL     1      46.052   6.682  12.470  0.00  0.00    +0.000 C 
ATOM     26  O   UNL     1      46.848   6.572  11.540  0.00  0.00    +0.000 OA
ATOM     27  H   UNL     1      45.538   7.657  14.223  0.00  0.00    +0.000 HD
BRANCH  25  28
ATOM     28  C   UNL     1      44.931   5.776  12.634  0.00  0.00    +0.000 A 
ATOM     29  C   UNL     1      44.862   4.434  12.981  0.00  0.00    +0.000 A 
ATOM     30  C   UNL     1      43.500   4.054  13.005  0.00  0.00    +0.000 A 
ATOM     31  C   UNL     1      42.760   5.164  12.672  0.00  0.00    +0.000 A 
ATOM     32  N   UNL     1      43.629   6.197  12.452  0.00  0.00    +0.000 N 
ATOM     33  H   UNL     1      43.378   7.145  12.195  0.00  0.00    +0.000 HD
ENDBRANCH  25  28
ENDBRANCH  23  24
ENDBRANCH   4  23
TORSDOF 6
ENDMDL
MODEL 9
REMARK VINA RESULT:    -6.398      3.584      8.140
REMARK INTER + INTRA:          -9.447
REMARK INTER:                  -7.657
REMARK INTRA:                  -1.790
REMARK UNBOUND:                -0.805
REMARK  Name = 
REMARK  7 active torsions:
REMARK  status: ('A' for Active; 'I' for Inactive)
REMARK    1  A    between atoms: C_1  and  N_2
REMARK    2  A    between atoms: N_2  and  C_3
REMARK    3  A    between atoms: C_3  and  C_4
REMARK    4  A    between atoms: C_7  and  C_8
REMARK    5  A    between atoms: C_8  and  N_9
REMARK    6  A    between atoms: C_10  and  C_12
REMARK    7  A    between atoms: C_19  and  C_21
REMARK                            x       y       z     vdW  Elec       q    Type
REMARK                         _______ _______ _______ _____ _____    ______ ____
ROOT
ATOM      1  C   UNL     1      49.630   8.686  16.302  0.00  0.00    +0.000 A 
ATOM      2  C   UNL     1      48.310   8.873  15.861  0.00  0.00    +0.000 A 
ATOM      3  C   UNL     1      47.912   8.419  14.601  0.00  0.00    +0.000 A 
ATOM      4  C   UNL     1      48.827   7.769  13.764  0.00  0.00    +0.000 A 
ATOM      5  C   UNL     1      50.160   7.639  14.182  0.00  0.00    +0.000 A 
ATOM      6  C   UNL     1      50.555   8.081  15.445  0.00  0.00    +0.000 A 
ENDROOT
BRANCH   1   7
ATOM      7  C   UNL     1      50.042   9.098  17.692  0.00  0.00    +0.000 C 
BRANCH   7   9
ATOM      8  C   UNL     1      52.514   8.829  18.218  0.00  0.00    +0.000 C 
ATOM      9  N   UNL     1      51.139   8.349  18.321  0.00  0.00    +0.000 N 
ATOM     10  C   UNL     1      50.940   7.289  19.225  0.00  0.00    +0.000 C 
ATOM     11  O   UNL     1      51.880   6.808  19.856  0.00  0.00    +0.000 OA
BRANCH  10  12
ATOM     12  C   UNL     1      49.597   6.716  19.387  0.00  0.00    +0.000 A 
ATOM     13  C   UNL     1      48.684   7.116  20.350  0.00  0.00    +0.000 A 
ATOM     14  S   UNL     1      47.179   6.318  20.242  0.00  0.00    +0.000 S 
ATOM     15  C   UNL     1      47.648   5.518  18.817  0.00  0.00    +0.000 A 
ATOM     16  N   UNL     1      46.767   4.741  18.133  0.00  0.00    +0.000 NA
ATOM     17  C   UNL     1      47.240   4.254  17.032  0.00  0.00    +0.000 A 
ATOM     18  N   UNL     1      48.517   4.445  16.576  0.00  0.00    +0.000 N 
ATOM     19  C   UNL     1      49.484   5.108  17.305  0.00  0.00    +0.000 A 
ATOM     20  O   UNL     1      50.666   5.045  16.988  0.00  0.00    +0.000 OA
ATOM     21  C   UNL     1      48.965   5.779  18.486  0.00  0.00    +0.000 A 
ATOM     22  H   UNL     1      48.843   3.977  15.744  0.00  0.00    +0.000 HD
ENDBRANCH  10  12
ENDBRANCH   7   9
ENDBRANCH   1   7
BRANCH   4  23
ATOM     23  C   UNL     1      48.392   7.203  12.441  0.00  0.00    +0.000 C 
BRANCH  23  24
ATOM     24  N   UNL     1      47.028   6.748  12.473  0.00  0.00    +0.000 N 
ATOM     25  C   UNL     1      46.704   5.538  13.025  0.00  0.00    +0.000 C 
ATOM     26  O   UNL     1      47.544   4.781  13.507  0.00  0.00    +0.000 OA
ATOM     27  H   UNL     1      46.299   7.380  12.170  0.00  0.00    +0.000 HD
BRANCH  25  28
ATOM     28  C   UNL     1      45.291   5.210  13.011  0.00  0.00    +0.000 A 
ATOM     29  C   UNL     1      44.157   5.989  12.836  0.00  0.00    +0.000 A 
ATOM     30  C   UNL     1      43.026   5.143  12.903  0.00  0.00    +0.000 A 
ATOM     31  C   UNL     1      43.483   3.864  13.118  0.00  0.00    +0.000 A 
ATOM     32  N   UNL     1      44.850   3.913  13.180  0.00  0.00    +0.000 N 
ATOM     33  H   UNL     1      45.469   3.124  13.325  0.00  0.00    +0.000 HD
ENDBRANCH  25  28
ENDBRANCH  23  24
ENDBRANCH   4  23
TORSDOF 6
ENDMDL
