MODEL 1
REMARK VINA RESULT:    -8.796      0.000      0.000
REMARK INTER + INTRA:         -12.736
REMARK INTER:                 -11.882
REMARK INTRA:                  -0.854
REMARK UNBOUND:                -0.854
REMARK  Name = 
REMARK  7 active torsions:
REMARK  status: ('A' for Active; 'I' for Inactive)
REMARK    1  A    between atoms: C_1  and  O_2
REMARK    2  A    between atoms: O_2  and  C_3
REMARK    3  A    between atoms: C_5  and  C_6
REMARK    4  A    between atoms: C_6  and  N_7
REMARK    5  A    between atoms: C_8  and  C_10
REMARK    6  A    between atoms: C_22  and  C_23
REMARK    7  A    between atoms: C_23  and  C_24
REMARK                            x       y       z     vdW  Elec       q    Type
REMARK                         _______ _______ _______ _____ _____    ______ ____
ROOT
ATOM      1  C   UNL     1      45.853   7.490  12.394  0.00  0.00    +0.000 C 
ENDROOT
BRANCH   1   4
ATOM      2  C   UNL     1      44.040   4.486  10.948  0.00  0.00    +0.000 A 
ATOM      3  C   UNL     1      44.417   5.522  11.806  0.00  0.00    +0.000 A 
ATOM      4  C   UNL     1      45.465   6.379  11.470  0.00  0.00    +0.000 A 
ATOM      5  C   UNL     1      46.097   6.171  10.255  0.00  0.00    +0.000 A 
ATOM      6  N   UNL     1      45.776   5.174   9.399  0.00  0.00    +0.000 NA
ATOM      7  C   UNL     1      44.755   4.337   9.752  0.00  0.00    +0.000 A 
BRANCH   2   9
ATOM      8  C   UNL     1      43.386   2.533  12.112  0.00  0.00    +0.000 C 
ATOM      9  O   UNL     1      43.037   3.601  11.233  0.00  0.00    +0.000 OA
ENDBRANCH   2   9
BRANCH   7  10
ATOM     10  C   UNL     1      44.390   3.282   8.726  0.00  0.00    +0.000 C 
BRANCH  10  11
ATOM     11  C   UNL     1      45.597   2.720   8.007  0.00  0.00    +0.000 A 
ATOM     12  C   UNL     1      46.158   3.402   6.925  0.00  0.00    +0.000 A 
ATOM     13  C   UNL     1      47.175   2.794   6.197  0.00  0.00    +0.000 A 
ATOM     14  C   UNL     1      47.631   1.541   6.582  0.00  0.00    +0.000 A 
ATOM     15  C   UNL     1      47.071   0.960   7.706  0.00  0.00    +0.000 A 
ATOM     16  N   UNL     1      46.072   1.518   8.424  0.00  0.00    +0.000 NA
ENDBRANCH  10  11
ENDBRANCH   7  10
ENDBRANCH   1   4
BRANCH   1  17
ATOM     17  N   UNL     1      46.505   6.998  13.580  0.00  0.00    +0.000 N 
ATOM     18  C   UNL     1      47.854   6.760  13.655  0.00  0.00    +0.000 C 
ATOM     19  O   UNL     1      48.597   6.911  12.694  0.00  0.00    +0.000 OA
ATOM     20  H   UNL     1      45.900   6.681  14.329  0.00  0.00    +0.000 HD
BRANCH  18  21
ATOM     21  C   UNL     1      48.374   6.389  14.981  0.00  0.00    +0.000 A 
ATOM     22  C   UNL     1      49.342   7.184  15.582  0.00  0.00    +0.000 A 
ATOM     23  S   UNL     1      49.793   6.654  17.139  0.00  0.00    +0.000 S 
ATOM     24  C   UNL     1      48.752   5.313  17.045  0.00  0.00    +0.000 A 
ATOM     25  N   UNL     1      48.676   4.415  18.064  0.00  0.00    +0.000 NA
ATOM     26  C   UNL     1      47.877   3.425  17.845  0.00  0.00    +0.000 A 
ATOM     27  N   UNL     1      47.136   3.258  16.704  0.00  0.00    +0.000 N 
ATOM     28  C   UNL     1      47.132   4.172  15.677  0.00  0.00    +0.000 A 
ATOM     29  O   UNL     1      46.376   4.048  14.720  0.00  0.00    +0.000 OA
ATOM     30  C   UNL     1      48.049   5.283  15.853  0.00  0.00    +0.000 A 
ATOM     31  H   UNL     1      46.509   2.473  16.607  0.00  0.00    +0.000 HD
ENDBRANCH  18  21
ENDBRANCH   1  17
TORSDOF 6
ENDMDL
MODEL 2
REMARK VINA RESULT:    -7.829      2.123      2.721
REMARK INTER + INTRA:         -11.429
REMARK INTER:                 -10.686
REMARK INTRA:                  -0.743
REMARK UNBOUND:                -0.854
REMARK  Name = 
REMARK  7 active torsions:
REMARK  status: ('A' for Active; 'I' for Inactive)
REMARK    1  A    between atoms: C_1  and  O_2
REMARK    2  A    between atoms: O_2  and  C_3
REMARK    3  A    between atoms: C_5  and  C_6
REMARK    4  A    between atoms: C_6  and  N_7
REMARK    5  A    between atoms: C_8  and  C_10
REMARK    6  A    between atoms: C_22  and  C_23
REMARK    7  A    between atoms: C_23  and  C_24
REMARK                            x       y       z     vdW  Elec       q    Type
REMARK                         _______ _______ _______ _____ _____    ______ ____
ROOT
ATOM      1  C   UNL     1      47.362   6.912  13.639  0.00  0.00    +0.000 C 
ENDROOT
BRANCH   1   4
ATOM      2  C   UNL     1      45.334   4.240  11.863  0.00  0.00    +0.000 A 
ATOM      3  C   UNL     1      46.034   4.937  12.850  0.00  0.00    +0.000 A 
ATOM      4  C   UNL     1      46.623   6.170  12.570  0.00  0.00    +0.000 A 
ATOM      5  C   UNL     1      46.471   6.674  11.288  0.00  0.00    +0.000 A 
ATOM      6  N   UNL     1      45.815   6.029  10.297  0.00  0.00    +0.000 NA
ATOM      7  C   UNL     1      45.255   4.816  10.588  0.00  0.00    +0.000 A 
BRANCH   2   9
ATOM      8  C   UNL     1      43.385   3.042  12.471  0.00  0.00    +0.000 C 
ATOM      9  O   UNL     1      44.755   3.018  12.073  0.00  0.00    +0.000 OA
ENDBRANCH   2   9
BRANCH   7  10
ATOM     10  C   UNL     1      44.473   4.170   9.463  0.00  0.00    +0.000 C 
BRANCH  10  11
ATOM     11  C   UNL     1      45.345   3.354   8.534  0.00  0.00    +0.000 A 
ATOM     12  C   UNL     1      45.503   1.981   8.736  0.00  0.00    +0.000 A 
ATOM     13  C   UNL     1      46.420   1.284   7.954  0.00  0.00    +0.000 A 
ATOM     14  C   UNL     1      47.129   1.962   6.973  0.00  0.00    +0.000 A 
ATOM     15  C   UNL     1      46.866   3.308   6.790  0.00  0.00    +0.000 A 
ATOM     16  N   UNL     1      45.995   4.015   7.542  0.00  0.00    +0.000 NA
ENDBRANCH  10  11
ENDBRANCH   7  10
ENDBRANCH   1   4
BRANCH   1  17
ATOM     17  N   UNL     1      47.486   6.134  14.844  0.00  0.00    +0.000 N 
ATOM     18  C   UNL     1      48.645   6.056  15.574  0.00  0.00    +0.000 C 
ATOM     19  O   UNL     1      49.676   6.615  15.224  0.00  0.00    +0.000 OA
ATOM     20  H   UNL     1      46.718   5.508  15.059  0.00  0.00    +0.000 HD
BRANCH  18  21
ATOM     21  C   UNL     1      48.559   5.327  16.850  0.00  0.00    +0.000 A 
ATOM     22  C   UNL     1      48.497   3.940  16.841  0.00  0.00    +0.000 A 
ATOM     23  S   UNL     1      48.464   3.245  18.398  0.00  0.00    +0.000 S 
ATOM     24  C   UNL     1      48.475   4.774  19.141  0.00  0.00    +0.000 A 
ATOM     25  N   UNL     1      48.430   4.893  20.496  0.00  0.00    +0.000 NA
ATOM     26  C   UNL     1      48.404   6.110  20.925  0.00  0.00    +0.000 A 
ATOM     27  N   UNL     1      48.433   7.221  20.122  0.00  0.00    +0.000 N 
ATOM     28  C   UNL     1      48.543   7.149  18.753  0.00  0.00    +0.000 A 
ATOM     29  O   UNL     1      48.677   8.162  18.073  0.00  0.00    +0.000 OA
ATOM     30  C   UNL     1      48.531   5.802  18.216  0.00  0.00    +0.000 A 
ATOM     31  H   UNL     1      48.437   8.147  20.523  0.00  0.00    +0.000 HD
ENDBRANCH  18  21
ENDBRANCH   1  17
TORSDOF 6
ENDMDL
MODEL 3
REMARK VINA RESULT:    -7.739      2.306      3.851
REMARK INTER + INTRA:         -11.307
REMARK INTER:                 -10.308
REMARK INTRA:                  -0.999
REMARK UNBOUND:                -0.854
REMARK  Name = 
REMARK  7 active torsions:
REMARK  status: ('A' for Active; 'I' for Inactive)
REMARK    1  A    between atoms: C_1  and  O_2
REMARK    2  A    between atoms: O_2  and  C_3
REMARK    3  A    between atoms: C_5  and  C_6
REMARK    4  A    between atoms: C_6  and  N_7
REMARK    5  A    between atoms: C_8  and  C_10
REMARK    6  A    between atoms: C_22  and  C_23
REMARK    7  A    between atoms: C_23  and  C_24
REMARK                            x       y       z     vdW  Elec       q    Type
REMARK                         _______ _______ _______ _____ _____    ______ ____
ROOT
ATOM      1  C   UNL     1      46.836   4.442  14.845  0.00  0.00    +0.000 C 
ENDROOT
BRANCH   1   4
ATOM      2  C   UNL     1      45.429   5.557  11.501  0.00  0.00    +0.000 A 
ATOM      3  C   UNL     1      46.035   5.578  12.760  0.00  0.00    +0.000 A 
ATOM      4  C   UNL     1      46.178   4.407  13.503  0.00  0.00    +0.000 A 
ATOM      5  C   UNL     1      45.712   3.231  12.937  0.00  0.00    +0.000 A 
ATOM      6  N   UNL     1      45.106   3.163  11.729  0.00  0.00    +0.000 NA
ATOM      7  C   UNL     1      44.965   4.324  11.022  0.00  0.00    +0.000 A 
BRANCH   2   9
ATOM      8  C   UNL     1      44.672   7.797  11.413  0.00  0.00    +0.000 C 
ATOM      9  O   UNL     1      45.242   6.676  10.738  0.00  0.00    +0.000 OA
ENDBRANCH   2   9
BRANCH   7  10
ATOM     10  C   UNL     1      44.344   4.181   9.646  0.00  0.00    +0.000 C 
BRANCH  10  11
ATOM     11  C   UNL     1      45.247   3.466   8.665  0.00  0.00    +0.000 A 
ATOM     12  C   UNL     1      45.444   2.087   8.760  0.00  0.00    +0.000 A 
ATOM     13  C   UNL     1      46.387   1.480   7.936  0.00  0.00    +0.000 A 
ATOM     14  C   UNL     1      47.084   2.253   7.018  0.00  0.00    +0.000 A 
ATOM     15  C   UNL     1      46.782   3.602   6.938  0.00  0.00    +0.000 A 
ATOM     16  N   UNL     1      45.885   4.222   7.735  0.00  0.00    +0.000 NA
ENDBRANCH  10  11
ENDBRANCH   7  10
ENDBRANCH   1   4
BRANCH   1  17
ATOM     17  N   UNL     1      47.529   5.684  15.070  0.00  0.00    +0.000 N 
ATOM     18  C   UNL     1      48.611   5.802  15.906  0.00  0.00    +0.000 C 
ATOM     19  O   UNL     1      49.039   4.858  16.556  0.00  0.00    +0.000 OA
ATOM     20  H   UNL     1      47.089   6.520  14.703  0.00  0.00    +0.000 HD
BRANCH  18  21
ATOM     21  C   UNL     1      49.282   7.113  15.916  0.00  0.00    +0.000 A 
ATOM     22  C   UNL     1      49.495   7.761  17.125  0.00  0.00    +0.000 A 
ATOM     23  S   UNL     1      50.337   9.236  16.972  0.00  0.00    +0.000 S 
ATOM     24  C   UNL     1      50.399   9.089  15.279  0.00  0.00    +0.000 A 
ATOM     25  N   UNL     1      50.977  10.055  14.515  0.00  0.00    +0.000 NA
ATOM     26  C   UNL     1      50.920   9.836  13.244  0.00  0.00    +0.000 A 
ATOM     27  N   UNL     1      50.349   8.731  12.668  0.00  0.00    +0.000 N 
ATOM     28  C   UNL     1      49.811   7.700  13.403  0.00  0.00    +0.000 A 
ATOM     29  O   UNL     1      49.407   6.677  12.860  0.00  0.00    +0.000 OA
ATOM     30  C   UNL     1      49.810   7.918  14.837  0.00  0.00    +0.000 A 
ATOM     31  H   UNL     1      50.360   8.608  11.666  0.00  0.00    +0.000 HD
ENDBRANCH  18  21
ENDBRANCH   1  17
TORSDOF 6
ENDMDL
MODEL 4
REMARK VINA RESULT:    -7.332      2.774      3.712
REMARK INTER + INTRA:         -10.758
REMARK INTER:                 -10.076
REMARK INTRA:                  -0.682
REMARK UNBOUND:                -0.854
REMARK  Name = 
REMARK  7 active torsions:
REMARK  status: ('A' for Active; 'I' for Inactive)
REMARK    1  A    between atoms: C_1  and  O_2
REMARK    2  A    between atoms: O_2  and  C_3
REMARK    3  A    between atoms: C_5  and  C_6
REMARK    4  A    between atoms: C_6  and  N_7
REMARK    5  A    between atoms: C_8  and  C_10
REMARK    6  A    between atoms: C_22  and  C_23
REMARK    7  A    between atoms: C_23  and  C_24
REMARK                            x       y       z     vdW  Elec       q    Type
REMARK                         _______ _______ _______ _____ _____    ______ ____
ROOT
ATOM      1  C   UNL     1      47.243   4.265  14.977  0.00  0.00    +0.000 C 
ENDROOT
BRANCH   1   4
ATOM      2  C   UNL     1      45.738   5.614  11.764  0.00  0.00    +0.000 A 
ATOM      3  C   UNL     1      46.406   5.542  12.989  0.00  0.00    +0.000 A 
ATOM      4  C   UNL     1      46.517   4.330  13.670  0.00  0.00    +0.000 A 
ATOM      5  C   UNL     1      45.957   3.210  13.078  0.00  0.00    +0.000 A 
ATOM      6  N   UNL     1      45.289   3.233  11.901  0.00  0.00    +0.000 NA
ATOM      7  C   UNL     1      45.180   4.433  11.255  0.00  0.00    +0.000 A 
BRANCH   2   9
ATOM      8  C   UNL     1      45.000   7.862  11.788  0.00  0.00    +0.000 C 
ATOM      9  O   UNL     1      45.577   6.777  11.063  0.00  0.00    +0.000 OA
ENDBRANCH   2   9
BRANCH   7  10
ATOM     10  C   UNL     1      44.485   4.390   9.909  0.00  0.00    +0.000 C 
BRANCH  10  11
ATOM     11  C   UNL     1      45.285   3.655   8.857  0.00  0.00    +0.000 A 
ATOM     12  C   UNL     1      45.368   2.261   8.877  0.00  0.00    +0.000 A 
ATOM     13  C   UNL     1      46.224   1.622   7.984  0.00  0.00    +0.000 A 
ATOM     14  C   UNL     1      46.947   2.382   7.075  0.00  0.00    +0.000 A 
ATOM     15  C   UNL     1      46.758   3.753   7.074  0.00  0.00    +0.000 A 
ATOM     16  N   UNL     1      45.947   4.402   7.937  0.00  0.00    +0.000 NA
ENDBRANCH  10  11
ENDBRANCH   7  10
ENDBRANCH   1   4
BRANCH   1  17
ATOM     17  N   UNL     1      47.493   5.576  15.517  0.00  0.00    +0.000 N 
ATOM     18  C   UNL     1      48.576   5.871  16.307  0.00  0.00    +0.000 C 
ATOM     19  O   UNL     1      49.389   5.020  16.644  0.00  0.00    +0.000 OA
ATOM     20  H   UNL     1      46.746   6.255  15.421  0.00  0.00    +0.000 HD
BRANCH  18  21
ATOM     21  C   UNL     1      48.752   7.289  16.662  0.00  0.00    +0.000 A 
ATOM     22  C   UNL     1      49.401   8.139  15.776  0.00  0.00    +0.000 A 
ATOM     23  S   UNL     1      49.469   9.758  16.306  0.00  0.00    +0.000 S 
ATOM     24  C   UNL     1      48.682   9.373  17.763  0.00  0.00    +0.000 A 
ATOM     25  N   UNL     1      48.445  10.327  18.704  0.00  0.00    +0.000 NA
ATOM     26  C   UNL     1      47.877   9.891  19.777  0.00  0.00    +0.000 A 
ATOM     27  N   UNL     1      47.511   8.587  19.991  0.00  0.00    +0.000 N 
ATOM     28  C   UNL     1      47.671   7.603  19.044  0.00  0.00    +0.000 A 
ATOM     29  O   UNL     1      47.233   6.471  19.225  0.00  0.00    +0.000 OA
ATOM     30  C   UNL     1      48.347   8.032  17.834  0.00  0.00    +0.000 A 
ATOM     31  H   UNL     1      47.045   8.315  20.844  0.00  0.00    +0.000 HD
ENDBRANCH  18  21
ENDBRANCH   1  17
TORSDOF 6
ENDMDL
MODEL 5
REMARK VINA RESULT:    -7.315      1.878      2.801
REMARK INTER + INTRA:         -10.734
REMARK INTER:                  -9.872
REMARK INTRA:                  -0.862
REMARK UNBOUND:                -0.854
REMARK  Name = 
REMARK  7 active torsions:
REMARK  status: ('A' for Active; 'I' for Inactive)
REMARK    1  A    between atoms: C_1  and  O_2
REMARK    2  A    between atoms: O_2  and  C_3
REMARK    3  A    between atoms: C_5  and  C_6
REMARK    4  A    between atoms: C_6  and  N_7
REMARK    5  A    between atoms: C_8  and  C_10
REMARK    6  A    between atoms: C_22  and  C_23
REMARK    7  A    between atoms: C_23  and  C_24
REMARK                            x       y       z     vdW  Elec       q    Type
REMARK                         _______ _______ _______ _____ _____    ______ ____
ROOT
ATOM      1  C   UNL     1      47.887   8.220  13.728  0.00  0.00    +0.000 C 
ENDROOT
BRANCH   1   4
ATOM      2  C   UNL     1      45.936   5.145  12.659  0.00  0.00    +0.000 A 
ATOM      3  C   UNL     1      46.821   5.985  13.339  0.00  0.00    +0.000 A 
ATOM      4  C   UNL     1      46.942   7.329  12.986  0.00  0.00    +0.000 A 
ATOM      5  C   UNL     1      46.143   7.792  11.953  0.00  0.00    +0.000 A 
ATOM      6  N   UNL     1      45.283   7.014  11.256  0.00  0.00    +0.000 NA
ATOM      7  C   UNL     1      45.188   5.697  11.610  0.00  0.00    +0.000 A 
BRANCH   2   9
ATOM      8  C   UNL     1      46.840   3.232  13.719  0.00  0.00    +0.000 C 
ATOM      9  O   UNL     1      45.792   3.815  12.945  0.00  0.00    +0.000 OA
ENDBRANCH   2   9
BRANCH   7  10
ATOM     10  C   UNL     1      44.160   4.887  10.845  0.00  0.00    +0.000 C 
BRANCH  10  11
ATOM     11  C   UNL     1      44.771   4.061   9.734  0.00  0.00    +0.000 A 
ATOM     12  C   UNL     1      44.694   2.668   9.764  0.00  0.00    +0.000 A 
ATOM     13  C   UNL     1      45.385   1.932   8.806  0.00  0.00    +0.000 A 
ATOM     14  C   UNL     1      46.104   2.600   7.825  0.00  0.00    +0.000 A 
ATOM     15  C   UNL     1      46.075   3.984   7.823  0.00  0.00    +0.000 A 
ATOM     16  N   UNL     1      45.427   4.725   8.748  0.00  0.00    +0.000 NA
ENDBRANCH  10  11
ENDBRANCH   7  10
ENDBRANCH   1   4
BRANCH   1  17
ATOM     17  N   UNL     1      47.898   7.933  15.139  0.00  0.00    +0.000 N 
ATOM     18  C   UNL     1      48.913   7.251  15.761  0.00  0.00    +0.000 C 
ATOM     19  O   UNL     1      49.868   6.798  15.144  0.00  0.00    +0.000 OA
ATOM     20  H   UNL     1      47.040   8.122  15.645  0.00  0.00    +0.000 HD
BRANCH  18  21
ATOM     21  C   UNL     1      48.831   7.163  17.228  0.00  0.00    +0.000 A 
ATOM     22  C   UNL     1      48.729   8.328  17.977  0.00  0.00    +0.000 A 
ATOM     23  S   UNL     1      48.582   8.054  19.654  0.00  0.00    +0.000 S 
ATOM     24  C   UNL     1      48.703   6.370  19.445  0.00  0.00    +0.000 A 
ATOM     25  N   UNL     1      48.675   5.530  20.515  0.00  0.00    +0.000 NA
ATOM     26  C   UNL     1      48.817   4.282  20.217  0.00  0.00    +0.000 A 
ATOM     27  N   UNL     1      48.971   3.796  18.945  0.00  0.00    +0.000 N 
ATOM     28  C   UNL     1      48.940   4.601  17.830  0.00  0.00    +0.000 A 
ATOM     29  O   UNL     1      48.971   4.122  16.701  0.00  0.00    +0.000 OA
ATOM     30  C   UNL     1      48.828   6.019  18.112  0.00  0.00    +0.000 A 
ATOM     31  H   UNL     1      49.051   2.804  18.778  0.00  0.00    +0.000 HD
ENDBRANCH  18  21
ENDBRANCH   1  17
TORSDOF 6
ENDMDL
MODEL 6
REMARK VINA RESULT:    -7.131      3.156      7.983
REMARK INTER + INTRA:         -10.486
REMARK INTER:                  -9.286
REMARK INTRA:                  -1.201
REMARK UNBOUND:                -0.854
REMARK  Name = 
REMARK  7 active torsions:
REMARK  status: ('A' for Active; 'I' for Inactive)
REMARK    1  A    between atoms: C_1  and  O_2
REMARK    2  A    between atoms: O_2  and  C_3
REMARK    3  A    between atoms: C_5  and  C_6
REMARK    4  A    between atoms: C_6  and  N_7
REMARK    5  A    between atoms: C_8  and  C_10
REMARK    6  A    between atoms: C_22  and  C_23
REMARK    7  A    between atoms: C_23  and  C_24
REMARK                            x       y       z     vdW  Elec       q    Type
REMARK                         _______ _______ _______ _____ _____    ______ ____
ROOT
ATOM      1  C   UNL     1      48.376   7.323  13.601  0.00  0.00    +0.000 C 
ENDROOT
BRANCH   1   4
ATOM      2  C   UNL     1      48.479   5.329  16.829  0.00  0.00    +0.000 A 
ATOM      3  C   UNL     1      48.023   5.921  15.649  0.00  0.00    +0.000 A 
ATOM      4  C   UNL     1      48.874   6.703  14.868  0.00  0.00    +0.000 A 
ATOM      5  C   UNL     1      50.181   6.854  15.303  0.00  0.00    +0.000 A 
ATOM      6  N   UNL     1      50.663   6.312  16.445  0.00  0.00    +0.000 NA
ATOM      7  C   UNL     1      49.810   5.559  17.202  0.00  0.00    +0.000 A 
BRANCH   2   9
ATOM      8  C   UNL     1      47.075   3.435  17.035  0.00  0.00    +0.000 C 
ATOM      9  O   UNL     1      47.685   4.572  17.646  0.00  0.00    +0.000 OA
ENDBRANCH   2   9
BRANCH   7  10
ATOM     10  C   UNL     1      50.420   4.919  18.433  0.00  0.00    +0.000 C 
BRANCH  10  11
ATOM     11  C   UNL     1      51.224   3.678  18.114  0.00  0.00    +0.000 A 
ATOM     12  C   UNL     1      50.641   2.618  17.416  0.00  0.00    +0.000 A 
ATOM     13  C   UNL     1      51.359   1.436  17.261  0.00  0.00    +0.000 A 
ATOM     14  C   UNL     1      52.646   1.350  17.773  0.00  0.00    +0.000 A 
ATOM     15  C   UNL     1      53.177   2.468  18.393  0.00  0.00    +0.000 A 
ATOM     16  N   UNL     1      52.500   3.623  18.572  0.00  0.00    +0.000 NA
ENDBRANCH  10  11
ENDBRANCH   7  10
ENDBRANCH   1   4
BRANCH   1  17
ATOM     17  N   UNL     1      47.521   6.428  12.866  0.00  0.00    +0.000 N 
ATOM     18  C   UNL     1      46.520   6.858  12.031  0.00  0.00    +0.000 C 
ATOM     19  O   UNL     1      46.255   8.045  11.887  0.00  0.00    +0.000 OA
ATOM     20  H   UNL     1      47.582   5.445  13.107  0.00  0.00    +0.000 HD
BRANCH  18  21
ATOM     21  C   UNL     1      45.831   5.815  11.254  0.00  0.00    +0.000 A 
ATOM     22  C   UNL     1      45.937   5.812   9.870  0.00  0.00    +0.000 A 
ATOM     23  S   UNL     1      45.135   4.507   9.123  0.00  0.00    +0.000 S 
ATOM     24  C   UNL     1      44.569   3.927  10.619  0.00  0.00    +0.000 A 
ATOM     25  N   UNL     1      43.778   2.822  10.686  0.00  0.00    +0.000 NA
ATOM     26  C   UNL     1      43.388   2.516  11.877  0.00  0.00    +0.000 A 
ATOM     27  N   UNL     1      43.729   3.207  13.011  0.00  0.00    +0.000 N 
ATOM     28  C   UNL     1      44.577   4.290  12.998  0.00  0.00    +0.000 A 
ATOM     29  O   UNL     1      44.948   4.817  14.042  0.00  0.00    +0.000 OA
ATOM     30  C   UNL     1      45.009   4.703  11.677  0.00  0.00    +0.000 A 
ATOM     31  H   UNL     1      43.411   2.899  13.918  0.00  0.00    +0.000 HD
ENDBRANCH  18  21
ENDBRANCH   1  17
TORSDOF 6
ENDMDL
MODEL 7
REMARK VINA RESULT:    -7.079      2.878      4.076
REMARK INTER + INTRA:         -10.416
REMARK INTER:                  -9.448
REMARK INTRA:                  -0.967
REMARK UNBOUND:                -0.854
REMARK  Name = 
REMARK  7 active torsions:
REMARK  status: ('A' for Active; 'I' for Inactive)
REMARK    1  A    between atoms: C_1  and  O_2
REMARK    2  A    between atoms: O_2  and  C_3
REMARK    3  A    between atoms: C_5  and  C_6
REMARK    4  A    between atoms: C_6  and  N_7
REMARK    5  A    between atoms: C_8  and  C_10
REMARK    6  A    between atoms: C_22  and  C_23
REMARK    7  A    between atoms: C_23  and  C_24
REMARK                            x       y       z     vdW  Elec       q    Type
REMARK                         _______ _______ _______ _____ _____    ______ ____
ROOT
ATOM      1  C   UNL     1      48.589   6.517  14.463  0.00  0.00    +0.000 C 
ENDROOT
BRANCH   1   4
ATOM      2  C   UNL     1      45.833   6.533  11.853  0.00  0.00    +0.000 A 
ATOM      3  C   UNL     1      46.878   6.948  12.683  0.00  0.00    +0.000 A 
ATOM      4  C   UNL     1      47.465   6.063  13.587  0.00  0.00    +0.000 A 
ATOM      5  C   UNL     1      46.982   4.765  13.614  0.00  0.00    +0.000 A 
ATOM      6  N   UNL     1      45.964   4.321  12.841  0.00  0.00    +0.000 NA
ATOM      7  C   UNL     1      45.394   5.208  11.970  0.00  0.00    +0.000 A 
BRANCH   2   9
ATOM      8  C   UNL     1      44.606   8.530  11.525  0.00  0.00    +0.000 C 
ATOM      9  O   UNL     1      45.205   7.362  10.965  0.00  0.00    +0.000 OA
ENDBRANCH   2   9
BRANCH   7  10
ATOM     10  C   UNL     1      44.306   4.641  11.080  0.00  0.00    +0.000 C 
BRANCH  10  11
ATOM     11  C   UNL     1      44.855   3.931   9.861  0.00  0.00    +0.000 A 
ATOM     12  C   UNL     1      44.794   2.539   9.767  0.00  0.00    +0.000 A 
ATOM     13  C   UNL     1      45.431   1.905   8.704  0.00  0.00    +0.000 A 
ATOM     14  C   UNL     1      46.081   2.672   7.748  0.00  0.00    +0.000 A 
ATOM     15  C   UNL     1      46.037   4.050   7.875  0.00  0.00    +0.000 A 
ATOM     16  N   UNL     1      45.441   4.693   8.903  0.00  0.00    +0.000 NA
ENDBRANCH  10  11
ENDBRANCH   7  10
ENDBRANCH   1   4
BRANCH   1  17
ATOM     17  N   UNL     1      48.210   6.541  15.852  0.00  0.00    +0.000 N 
ATOM     18  C   UNL     1      48.973   5.990  16.850  0.00  0.00    +0.000 C 
ATOM     19  O   UNL     1      50.018   5.396  16.620  0.00  0.00    +0.000 OA
ATOM     20  H   UNL     1      47.267   6.851  16.058  0.00  0.00    +0.000 HD
BRANCH  18  21
ATOM     21  C   UNL     1      48.506   6.222  18.227  0.00  0.00    +0.000 A 
ATOM     22  C   UNL     1      48.474   5.164  19.125  0.00  0.00    +0.000 A 
ATOM     23  S   UNL     1      47.968   5.609  20.691  0.00  0.00    +0.000 S 
ATOM     24  C   UNL     1      47.720   7.222  20.213  0.00  0.00    +0.000 A 
ATOM     25  N   UNL     1      47.252   8.148  21.093  0.00  0.00    +0.000 NA
ATOM     26  C   UNL     1      47.073   9.322  20.588  0.00  0.00    +0.000 A 
ATOM     27  N   UNL     1      47.332   9.659  19.285  0.00  0.00    +0.000 N 
ATOM     28  C   UNL     1      47.865   8.773  18.378  0.00  0.00    +0.000 A 
ATOM     29  O   UNL     1      48.187   9.136  17.251  0.00  0.00    +0.000 OA
ATOM     30  C   UNL     1      48.044   7.425  18.883  0.00  0.00    +0.000 A 
ATOM     31  H   UNL     1      47.194  10.604  18.959  0.00  0.00    +0.000 HD
ENDBRANCH  18  21
ENDBRANCH   1  17
TORSDOF 6
ENDMDL
MODEL 8
REMARK VINA RESULT:    -6.850      3.165      8.214
REMARK INTER + INTRA:         -10.106
REMARK INTER:                  -9.507
REMARK INTRA:                  -0.599
REMARK UNBOUND:                -0.854
REMARK  Name = 
REMARK  7 active torsions:
REMARK  status: ('A' for Active; 'I' for Inactive)
REMARK    1  A    between atoms: C_1  and  O_2
REMARK    2  A    between atoms: O_2  and  C_3
REMARK    3  A    between atoms: C_5  and  C_6
REMARK    4  A    between atoms: C_6  and  N_7
REMARK    5  A    between atoms: C_8  and  C_10
REMARK    6  A    between atoms: C_22  and  C_23
REMARK    7  A    between atoms: C_23  and  C_24
REMARK                            x       y       z     vdW  Elec       q    Type
REMARK                         _______ _______ _______ _____ _____    ______ ____
ROOT
ATOM      1  C   UNL     1      48.303   7.496  13.028  0.00  0.00    +0.000 C 
ENDROOT
BRANCH   1   4
ATOM      2  C   UNL     1      50.689   7.000  15.937  0.00  0.00    +0.000 A 
ATOM      3  C   UNL     1      50.125   7.470  14.749  0.00  0.00    +0.000 A 
ATOM      4  C   UNL     1      48.901   6.977  14.298  0.00  0.00    +0.000 A 
ATOM      5  C   UNL     1      48.269   6.024  15.079  0.00  0.00    +0.000 A 
ATOM      6  N   UNL     1      48.782   5.528  16.228  0.00  0.00    +0.000 NA
ATOM      7  C   UNL     1      49.989   6.015  16.647  0.00  0.00    +0.000 A 
BRANCH   2   9
ATOM      8  C   UNL     1      53.046   6.916  15.745  0.00  0.00    +0.000 C 
ATOM      9  O   UNL     1      51.896   7.429  16.417  0.00  0.00    +0.000 OA
ENDBRANCH   2   9
BRANCH   7  10
ATOM     10  C   UNL     1      50.485   5.478  17.975  0.00  0.00    +0.000 C 
BRANCH  10  11
ATOM     11  C   UNL     1      50.983   4.052  17.883  0.00  0.00    +0.000 A 
ATOM     12  C   UNL     1      52.251   3.714  18.358  0.00  0.00    +0.000 A 
ATOM     13  C   UNL     1      52.736   2.429  18.133  0.00  0.00    +0.000 A 
ATOM     14  C   UNL     1      51.936   1.507  17.473  0.00  0.00    +0.000 A 
ATOM     15  C   UNL     1      50.665   1.899  17.094  0.00  0.00    +0.000 A 
ATOM     16  N   UNL     1      50.172   3.143  17.284  0.00  0.00    +0.000 NA
ENDBRANCH  10  11
ENDBRANCH   7  10
ENDBRANCH   1   4
BRANCH   1  17
ATOM     17  N   UNL     1      47.484   6.506  12.377  0.00  0.00    +0.000 N 
ATOM     18  C   UNL     1      46.282   6.795  11.783  0.00  0.00    +0.000 C 
ATOM     19  O   UNL     1      45.798   7.919  11.803  0.00  0.00    +0.000 OA
ATOM     20  H   UNL     1      47.756   5.538  12.507  0.00  0.00    +0.000 HD
BRANCH  18  21
ATOM     21  C   UNL     1      45.641   5.693  11.047  0.00  0.00    +0.000 A 
ATOM     22  C   UNL     1      45.745   5.645   9.663  0.00  0.00    +0.000 A 
ATOM     23  S   UNL     1      45.002   4.277   8.967  0.00  0.00    +0.000 S 
ATOM     24  C   UNL     1      44.468   3.726  10.485  0.00  0.00    +0.000 A 
ATOM     25  N   UNL     1      43.729   2.589  10.596  0.00  0.00    +0.000 NA
ATOM     26  C   UNL     1      43.356   2.309  11.799  0.00  0.00    +0.000 A 
ATOM     27  N   UNL     1      43.666   3.056  12.906  0.00  0.00    +0.000 N 
ATOM     28  C   UNL     1      44.463   4.176  12.850  0.00  0.00    +0.000 A 
ATOM     29  O   UNL     1      44.811   4.759  13.872  0.00  0.00    +0.000 OA
ATOM     30  C   UNL     1      44.872   4.561  11.512  0.00  0.00    +0.000 A 
ATOM     31  H   UNL     1      43.365   2.767  13.824  0.00  0.00    +0.000 HD
ENDBRANCH  18  21
ENDBRANCH   1  17
TORSDOF 6
ENDMDL
MODEL 9
REMARK VINA RESULT:    -6.834      3.824      8.869
REMARK INTER + INTRA:         -10.085
REMARK INTER:                  -9.046
REMARK INTRA:                  -1.039
REMARK UNBOUND:                -0.854
REMARK  Name = 
REMARK  7 active torsions:
REMARK  status: ('A' for Active; 'I' for Inactive)
REMARK    1  A    between atoms: C_1  and  O_2
REMARK    2  A    between atoms: O_2  and  C_3
REMARK    3  A    between atoms: C_5  and  C_6
REMARK    4  A    between atoms: C_6  and  N_7
REMARK    5  A    between atoms: C_8  and  C_10
REMARK    6  A    between atoms: C_22  and  C_23
REMARK    7  A    between atoms: C_23  and  C_24
REMARK                            x       y       z     vdW  Elec       q    Type
REMARK                         _______ _______ _______ _____ _____    ______ ____
ROOT
ATOM      1  C   UNL     1      47.153   3.397  16.798  0.00  0.00    +0.000 C 
ENDROOT
BRANCH   1   4
ATOM      2  C   UNL     1      50.115   4.893  18.641  0.00  0.00    +0.000 A 
ATOM      3  C   UNL     1      48.821   4.683  18.157  0.00  0.00    +0.000 A 
ATOM      4  C   UNL     1      48.544   3.616  17.302  0.00  0.00    +0.000 A 
ATOM      5  C   UNL     1      49.593   2.773  16.972  0.00  0.00    +0.000 A 
ATOM      6  N   UNL     1      50.864   2.944  17.404  0.00  0.00    +0.000 NA
ATOM      7  C   UNL     1      51.117   4.003  18.231  0.00  0.00    +0.000 A 
BRANCH   2   9
ATOM      8  C   UNL     1      50.462   7.224  18.852  0.00  0.00    +0.000 C 
ATOM      9  O   UNL     1      50.450   5.934  19.462  0.00  0.00    +0.000 OA
ENDBRANCH   2   9
BRANCH   7  10
ATOM     10  C   UNL     1      52.540   4.108  18.742  0.00  0.00    +0.000 C 
BRANCH  10  11
ATOM     11  C   UNL     1      53.521   4.528  17.669  0.00  0.00    +0.000 A 
ATOM     12  C   UNL     1      54.677   3.781  17.435  0.00  0.00    +0.000 A 
ATOM     13  C   UNL     1      55.627   4.267  16.543  0.00  0.00    +0.000 A 
ATOM     14  C   UNL     1      55.388   5.464  15.882  0.00  0.00    +0.000 A 
ATOM     15  C   UNL     1      54.187   6.111  16.117  0.00  0.00    +0.000 A 
ATOM     16  N   UNL     1      53.253   5.672  16.989  0.00  0.00    +0.000 NA
ENDBRANCH  10  11
ENDBRANCH   7  10
ENDBRANCH   1   4
BRANCH   1  17
ATOM     17  N   UNL     1      46.779   4.379  15.813  0.00  0.00    +0.000 N 
ATOM     18  C   UNL     1      46.799   4.135  14.462  0.00  0.00    +0.000 C 
ATOM     19  O   UNL     1      47.182   3.070  13.997  0.00  0.00    +0.000 OA
ATOM     20  H   UNL     1      46.644   5.326  16.147  0.00  0.00    +0.000 HD
BRANCH  18  21
ATOM     21  C   UNL     1      46.258   5.202  13.604  0.00  0.00    +0.000 A 
ATOM     22  C   UNL     1      47.004   6.354  13.394  0.00  0.00    +0.000 A 
ATOM     23  S   UNL     1      46.267   7.463  12.329  0.00  0.00    +0.000 S 
ATOM     24  C   UNL     1      44.899   6.468  12.151  0.00  0.00    +0.000 A 
ATOM     25  N   UNL     1      43.852   6.853  11.373  0.00  0.00    +0.000 NA
ATOM     26  C   UNL     1      42.864   6.023  11.358  0.00  0.00    +0.000 A 
ATOM     27  N   UNL     1      42.833   4.835  12.041  0.00  0.00    +0.000 N 
ATOM     28  C   UNL     1      43.893   4.376  12.787  0.00  0.00    +0.000 A 
ATOM     29  O   UNL     1      43.875   3.260  13.296  0.00  0.00    +0.000 OA
ATOM     30  C   UNL     1      45.014   5.293  12.873  0.00  0.00    +0.000 A 
ATOM     31  H   UNL     1      42.038   4.217  11.967  0.00  0.00    +0.000 HD
ENDBRANCH  18  21
ENDBRANCH   1  17
TORSDOF 6
ENDMDL
