MODEL 1
REMARK VINA RESULT:    -8.355      0.000      0.000
REMARK INTER + INTRA:         -13.116
REMARK INTER:                 -11.774
REMARK INTRA:                  -1.342
REMARK UNBOUND:                -1.342
REMARK  Name = 
REMARK  9 active torsions:
REMARK  status: ('A' for Active; 'I' for Inactive)
REMARK    1  A    between atoms: C_1  and  C_2
REMARK    2  A    between atoms: C_5  and  C_6
REMARK    3  A    between atoms: C_6  and  N_7
REMARK    4  A    between atoms: N_7  and  C_8
REMARK    5  A    between atoms: C_8  and  C_9
REMARK    6  A    between atoms: C_8  and  C_10
REMARK    7  A    between atoms: C_13  and  C_14
REMARK    8  A    between atoms: C_14  and  N_15
REMARK    9  A    between atoms: C_16  and  C_18
REMARK                            x       y       z     vdW  Elec       q    Type
REMARK                         _______ _______ _______ _____ _____    ______ ____
ROOT
ATOM      1  C   UNL     1      44.766   5.122  12.120  0.00  0.00    +0.000 A 
ATOM      2  C   UNL     1      45.436   6.079  11.359  0.00  0.00    +0.000 A 
ATOM      3  C   UNL     1      46.652   6.587  11.816  0.00  0.00    +0.000 A 
ATOM      4  C   UNL     1      47.205   6.102  12.999  0.00  0.00    +0.000 A 
ATOM      5  C   UNL     1      46.476   5.145  13.693  0.00  0.00    +0.000 A 
ATOM      6  N   UNL     1      45.281   4.653  13.288  0.00  0.00    +0.000 NA
ENDROOT
BRANCH   1   7
ATOM      7  C   UNL     1      43.433   4.518  11.679  0.00  0.00    +0.000 C 
ATOM      8  C   UNL     1      42.281   5.532  11.758  0.00  0.00    +0.000 C 
BRANCH   7   9
ATOM      9  N   UNL     1      43.453   3.964  10.308  0.00  0.00    +0.000 NA
ATOM     10  H   UNL     1      42.490   3.800  10.014  0.00  0.00    +0.000 HD
BRANCH   9  11
ATOM     11  C   UNL     1      44.163   2.681  10.235  0.00  0.00    +0.000 C 
BRANCH  11  16
ATOM     12  C   UNL     1      47.817   2.412   5.782  0.00  0.00    +0.000 C 
ATOM     13  C   UNL     1      46.864   2.530   6.932  0.00  0.00    +0.000 A 
ATOM     14  C   UNL     1      46.321   3.760   7.288  0.00  0.00    +0.000 A 
ATOM     15  C   UNL     1      45.436   3.819   8.362  0.00  0.00    +0.000 A 
ATOM     16  C   UNL     1      45.105   2.654   9.059  0.00  0.00    +0.000 A 
ATOM     17  C   UNL     1      45.708   1.475   8.638  0.00  0.00    +0.000 A 
ATOM     18  N   UNL     1      46.570   1.387   7.597  0.00  0.00    +0.000 NA
ENDBRANCH  11  16
ENDBRANCH   9  11
ENDBRANCH   7   9
ENDBRANCH   1   7
BRANCH   4  19
ATOM     19  C   UNL     1      48.507   6.620  13.532  0.00  0.00    +0.000 C 
BRANCH  19  20
ATOM     20  N   UNL     1      48.505   6.639  14.970  0.00  0.00    +0.000 N 
ATOM     21  C   UNL     1      49.629   6.988  15.681  0.00  0.00    +0.000 C 
ATOM     22  O   UNL     1      50.664   7.338  15.123  0.00  0.00    +0.000 OA
ATOM     23  H   UNL     1      47.752   6.153  15.446  0.00  0.00    +0.000 HD
BRANCH  21  24
ATOM     24  C   UNL     1      49.504   6.983  17.143  0.00  0.00    +0.000 A 
ATOM     25  C   UNL     1      49.671   8.167  17.851  0.00  0.00    +0.000 A 
ATOM     26  S   UNL     1      49.449   7.997  19.533  0.00  0.00    +0.000 S 
ATOM     27  C   UNL     1      49.173   6.324  19.379  0.00  0.00    +0.000 A 
ATOM     28  N   UNL     1      48.938   5.553  20.478  0.00  0.00    +0.000 NA
ATOM     29  C   UNL     1      48.775   4.297  20.219  0.00  0.00    +0.000 A 
ATOM     30  N   UNL     1      48.818   3.742  18.967  0.00  0.00    +0.000 N 
ATOM     31  C   UNL     1      49.022   4.489  17.830  0.00  0.00    +0.000 A 
ATOM     32  O   UNL     1      49.012   3.972  16.717  0.00  0.00    +0.000 OA
ATOM     33  C   UNL     1      49.230   5.906  18.065  0.00  0.00    +0.000 A 
ATOM     34  H   UNL     1      48.673   2.753  18.834  0.00  0.00    +0.000 HD
ENDBRANCH  21  24
ENDBRANCH  19  20
ENDBRANCH   4  19
TORSDOF 7
ENDMDL
MODEL 2
REMARK VINA RESULT:    -7.725      1.977      2.351
REMARK INTER + INTRA:         -12.229
REMARK INTER:                 -10.856
REMARK INTRA:                  -1.372
REMARK UNBOUND:                -1.342
REMARK  Name = 
REMARK  9 active torsions:
REMARK  status: ('A' for Active; 'I' for Inactive)
REMARK    1  A    between atoms: C_1  and  C_2
REMARK    2  A    between atoms: C_5  and  C_6
REMARK    3  A    between atoms: C_6  and  N_7
REMARK    4  A    between atoms: N_7  and  C_8
REMARK    5  A    between atoms: C_8  and  C_9
REMARK    6  A    between atoms: C_8  and  C_10
REMARK    7  A    between atoms: C_13  and  C_14
REMARK    8  A    between atoms: C_14  and  N_15
REMARK    9  A    between atoms: C_16  and  C_18
REMARK                            x       y       z     vdW  Elec       q    Type
REMARK                         _______ _______ _______ _____ _____    ______ ____
ROOT
ATOM      1  C   UNL     1      45.279   5.299  13.042  0.00  0.00    +0.000 A 
ATOM      2  C   UNL     1      45.191   6.577  12.491  0.00  0.00    +0.000 A 
ATOM      3  C   UNL     1      46.343   7.355  12.380  0.00  0.00    +0.000 A 
ATOM      4  C   UNL     1      47.573   6.833  12.776  0.00  0.00    +0.000 A 
ATOM      5  C   UNL     1      47.574   5.550  13.308  0.00  0.00    +0.000 A 
ATOM      6  N   UNL     1      46.469   4.782  13.453  0.00  0.00    +0.000 NA
ENDROOT
BRANCH   1   7
ATOM      7  C   UNL     1      44.060   4.390  13.190  0.00  0.00    +0.000 C 
ATOM      8  C   UNL     1      42.770   5.062  12.695  0.00  0.00    +0.000 C 
BRANCH   7   9
ATOM      9  N   UNL     1      44.192   3.095  12.488  0.00  0.00    +0.000 NA
ATOM     10  H   UNL     1      45.172   2.967  12.234  0.00  0.00    +0.000 HD
BRANCH   9  11
ATOM     11  C   UNL     1      43.403   3.049  11.250  0.00  0.00    +0.000 C 
BRANCH  11  16
ATOM     12  C   UNL     1      46.778   3.473   6.593  0.00  0.00    +0.000 C 
ATOM     13  C   UNL     1      45.907   3.315   7.802  0.00  0.00    +0.000 A 
ATOM     14  C   UNL     1      45.675   2.061   8.357  0.00  0.00    +0.000 A 
ATOM     15  C   UNL     1      44.862   1.964   9.484  0.00  0.00    +0.000 A 
ATOM     16  C   UNL     1      44.299   3.115  10.040  0.00  0.00    +0.000 A 
ATOM     17  C   UNL     1      44.578   4.321   9.408  0.00  0.00    +0.000 A 
ATOM     18  N   UNL     1      45.365   4.445   8.313  0.00  0.00    +0.000 NA
ENDBRANCH  11  16
ENDBRANCH   9  11
ENDBRANCH   7   9
ENDBRANCH   1   7
BRANCH   4  19
ATOM     19  C   UNL     1      48.837   7.632  12.679  0.00  0.00    +0.000 C 
BRANCH  19  20
ATOM     20  N   UNL     1      49.819   7.162  13.620  0.00  0.00    +0.000 N 
ATOM     21  C   UNL     1      50.208   7.931  14.691  0.00  0.00    +0.000 C 
ATOM     22  O   UNL     1      49.708   9.029  14.914  0.00  0.00    +0.000 OA
ATOM     23  H   UNL     1      50.395   6.374  13.343  0.00  0.00    +0.000 HD
BRANCH  21  24
ATOM     24  C   UNL     1      51.208   7.341  15.589  0.00  0.00    +0.000 A 
ATOM     25  C   UNL     1      52.505   7.837  15.592  0.00  0.00    +0.000 A 
ATOM     26  S   UNL     1      53.528   7.074  16.722  0.00  0.00    +0.000 S 
ATOM     27  C   UNL     1      52.285   6.019  17.211  0.00  0.00    +0.000 A 
ATOM     28  N   UNL     1      52.512   5.068  18.161  0.00  0.00    +0.000 NA
ATOM     29  C   UNL     1      51.490   4.317  18.414  0.00  0.00    +0.000 A 
ATOM     30  N   UNL     1      50.264   4.432  17.813  0.00  0.00    +0.000 N 
ATOM     31  C   UNL     1      49.985   5.397  16.873  0.00  0.00    +0.000 A 
ATOM     32  O   UNL     1      48.865   5.506  16.384  0.00  0.00    +0.000 OA
ATOM     33  C   UNL     1      51.104   6.257  16.537  0.00  0.00    +0.000 A 
ATOM     34  H   UNL     1      49.505   3.818  18.064  0.00  0.00    +0.000 HD
ENDBRANCH  21  24
ENDBRANCH  19  20
ENDBRANCH   4  19
TORSDOF 7
ENDMDL
MODEL 3
REMARK VINA RESULT:    -7.555      1.966      2.288
REMARK INTER + INTRA:         -11.989
REMARK INTER:                 -11.007
REMARK INTRA:                  -0.982
REMARK UNBOUND:                -1.342
REMARK  Name = 
REMARK  9 active torsions:
REMARK  status: ('A' for Active; 'I' for Inactive)
REMARK    1  A    between atoms: C_1  and  C_2
REMARK    2  A    between atoms: C_5  and  C_6
REMARK    3  A    between atoms: C_6  and  N_7
REMARK    4  A    between atoms: N_7  and  C_8
REMARK    5  A    between atoms: C_8  and  C_9
REMARK    6  A    between atoms: C_8  and  C_10
REMARK    7  A    between atoms: C_13  and  C_14
REMARK    8  A    between atoms: C_14  and  N_15
REMARK    9  A    between atoms: C_16  and  C_18
REMARK                            x       y       z     vdW  Elec       q    Type
REMARK                         _______ _______ _______ _____ _____    ______ ____
ROOT
ATOM      1  C   UNL     1      44.901   5.904  12.154  0.00  0.00    +0.000 A 
ATOM      2  C   UNL     1      46.149   5.403  12.521  0.00  0.00    +0.000 A 
ATOM      3  C   UNL     1      47.108   6.270  13.044  0.00  0.00    +0.000 A 
ATOM      4  C   UNL     1      46.795   7.614  13.236  0.00  0.00    +0.000 A 
ATOM      5  C   UNL     1      45.528   8.031  12.851  0.00  0.00    +0.000 A 
ATOM      6  N   UNL     1      44.586   7.218  12.317  0.00  0.00    +0.000 NA
ENDROOT
BRANCH   1   7
ATOM      7  C   UNL     1      43.801   5.012  11.580  0.00  0.00    +0.000 C 
ATOM      8  C   UNL     1      42.403   5.626  11.756  0.00  0.00    +0.000 C 
BRANCH   7   9
ATOM      9  N   UNL     1      43.977   4.695  10.146  0.00  0.00    +0.000 NA
ATOM     10  H   UNL     1      43.148   5.013   9.644  0.00  0.00    +0.000 HD
BRANCH   9  11
ATOM     11  C   UNL     1      44.114   3.253   9.906  0.00  0.00    +0.000 C 
BRANCH  11  16
ATOM     12  C   UNL     1      48.078   2.055   5.892  0.00  0.00    +0.000 C 
ATOM     13  C   UNL     1      47.049   2.413   6.921  0.00  0.00    +0.000 A 
ATOM     14  C   UNL     1      46.593   3.720   7.051  0.00  0.00    +0.000 A 
ATOM     15  C   UNL     1      45.633   4.003   8.020  0.00  0.00    +0.000 A 
ATOM     16  C   UNL     1      45.142   2.982   8.838  0.00  0.00    +0.000 A 
ATOM     17  C   UNL     1      45.669   1.711   8.641  0.00  0.00    +0.000 A 
ATOM     18  N   UNL     1      46.601   1.406   7.707  0.00  0.00    +0.000 NA
ENDBRANCH  11  16
ENDBRANCH   9  11
ENDBRANCH   7   9
ENDBRANCH   1   7
BRANCH   4  19
ATOM     19  C   UNL     1      47.794   8.584  13.791  0.00  0.00    +0.000 C 
BRANCH  19  20
ATOM     20  N   UNL     1      47.543   8.844  15.184  0.00  0.00    +0.000 N 
ATOM     21  C   UNL     1      48.483   9.460  15.976  0.00  0.00    +0.000 C 
ATOM     22  O   UNL     1      49.555   9.850  15.524  0.00  0.00    +0.000 OA
ATOM     23  H   UNL     1      46.776   8.346  15.624  0.00  0.00    +0.000 HD
BRANCH  21  24
ATOM     24  C   UNL     1      48.109   9.683  17.378  0.00  0.00    +0.000 A 
ATOM     25  C   UNL     1      47.847  10.973  17.821  0.00  0.00    +0.000 A 
ATOM     26  S   UNL     1      47.384  11.054  19.459  0.00  0.00    +0.000 S 
ATOM     27  C   UNL     1      47.567   9.372  19.648  0.00  0.00    +0.000 A 
ATOM     28  N   UNL     1      47.344   8.778  20.853  0.00  0.00    +0.000 NA
ATOM     29  C   UNL     1      47.548   7.501  20.860  0.00  0.00    +0.000 A 
ATOM     30  N   UNL     1      47.948   6.764  19.777  0.00  0.00    +0.000 N 
ATOM     31  C   UNL     1      48.154   7.320  18.535  0.00  0.00    +0.000 A 
ATOM     32  O   UNL     1      48.469   6.630  17.571  0.00  0.00    +0.000 OA
ATOM     33  C   UNL     1      47.956   8.757  18.475  0.00  0.00    +0.000 A 
ATOM     34  H   UNL     1      48.081   5.767  19.849  0.00  0.00    +0.000 HD
ENDBRANCH  21  24
ENDBRANCH  19  20
ENDBRANCH   4  19
TORSDOF 7
ENDMDL
MODEL 4
REMARK VINA RESULT:    -7.368      2.903      3.711
REMARK INTER + INTRA:         -11.726
REMARK INTER:                 -10.522
REMARK INTRA:                  -1.204
REMARK UNBOUND:                -1.342
REMARK  Name = 
REMARK  9 active torsions:
REMARK  status: ('A' for Active; 'I' for Inactive)
REMARK    1  A    between atoms: C_1  and  C_2
REMARK    2  A    between atoms: C_5  and  C_6
REMARK    3  A    between atoms: C_6  and  N_7
REMARK    4  A    between atoms: N_7  and  C_8
REMARK    5  A    between atoms: C_8  and  C_9
REMARK    6  A    between atoms: C_8  and  C_10
REMARK    7  A    between atoms: C_13  and  C_14
REMARK    8  A    between atoms: C_14  and  N_15
REMARK    9  A    between atoms: C_16  and  C_18
REMARK                            x       y       z     vdW  Elec       q    Type
REMARK                         _______ _______ _______ _____ _____    ______ ____
ROOT
ATOM      1  C   UNL     1      46.839   4.905  13.955  0.00  0.00    +0.000 A 
ATOM      2  C   UNL     1      46.894   4.226  15.171  0.00  0.00    +0.000 A 
ATOM      3  C   UNL     1      47.705   4.717  16.193  0.00  0.00    +0.000 A 
ATOM      4  C   UNL     1      48.416   5.902  16.005  0.00  0.00    +0.000 A 
ATOM      5  C   UNL     1      48.301   6.519  14.767  0.00  0.00    +0.000 A 
ATOM      6  N   UNL     1      47.542   6.052  13.747  0.00  0.00    +0.000 NA
ENDROOT
BRANCH   1   7
ATOM      7  C   UNL     1      45.968   4.427  12.793  0.00  0.00    +0.000 C 
ATOM      8  C   UNL     1      44.556   4.031  13.251  0.00  0.00    +0.000 C 
BRANCH   7   9
ATOM      9  N   UNL     1      45.829   5.419  11.705  0.00  0.00    +0.000 NA
ATOM     10  H   UNL     1      45.598   6.321  12.122  0.00  0.00    +0.000 HD
BRANCH   9  11
ATOM     11  C   UNL     1      44.749   5.074  10.771  0.00  0.00    +0.000 C 
BRANCH  11  16
ATOM     12  C   UNL     1      46.861   2.462   6.083  0.00  0.00    +0.000 C 
ATOM     13  C   UNL     1      46.294   3.098   7.316  0.00  0.00    +0.000 A 
ATOM     14  C   UNL     1      45.595   2.344   8.252  0.00  0.00    +0.000 A 
ATOM     15  C   UNL     1      45.090   2.979   9.385  0.00  0.00    +0.000 A 
ATOM     16  C   UNL     1      45.292   4.350   9.566  0.00  0.00    +0.000 A 
ATOM     17  C   UNL     1      45.991   5.020   8.570  0.00  0.00    +0.000 A 
ATOM     18  N   UNL     1      46.495   4.429   7.460  0.00  0.00    +0.000 NA
ENDBRANCH  11  16
ENDBRANCH   9  11
ENDBRANCH   7   9
ENDBRANCH   1   7
BRANCH   4  19
ATOM     19  C   UNL     1      49.304   6.466  17.073  0.00  0.00    +0.000 C 
BRANCH  19  20
ATOM     20  N   UNL     1      50.250   5.483  17.530  0.00  0.00    +0.000 N 
ATOM     21  C   UNL     1      51.562   5.511  17.120  0.00  0.00    +0.000 C 
ATOM     22  O   UNL     1      51.991   6.393  16.383  0.00  0.00    +0.000 OA
ATOM     23  H   UNL     1      49.883   4.637  17.950  0.00  0.00    +0.000 HD
BRANCH  21  24
ATOM     24  C   UNL     1      52.437   4.464  17.661  0.00  0.00    +0.000 A 
ATOM     25  C   UNL     1      53.669   4.811  18.201  0.00  0.00    +0.000 A 
ATOM     26  S   UNL     1      54.541   3.487  18.826  0.00  0.00    +0.000 S 
ATOM     27  C   UNL     1      53.324   2.395  18.350  0.00  0.00    +0.000 A 
ATOM     28  N   UNL     1      53.462   1.058  18.573  0.00  0.00    +0.000 NA
ATOM     29  C   UNL     1      52.477   0.344  18.135  0.00  0.00    +0.000 A 
ATOM     30  N   UNL     1      51.367   0.841  17.502  0.00  0.00    +0.000 N 
ATOM     31  C   UNL     1      51.176   2.186  17.286  0.00  0.00    +0.000 A 
ATOM     32  O   UNL     1      50.152   2.607  16.757  0.00  0.00    +0.000 OA
ATOM     33  C   UNL     1      52.261   3.034  17.743  0.00  0.00    +0.000 A 
ATOM     34  H   UNL     1      50.629   0.227  17.193  0.00  0.00    +0.000 HD
ENDBRANCH  21  24
ENDBRANCH  19  20
ENDBRANCH   4  19
TORSDOF 7
ENDMDL
MODEL 5
REMARK VINA RESULT:    -6.975      4.790      9.634
REMARK INTER + INTRA:         -11.171
REMARK INTER:                 -10.156
REMARK INTRA:                  -1.015
REMARK UNBOUND:                -1.342
REMARK  Name = 
REMARK  9 active torsions:
REMARK  status: ('A' for Active; 'I' for Inactive)
REMARK    1  A    between atoms: C_1  and  C_2
REMARK    2  A    between atoms: C_5  and  C_6
REMARK    3  A    between atoms: C_6  and  N_7
REMARK    4  A    between atoms: N_7  and  C_8
REMARK    5  A    between atoms: C_8  and  C_9
REMARK    6  A    between atoms: C_8  and  C_10
REMARK    7  A    between atoms: C_13  and  C_14
REMARK    8  A    between atoms: C_14  and  N_15
REMARK    9  A    between atoms: C_16  and  C_18
REMARK                            x       y       z     vdW  Elec       q    Type
REMARK                         _______ _______ _______ _____ _____    ______ ____
ROOT
ATOM      1  C   UNL     1      51.332   3.347  17.784  0.00  0.00    +0.000 A 
ATOM      2  C   UNL     1      50.738   2.195  17.269  0.00  0.00    +0.000 A 
ATOM      3  C   UNL     1      49.373   2.197  16.987  0.00  0.00    +0.000 A 
ATOM      4  C   UNL     1      48.627   3.358  17.179  0.00  0.00    +0.000 A 
ATOM      5  C   UNL     1      49.295   4.463  17.689  0.00  0.00    +0.000 A 
ATOM      6  N   UNL     1      50.614   4.483  17.997  0.00  0.00    +0.000 NA
ENDROOT
BRANCH   1   7
ATOM      7  C   UNL     1      52.823   3.419  18.112  0.00  0.00    +0.000 C 
ATOM      8  C   UNL     1      53.242   4.812  18.608  0.00  0.00    +0.000 C 
BRANCH   7   9
ATOM      9  N   UNL     1      53.261   2.430  19.120  0.00  0.00    +0.000 NA
ATOM     10  H   UNL     1      53.182   2.858  20.043  0.00  0.00    +0.000 HD
BRANCH   9  11
ATOM     11  C   UNL     1      54.662   2.029  18.936  0.00  0.00    +0.000 C 
BRANCH  11  16
ATOM     12  C   UNL     1      55.036  -2.719  15.685  0.00  0.00    +0.000 C 
ATOM     13  C   UNL     1      54.951  -1.459  16.491  0.00  0.00    +0.000 A 
ATOM     14  C   UNL     1      55.180  -0.219  15.905  0.00  0.00    +0.000 A 
ATOM     15  C   UNL     1      55.085   0.925  16.694  0.00  0.00    +0.000 A 
ATOM     16  C   UNL     1      54.760   0.815  18.048  0.00  0.00    +0.000 A 
ATOM     17  C   UNL     1      54.561  -0.467  18.545  0.00  0.00    +0.000 A 
ATOM     18  N   UNL     1      54.645  -1.596  17.803  0.00  0.00    +0.000 NA
ENDBRANCH  11  16
ENDBRANCH   9  11
ENDBRANCH   7   9
ENDBRANCH   1   7
BRANCH   4  19
ATOM     19  C   UNL     1      47.156   3.406  16.893  0.00  0.00    +0.000 C 
BRANCH  19  20
ATOM     20  N   UNL     1      46.854   4.409  15.907  0.00  0.00    +0.000 N 
ATOM     21  C   UNL     1      46.978   4.149  14.563  0.00  0.00    +0.000 C 
ATOM     22  O   UNL     1      47.310   3.044  14.146  0.00  0.00    +0.000 OA
ATOM     23  H   UNL     1      46.794   5.372  16.219  0.00  0.00    +0.000 HD
BRANCH  21  24
ATOM     24  C   UNL     1      46.631   5.245  13.651  0.00  0.00    +0.000 A 
ATOM     25  C   UNL     1      47.566   6.236  13.382  0.00  0.00    +0.000 A 
ATOM     26  S   UNL     1      47.022   7.409  12.271  0.00  0.00    +0.000 S 
ATOM     27  C   UNL     1      45.498   6.661  12.149  0.00  0.00    +0.000 A 
ATOM     28  N   UNL     1      44.523   7.190  11.358  0.00  0.00    +0.000 NA
ATOM     29  C   UNL     1      43.408   6.536  11.383  0.00  0.00    +0.000 A 
ATOM     30  N   UNL     1      43.178   5.404  12.118  0.00  0.00    +0.000 N 
ATOM     31  C   UNL     1      44.143   4.821  12.906  0.00  0.00    +0.000 A 
ATOM     32  O   UNL     1      43.924   3.781  13.519  0.00  0.00    +0.000 OA
ATOM     33  C   UNL     1      45.412   5.524  12.929  0.00  0.00    +0.000 A 
ATOM     34  H   UNL     1      42.284   4.937  12.085  0.00  0.00    +0.000 HD
ENDBRANCH  21  24
ENDBRANCH  19  20
ENDBRANCH   4  19
TORSDOF 7
ENDMDL
MODEL 6
REMARK VINA RESULT:    -6.909      3.439      5.227
REMARK INTER + INTRA:         -11.078
REMARK INTER:                  -9.951
REMARK INTRA:                  -1.127
REMARK UNBOUND:                -1.342
REMARK  Name = 
REMARK  9 active torsions:
REMARK  status: ('A' for Active; 'I' for Inactive)
REMARK    1  A    between atoms: C_1  and  C_2
REMARK    2  A    between atoms: C_5  and  C_6
REMARK    3  A    between atoms: C_6  and  N_7
REMARK    4  A    between atoms: N_7  and  C_8
REMARK    5  A    between atoms: C_8  and  C_9
REMARK    6  A    between atoms: C_8  and  C_10
REMARK    7  A    between atoms: C_13  and  C_14
REMARK    8  A    between atoms: C_14  and  N_15
REMARK    9  A    between atoms: C_16  and  C_18
REMARK                            x       y       z     vdW  Elec       q    Type
REMARK                         _______ _______ _______ _____ _____    ______ ____
ROOT
ATOM      1  C   UNL     1      47.909   6.193  14.756  0.00  0.00    +0.000 A 
ATOM      2  C   UNL     1      48.668   6.488  15.887  0.00  0.00    +0.000 A 
ATOM      3  C   UNL     1      48.804   5.528  16.889  0.00  0.00    +0.000 A 
ATOM      4  C   UNL     1      48.221   4.273  16.730  0.00  0.00    +0.000 A 
ATOM      5  C   UNL     1      47.487   4.058  15.571  0.00  0.00    +0.000 A 
ATOM      6  N   UNL     1      47.315   4.980  14.593  0.00  0.00    +0.000 NA
ENDROOT
BRANCH   1   7
ATOM      7  C   UNL     1      47.721   7.195  13.616  0.00  0.00    +0.000 C 
ATOM      8  C   UNL     1      48.909   8.161  13.490  0.00  0.00    +0.000 C 
BRANCH   7   9
ATOM      9  N   UNL     1      47.510   6.563  12.296  0.00  0.00    +0.000 NA
ATOM     10  H   UNL     1      48.126   7.018  11.621  0.00  0.00    +0.000 HD
BRANCH   9  11
ATOM     11  C   UNL     1      46.132   6.723  11.815  0.00  0.00    +0.000 C 
BRANCH  11  16
ATOM     12  C   UNL     1      44.405   1.941   9.094  0.00  0.00    +0.000 C 
ATOM     13  C   UNL     1      44.864   3.204   9.758  0.00  0.00    +0.000 A 
ATOM     14  C   UNL     1      45.301   4.289   9.005  0.00  0.00    +0.000 A 
ATOM     15  C   UNL     1      45.713   5.443   9.667  0.00  0.00    +0.000 A 
ATOM     16  C   UNL     1      45.680   5.497  11.063  0.00  0.00    +0.000 A 
ATOM     17  C   UNL     1      45.240   4.359  11.727  0.00  0.00    +0.000 A 
ATOM     18  N   UNL     1      44.831   3.225  11.111  0.00  0.00    +0.000 NA
ENDBRANCH  11  16
ENDBRANCH   9  11
ENDBRANCH   7   9
ENDBRANCH   1   7
BRANCH   4  19
ATOM     19  C   UNL     1      48.336   3.211  17.782  0.00  0.00    +0.000 C 
BRANCH  19  20
ATOM     20  N   UNL     1      49.715   2.903  18.054  0.00  0.00    +0.000 N 
ATOM     21  C   UNL     1      50.454   2.120  17.199  0.00  0.00    +0.000 C 
ATOM     22  O   UNL     1      49.986   1.686  16.151  0.00  0.00    +0.000 OA
ATOM     23  H   UNL     1      50.053   3.058  18.998  0.00  0.00    +0.000 HD
BRANCH  21  24
ATOM     24  C   UNL     1      51.853   1.884  17.576  0.00  0.00    +0.000 A 
ATOM     25  C   UNL     1      52.313   0.581  17.724  0.00  0.00    +0.000 A 
ATOM     26  S   UNL     1      53.968   0.479  18.119  0.00  0.00    +0.000 S 
ATOM     27  C   UNL     1      54.116   2.175  18.155  0.00  0.00    +0.000 A 
ATOM     28  N   UNL     1      55.305   2.764  18.465  0.00  0.00    +0.000 NA
ATOM     29  C   UNL     1      55.267   4.056  18.484  0.00  0.00    +0.000 A 
ATOM     30  N   UNL     1      54.156   4.813  18.218  0.00  0.00    +0.000 N 
ATOM     31  C   UNL     1      52.946   4.259  17.872  0.00  0.00    +0.000 A 
ATOM     32  O   UNL     1      51.978   4.961  17.595  0.00  0.00    +0.000 OA
ATOM     33  C   UNL     1      52.927   2.808  17.852  0.00  0.00    +0.000 A 
ATOM     34  H   UNL     1      54.198   5.820  18.242  0.00  0.00    +0.000 HD
ENDBRANCH  21  24
ENDBRANCH  19  20
ENDBRANCH   4  19
TORSDOF 7
ENDMDL
MODEL 7
REMARK VINA RESULT:    -6.702      4.590      6.548
REMARK INTER + INTRA:         -10.786
REMARK INTER:                  -9.728
REMARK INTRA:                  -1.058
REMARK UNBOUND:                -1.342
REMARK  Name = 
REMARK  9 active torsions:
REMARK  status: ('A' for Active; 'I' for Inactive)
REMARK    1  A    between atoms: C_1  and  C_2
REMARK    2  A    between atoms: C_5  and  C_6
REMARK    3  A    between atoms: C_6  and  N_7
REMARK    4  A    between atoms: N_7  and  C_8
REMARK    5  A    between atoms: C_8  and  C_9
REMARK    6  A    between atoms: C_8  and  C_10
REMARK    7  A    between atoms: C_13  and  C_14
REMARK    8  A    between atoms: C_14  and  N_15
REMARK    9  A    between atoms: C_16  and  C_18
REMARK                            x       y       z     vdW  Elec       q    Type
REMARK                         _______ _______ _______ _____ _____    ______ ____
ROOT
ATOM      1  C   UNL     1      45.930   5.868  12.574  0.00  0.00    +0.000 A 
ATOM      2  C   UNL     1      46.724   5.383  13.612  0.00  0.00    +0.000 A 
ATOM      3  C   UNL     1      47.972   5.959  13.846  0.00  0.00    +0.000 A 
ATOM      4  C   UNL     1      48.392   7.040  13.072  0.00  0.00    +0.000 A 
ATOM      5  C   UNL     1      47.537   7.466  12.064  0.00  0.00    +0.000 A 
ATOM      6  N   UNL     1      46.332   6.909  11.797  0.00  0.00    +0.000 NA
ENDROOT
BRANCH   1   7
ATOM      7  C   UNL     1      44.550   5.288  12.265  0.00  0.00    +0.000 C 
ATOM      8  C   UNL     1      43.720   6.213  11.361  0.00  0.00    +0.000 C 
BRANCH   7   9
ATOM      9  N   UNL     1      44.593   3.954  11.627  0.00  0.00    +0.000 NA
ATOM     10  H   UNL     1      45.570   3.683  11.516  0.00  0.00    +0.000 HD
BRANCH   9  11
ATOM     11  C   UNL     1      43.978   3.953  10.293  0.00  0.00    +0.000 C 
BRANCH  11  16
ATOM     12  C   UNL     1      47.723   2.308   6.227  0.00  0.00    +0.000 C 
ATOM     13  C   UNL     1      46.744   2.689   7.296  0.00  0.00    +0.000 A 
ATOM     14  C   UNL     1      46.164   1.723   8.112  0.00  0.00    +0.000 A 
ATOM     15  C   UNL     1      45.263   2.126   9.095  0.00  0.00    +0.000 A 
ATOM     16  C   UNL     1      44.959   3.481   9.251  0.00  0.00    +0.000 A 
ATOM     17  C   UNL     1      45.578   4.369   8.381  0.00  0.00    +0.000 A 
ATOM     18  N   UNL     1      46.459   4.007   7.417  0.00  0.00    +0.000 NA
ENDBRANCH  11  16
ENDBRANCH   9  11
ENDBRANCH   7   9
ENDBRANCH   1   7
BRANCH   4  19
ATOM     19  C   UNL     1      49.726   7.690  13.284  0.00  0.00    +0.000 C 
BRANCH  19  20
ATOM     20  N   UNL     1      50.236   8.233  12.053  0.00  0.00    +0.000 N 
ATOM     21  C   UNL     1      51.564   8.557  11.912  0.00  0.00    +0.000 C 
ATOM     22  O   UNL     1      52.377   8.360  12.809  0.00  0.00    +0.000 OA
ATOM     23  H   UNL     1      49.565   8.605  11.389  0.00  0.00    +0.000 HD
BRANCH  21  24
ATOM     24  C   UNL     1      51.970   9.093  10.607  0.00  0.00    +0.000 A 
ATOM     25  C   UNL     1      51.743  10.431  10.313  0.00  0.00    +0.000 A 
ATOM     26  S   UNL     1      52.313  10.904   8.778  0.00  0.00    +0.000 S 
ATOM     27  C   UNL     1      52.839   9.322   8.431  0.00  0.00    +0.000 A 
ATOM     28  N   UNL     1      53.413   9.026   7.231  0.00  0.00    +0.000 NA
ATOM     29  C   UNL     1      53.737   7.782   7.091  0.00  0.00    +0.000 A 
ATOM     30  N   UNL     1      53.547   6.810   8.037  0.00  0.00    +0.000 N 
ATOM     31  C   UNL     1      53.000   7.073   9.272  0.00  0.00    +0.000 A 
ATOM     32  O   UNL     1      52.883   6.192  10.118  0.00  0.00    +0.000 OA
ATOM     33  C   UNL     1      52.600   8.453   9.477  0.00  0.00    +0.000 A 
ATOM     34  H   UNL     1      53.832   5.858   7.866  0.00  0.00    +0.000 HD
ENDBRANCH  21  24
ENDBRANCH  19  20
ENDBRANCH   4  19
TORSDOF 7
ENDMDL
MODEL 8
REMARK VINA RESULT:    -6.659      5.444     10.004
REMARK INTER + INTRA:         -10.725
REMARK INTER:                  -9.924
REMARK INTRA:                  -0.801
REMARK UNBOUND:                -1.342
REMARK  Name = 
REMARK  9 active torsions:
REMARK  status: ('A' for Active; 'I' for Inactive)
REMARK    1  A    between atoms: C_1  and  C_2
REMARK    2  A    between atoms: C_5  and  C_6
REMARK    3  A    between atoms: C_6  and  N_7
REMARK    4  A    between atoms: N_7  and  C_8
REMARK    5  A    between atoms: C_8  and  C_9
REMARK    6  A    between atoms: C_8  and  C_10
REMARK    7  A    between atoms: C_13  and  C_14
REMARK    8  A    between atoms: C_14  and  N_15
REMARK    9  A    between atoms: C_16  and  C_18
REMARK                            x       y       z     vdW  Elec       q    Type
REMARK                         _______ _______ _______ _____ _____    ______ ____
ROOT
ATOM      1  C   UNL     1      51.276   2.503  17.495  0.00  0.00    +0.000 A 
ATOM      2  C   UNL     1      50.817   3.711  18.018  0.00  0.00    +0.000 A 
ATOM      3  C   UNL     1      49.483   4.072  17.837  0.00  0.00    +0.000 A 
ATOM      4  C   UNL     1      48.614   3.205  17.177  0.00  0.00    +0.000 A 
ATOM      5  C   UNL     1      49.149   2.019  16.693  0.00  0.00    +0.000 A 
ATOM      6  N   UNL     1      50.446   1.654  16.831  0.00  0.00    +0.000 NA
ENDROOT
BRANCH   1   7
ATOM      7  C   UNL     1      52.723   2.040  17.661  0.00  0.00    +0.000 C 
ATOM      8  C   UNL     1      53.514   2.937  18.626  0.00  0.00    +0.000 C 
BRANCH   7   9
ATOM      9  N   UNL     1      52.854   0.645  18.132  0.00  0.00    +0.000 NA
ATOM     10  H   UNL     1      52.367   0.561  19.025  0.00  0.00    +0.000 HD
BRANCH   9  11
ATOM     11  C   UNL     1      54.254   0.259  18.354  0.00  0.00    +0.000 C 
BRANCH  11  16
ATOM     12  C   UNL     1      54.957  -5.435  17.774  0.00  0.00    +0.000 C 
ATOM     13  C   UNL     1      54.749  -3.964  17.965  0.00  0.00    +0.000 A 
ATOM     14  C   UNL     1      54.037  -3.478  19.057  0.00  0.00    +0.000 A 
ATOM     15  C   UNL     1      53.873  -2.102  19.194  0.00  0.00    +0.000 A 
ATOM     16  C   UNL     1      54.423  -1.235  18.246  0.00  0.00    +0.000 A 
ATOM     17  C   UNL     1      55.106  -1.814  17.184  0.00  0.00    +0.000 A 
ATOM     18  N   UNL     1      55.282  -3.148  17.025  0.00  0.00    +0.000 NA
ENDBRANCH  11  16
ENDBRANCH   9  11
ENDBRANCH   7   9
ENDBRANCH   1   7
BRANCH   4  19
ATOM     19  C   UNL     1      47.172   3.553  16.955  0.00  0.00    +0.000 C 
BRANCH  19  20
ATOM     20  N   UNL     1      47.038   4.593  15.971  0.00  0.00    +0.000 N 
ATOM     21  C   UNL     1      47.067   4.312  14.626  0.00  0.00    +0.000 C 
ATOM     22  O   UNL     1      47.167   3.163  14.207  0.00  0.00    +0.000 OA
ATOM     23  H   UNL     1      47.175   5.550  16.277  0.00  0.00    +0.000 HD
BRANCH  21  24
ATOM     24  C   UNL     1      46.909   5.453  13.716  0.00  0.00    +0.000 A 
ATOM     25  C   UNL     1      47.985   6.301  13.486  0.00  0.00    +0.000 A 
ATOM     26  S   UNL     1      47.649   7.548  12.372  0.00  0.00    +0.000 S 
ATOM     27  C   UNL     1      46.037   7.028  12.198  0.00  0.00    +0.000 A 
ATOM     28  N   UNL     1      45.173   7.697  11.385  0.00  0.00    +0.000 NA
ATOM     29  C   UNL     1      43.975   7.211  11.370  0.00  0.00    +0.000 A 
ATOM     30  N   UNL     1      43.563   6.118  12.086  0.00  0.00    +0.000 N 
ATOM     31  C   UNL     1      44.410   5.396  12.894  0.00  0.00    +0.000 A 
ATOM     32  O   UNL     1      44.025   4.395  13.489  0.00  0.00    +0.000 OA
ATOM     33  C   UNL     1      45.766   5.910  12.962  0.00  0.00    +0.000 A 
ATOM     34  H   UNL     1      42.613   5.785  12.021  0.00  0.00    +0.000 HD
ENDBRANCH  21  24
ENDBRANCH  19  20
ENDBRANCH   4  19
TORSDOF 7
ENDMDL
MODEL 9
REMARK VINA RESULT:    -6.544      3.256      4.593
REMARK INTER + INTRA:         -10.564
REMARK INTER:                  -9.361
REMARK INTRA:                  -1.203
REMARK UNBOUND:                -1.342
REMARK  Name = 
REMARK  9 active torsions:
REMARK  status: ('A' for Active; 'I' for Inactive)
REMARK    1  A    between atoms: C_1  and  C_2
REMARK    2  A    between atoms: C_5  and  C_6
REMARK    3  A    between atoms: C_6  and  N_7
REMARK    4  A    between atoms: N_7  and  C_8
REMARK    5  A    between atoms: C_8  and  C_9
REMARK    6  A    between atoms: C_8  and  C_10
REMARK    7  A    between atoms: C_13  and  C_14
REMARK    8  A    between atoms: C_14  and  N_15
REMARK    9  A    between atoms: C_16  and  C_18
REMARK                            x       y       z     vdW  Elec       q    Type
REMARK                         _______ _______ _______ _____ _____    ______ ____
ROOT
ATOM      1  C   UNL     1      47.076   4.661  14.723  0.00  0.00    +0.000 A 
ATOM      2  C   UNL     1      47.611   5.509  15.692  0.00  0.00    +0.000 A 
ATOM      3  C   UNL     1      48.287   4.963  16.782  0.00  0.00    +0.000 A 
ATOM      4  C   UNL     1      48.462   3.583  16.868  0.00  0.00    +0.000 A 
ATOM      5  C   UNL     1      47.904   2.810  15.858  0.00  0.00    +0.000 A 
ATOM      6  N   UNL     1      47.220   3.310  14.802  0.00  0.00    +0.000 NA
ENDROOT
BRANCH   1   7
ATOM      7  C   UNL     1      46.328   5.190  13.500  0.00  0.00    +0.000 C 
ATOM      8  C   UNL     1      47.217   6.075  12.612  0.00  0.00    +0.000 C 
BRANCH   7   9
ATOM      9  N   UNL     1      45.753   4.127  12.646  0.00  0.00    +0.000 NA
ATOM     10  H   UNL     1      46.517   3.662  12.156  0.00  0.00    +0.000 HD
BRANCH   9  11
ATOM     11  C   UNL     1      44.836   4.662  11.631  0.00  0.00    +0.000 C 
BRANCH  11  16
ATOM     12  C   UNL     1      46.330   3.013   6.310  0.00  0.00    +0.000 C 
ATOM     13  C   UNL     1      45.928   3.396   7.702  0.00  0.00    +0.000 A 
ATOM     14  C   UNL     1      45.419   2.450   8.585  0.00  0.00    +0.000 A 
ATOM     15  C   UNL     1      45.063   2.853   9.870  0.00  0.00    +0.000 A 
ATOM     16  C   UNL     1      45.224   4.186  10.254  0.00  0.00    +0.000 A 
ATOM     17  C   UNL     1      45.728   5.060   9.299  0.00  0.00    +0.000 A 
ATOM     18  N   UNL     1      46.083   4.697   8.043  0.00  0.00    +0.000 NA
ENDBRANCH  11  16
ENDBRANCH   9  11
ENDBRANCH   7   9
ENDBRANCH   1   7
BRANCH   4  19
ATOM     19  C   UNL     1      49.178   2.950  18.023  0.00  0.00    +0.000 C 
BRANCH  19  20
ATOM     20  N   UNL     1      50.466   3.558  18.227  0.00  0.00    +0.000 N 
ATOM     21  C   UNL     1      51.622   2.935  17.818  0.00  0.00    +0.000 C 
ATOM     22  O   UNL     1      51.603   1.859  17.228  0.00  0.00    +0.000 OA
ATOM     23  H   UNL     1      50.526   4.321  18.892  0.00  0.00    +0.000 HD
BRANCH  21  24
ATOM     24  C   UNL     1      52.875   3.656  18.069  0.00  0.00    +0.000 A 
ATOM     25  C   UNL     1      53.876   3.052  18.820  0.00  0.00    +0.000 A 
ATOM     26  S   UNL     1      55.282   4.003  18.980  0.00  0.00    +0.000 S 
ATOM     27  C   UNL     1      54.583   5.277  18.092  0.00  0.00    +0.000 A 
ATOM     28  N   UNL     1      55.268   6.435  17.878  0.00  0.00    +0.000 NA
ATOM     29  C   UNL     1      54.607   7.326  17.215  0.00  0.00    +0.000 A 
ATOM     30  N   UNL     1      53.331   7.168  16.742  0.00  0.00    +0.000 N 
ATOM     31  C   UNL     1      52.617   6.004  16.910  0.00  0.00    +0.000 A 
ATOM     32  O   UNL     1      51.492   5.872  16.437  0.00  0.00    +0.000 OA
ATOM     33  C   UNL     1      53.305   4.974  17.665  0.00  0.00    +0.000 A 
ATOM     34  H   UNL     1      52.876   7.902  16.223  0.00  0.00    +0.000 HD
ENDBRANCH  21  24
ENDBRANCH  19  20
ENDBRANCH   4  19
TORSDOF 7
ENDMDL
