MODEL 1
REMARK VINA RESULT:    -7.353      0.000      0.000
REMARK INTER + INTRA:          -9.795
REMARK INTER:                  -9.072
REMARK INTRA:                  -0.723
REMARK UNBOUND:                -0.723
REMARK  Name = 
REMARK  6 active torsions:
REMARK  status: ('A' for Active; 'I' for Inactive)
REMARK    1  A    between atoms: C_1  and  C_2
REMARK    2  A    between atoms: C_4  and  C_5
REMARK    3  A    between atoms: C_9  and  C_10
REMARK    4  A    between atoms: C_10  and  N_11
REMARK    5  A    between atoms: C_15  and  C_16
REMARK    6  A    between atoms: C_18  and  C_19
REMARK                            x       y       z     vdW  Elec       q    Type
REMARK                         _______ _______ _______ _____ _____    ______ ____
ROOT
ATOM      1  C   UNL     1      44.789   3.751  10.146  0.00  0.00    +0.000 A 
ATOM      2  C   UNL     1      43.806   2.994  10.803  0.00  0.00    +0.000 A 
ATOM      3  C   UNL     1      43.186   3.472  11.952  0.00  0.00    +0.000 A 
ATOM      4  C   UNL     1      43.560   4.705  12.489  0.00  0.00    +0.000 A 
ATOM      5  C   UNL     1      44.573   5.471  11.894  0.00  0.00    +0.000 A 
ATOM      6  C   UNL     1      45.140   5.001  10.696  0.00  0.00    +0.000 A 
ENDROOT
BRANCH   1  10
ATOM      7  C   UNL     1      46.789  -0.037   7.520  0.00  0.00    +0.000 C 
ATOM      8  C   UNL     1      46.433   1.410   7.680  0.00  0.00    +0.000 A 
ATOM      9  C   UNL     1      45.772   1.861   8.815  0.00  0.00    +0.000 A 
ATOM     10  C   UNL     1      45.457   3.222   8.942  0.00  0.00    +0.000 A 
ATOM     11  C   UNL     1      45.817   4.069   7.889  0.00  0.00    +0.000 A 
ATOM     12  C   UNL     1      46.478   3.541   6.797  0.00  0.00    +0.000 A 
ATOM     13  N   UNL     1      46.790   2.236   6.671  0.00  0.00    +0.000 NA
ENDBRANCH   1  10
BRANCH   5  14
ATOM     14  C   UNL     1      45.120   6.733  12.550  0.00  0.00    +0.000 C 
BRANCH  14  15
ATOM     15  N   UNL     1      46.173   7.360  11.742  0.00  0.00    +0.000 N 
ATOM     16  C   UNL     1      47.429   7.451  12.364  0.00  0.00    +0.000 A 
ATOM     17  C   UNL     1      48.501   8.040  11.695  0.00  0.00    +0.000 A 
ATOM     18  C   UNL     1      49.720   8.183  12.360  0.00  0.00    +0.000 A 
ATOM     19  C   UNL     1      49.845   7.741  13.677  0.00  0.00    +0.000 A 
ATOM     20  C   UNL     1      48.736   7.156  14.281  0.00  0.00    +0.000 A 
ATOM     21  C   UNL     1      48.746   6.637  15.690  0.00  0.00    +0.000 C 
ATOM     22  N   UNL     1      47.552   7.010  13.631  0.00  0.00    +0.000 NA
ATOM     23  H   UNL     1      45.923   8.317  11.501  0.00  0.00    +0.000 HD
BRANCH  19  24
ATOM     24  C   UNL     1      51.087   7.908  14.357  0.00  0.00    +0.000 C 
ATOM     25  N   UNL     1      52.103   8.037  14.922  0.00  0.00    +0.000 NA
ENDBRANCH  19  24
ENDBRANCH  14  15
ENDBRANCH   5  14
TORSDOF 4
ENDMDL
MODEL 2
REMARK VINA RESULT:    -7.327      2.436      3.260
REMARK INTER + INTRA:          -9.764
REMARK INTER:                  -9.232
REMARK INTRA:                  -0.532
REMARK UNBOUND:                -0.723
REMARK  Name = 
REMARK  6 active torsions:
REMARK  status: ('A' for Active; 'I' for Inactive)
REMARK    1  A    between atoms: C_1  and  C_2
REMARK    2  A    between atoms: C_4  and  C_5
REMARK    3  A    between atoms: C_9  and  C_10
REMARK    4  A    between atoms: C_10  and  N_11
REMARK    5  A    between atoms: C_15  and  C_16
REMARK    6  A    between atoms: C_18  and  C_19
REMARK                            x       y       z     vdW  Elec       q    Type
REMARK                         _______ _______ _______ _____ _____    ______ ____
ROOT
ATOM      1  C   UNL     1      44.899   4.051  10.474  0.00  0.00    +0.000 A 
ATOM      2  C   UNL     1      43.508   4.132  10.643  0.00  0.00    +0.000 A 
ATOM      3  C   UNL     1      42.960   4.630  11.820  0.00  0.00    +0.000 A 
ATOM      4  C   UNL     1      43.792   5.028  12.868  0.00  0.00    +0.000 A 
ATOM      5  C   UNL     1      45.186   4.918  12.761  0.00  0.00    +0.000 A 
ATOM      6  C   UNL     1      45.722   4.474  11.538  0.00  0.00    +0.000 A 
ENDROOT
BRANCH   1  10
ATOM      7  C   UNL     1      46.589   0.192   7.737  0.00  0.00    +0.000 C 
ATOM      8  C   UNL     1      46.296   1.651   7.914  0.00  0.00    +0.000 A 
ATOM      9  C   UNL     1      45.727   2.126   9.088  0.00  0.00    +0.000 A 
ATOM     10  C   UNL     1      45.468   3.497   9.231  0.00  0.00    +0.000 A 
ATOM     11  C   UNL     1      45.789   4.330   8.154  0.00  0.00    +0.000 A 
ATOM     12  C   UNL     1      46.358   3.778   7.023  0.00  0.00    +0.000 A 
ATOM     13  N   UNL     1      46.615   2.462   6.881  0.00  0.00    +0.000 NA
ENDBRANCH   1  10
BRANCH   5  14
ATOM     14  C   UNL     1      46.109   5.180  13.945  0.00  0.00    +0.000 C 
BRANCH  14  15
ATOM     15  N   UNL     1      46.469   3.942  14.646  0.00  0.00    +0.000 N 
ATOM     16  C   UNL     1      47.465   4.080  15.628  0.00  0.00    +0.000 A 
ATOM     17  C   UNL     1      47.896   2.967  16.348  0.00  0.00    +0.000 A 
ATOM     18  C   UNL     1      48.935   3.115  17.267  0.00  0.00    +0.000 A 
ATOM     19  C   UNL     1      49.527   4.366  17.447  0.00  0.00    +0.000 A 
ATOM     20  C   UNL     1      49.042   5.434  16.699  0.00  0.00    +0.000 A 
ATOM     21  C   UNL     1      49.590   6.828  16.805  0.00  0.00    +0.000 C 
ATOM     22  N   UNL     1      48.025   5.291  15.810  0.00  0.00    +0.000 NA
ATOM     23  H   UNL     1      46.829   3.248  13.994  0.00  0.00    +0.000 HD
BRANCH  19  24
ATOM     24  C   UNL     1      50.602   4.505  18.373  0.00  0.00    +0.000 C 
ATOM     25  N   UNL     1      51.481   4.609  19.137  0.00  0.00    +0.000 NA
ENDBRANCH  19  24
ENDBRANCH  14  15
ENDBRANCH   5  14
TORSDOF 4
ENDMDL
MODEL 3
REMARK VINA RESULT:    -7.137      0.931      1.650
REMARK INTER + INTRA:          -9.529
REMARK INTER:                  -8.871
REMARK INTRA:                  -0.658
REMARK UNBOUND:                -0.723
REMARK  Name = 
REMARK  6 active torsions:
REMARK  status: ('A' for Active; 'I' for Inactive)
REMARK    1  A    between atoms: C_1  and  C_2
REMARK    2  A    between atoms: C_4  and  C_5
REMARK    3  A    between atoms: C_9  and  C_10
REMARK    4  A    between atoms: C_10  and  N_11
REMARK    5  A    between atoms: C_15  and  C_16
REMARK    6  A    between atoms: C_18  and  C_19
REMARK                            x       y       z     vdW  Elec       q    Type
REMARK                         _______ _______ _______ _____ _____    ______ ____
ROOT
ATOM      1  C   UNL     1      44.835   4.003  10.079  0.00  0.00    +0.000 A 
ATOM      2  C   UNL     1      43.705   3.379  10.630  0.00  0.00    +0.000 A 
ATOM      3  C   UNL     1      43.049   3.930  11.726  0.00  0.00    +0.000 A 
ATOM      4  C   UNL     1      43.528   5.101  12.314  0.00  0.00    +0.000 A 
ATOM      5  C   UNL     1      44.682   5.731  11.827  0.00  0.00    +0.000 A 
ATOM      6  C   UNL     1      45.292   5.194  10.678  0.00  0.00    +0.000 A 
ENDROOT
BRANCH   1  10
ATOM      7  C   UNL     1      46.703   0.011   7.666  0.00  0.00    +0.000 C 
ATOM      8  C   UNL     1      46.451   1.485   7.774  0.00  0.00    +0.000 A 
ATOM      9  C   UNL     1      45.754   2.012   8.853  0.00  0.00    +0.000 A 
ATOM     10  C   UNL     1      45.537   3.396   8.933  0.00  0.00    +0.000 A 
ATOM     11  C   UNL     1      46.031   4.187   7.890  0.00  0.00    +0.000 A 
ATOM     12  C   UNL     1      46.719   3.584   6.855  0.00  0.00    +0.000 A 
ATOM     13  N   UNL     1      46.937   2.256   6.775  0.00  0.00    +0.000 NA
ENDBRANCH   1  10
BRANCH   5  14
ATOM     14  C   UNL     1      45.326   6.908  12.550  0.00  0.00    +0.000 C 
BRANCH  14  15
ATOM     15  N   UNL     1      46.312   6.469  13.544  0.00  0.00    +0.000 N 
ATOM     16  C   UNL     1      47.536   7.159  13.515  0.00  0.00    +0.000 A 
ATOM     17  C   UNL     1      48.553   6.818  14.405  0.00  0.00    +0.000 A 
ATOM     18  C   UNL     1      49.784   7.468  14.311  0.00  0.00    +0.000 A 
ATOM     19  C   UNL     1      49.979   8.441  13.330  0.00  0.00    +0.000 A 
ATOM     20  C   UNL     1      48.918   8.737  12.480  0.00  0.00    +0.000 A 
ATOM     21  C   UNL     1      49.000   9.765  11.390  0.00  0.00    +0.000 C 
ATOM     22  N   UNL     1      47.717   8.109  12.577  0.00  0.00    +0.000 NA
ATOM     23  H   UNL     1      46.553   5.489  13.407  0.00  0.00    +0.000 HD
BRANCH  19  24
ATOM     24  C   UNL     1      51.245   9.088  13.227  0.00  0.00    +0.000 C 
ATOM     25  N   UNL     1      52.285   9.614  13.131  0.00  0.00    +0.000 NA
ENDBRANCH  19  24
ENDBRANCH  14  15
ENDBRANCH   5  14
TORSDOF 4
ENDMDL
MODEL 4
REMARK VINA RESULT:    -7.126      1.711      2.243
REMARK INTER + INTRA:          -9.515
REMARK INTER:                  -8.790
REMARK INTRA:                  -0.725
REMARK UNBOUND:                -0.723
REMARK  Name = 
REMARK  6 active torsions:
REMARK  status: ('A' for Active; 'I' for Inactive)
REMARK    1  A    between atoms: C_1  and  C_2
REMARK    2  A    between atoms: C_4  and  C_5
REMARK    3  A    between atoms: C_9  and  C_10
REMARK    4  A    between atoms: C_10  and  N_11
REMARK    5  A    between atoms: C_15  and  C_16
REMARK    6  A    between atoms: C_18  and  C_19
REMARK                            x       y       z     vdW  Elec       q    Type
REMARK                         _______ _______ _______ _____ _____    ______ ____
ROOT
ATOM      1  C   UNL     1      44.827   3.502  10.330  0.00  0.00    +0.000 A 
ATOM      2  C   UNL     1      43.725   2.768  10.796  0.00  0.00    +0.000 A 
ATOM      3  C   UNL     1      43.096   3.106  11.990  0.00  0.00    +0.000 A 
ATOM      4  C   UNL     1      43.576   4.166  12.760  0.00  0.00    +0.000 A 
ATOM      5  C   UNL     1      44.705   4.894  12.357  0.00  0.00    +0.000 A 
ATOM      6  C   UNL     1      45.286   4.579  11.115  0.00  0.00    +0.000 A 
ENDROOT
BRANCH   1  10
ATOM      7  C   UNL     1      46.833   0.047   7.282  0.00  0.00    +0.000 C 
ATOM      8  C   UNL     1      46.482   1.467   7.612  0.00  0.00    +0.000 A 
ATOM      9  C   UNL     1      45.814   1.780   8.789  0.00  0.00    +0.000 A 
ATOM     10  C   UNL     1      45.502   3.118   9.076  0.00  0.00    +0.000 A 
ATOM     11  C   UNL     1      45.874   4.084   8.134  0.00  0.00    +0.000 A 
ATOM     12  C   UNL     1      46.540   3.688   6.992  0.00  0.00    +0.000 A 
ATOM     13  N   UNL     1      46.849   2.406   6.712  0.00  0.00    +0.000 NA
ENDBRANCH   1  10
BRANCH   5  14
ATOM     14  C   UNL     1      45.353   5.940  13.257  0.00  0.00    +0.000 C 
BRANCH  14  15
ATOM     15  N   UNL     1      44.918   7.300  12.918  0.00  0.00    +0.000 N 
ATOM     16  C   UNL     1      45.939   8.162  12.480  0.00  0.00    +0.000 A 
ATOM     17  C   UNL     1      45.644   9.482  12.144  0.00  0.00    +0.000 A 
ATOM     18  C   UNL     1      46.684  10.338  11.780  0.00  0.00    +0.000 A 
ATOM     19  C   UNL     1      47.996   9.863  11.763  0.00  0.00    +0.000 A 
ATOM     20  C   UNL     1      48.217   8.532  12.103  0.00  0.00    +0.000 A 
ATOM     21  C   UNL     1      49.579   7.902  12.117  0.00  0.00    +0.000 C 
ATOM     22  N   UNL     1      47.203   7.697  12.450  0.00  0.00    +0.000 NA
ATOM     23  H   UNL     1      44.507   7.761  13.728  0.00  0.00    +0.000 HD
BRANCH  19  24
ATOM     24  C   UNL     1      49.057  10.748  11.409  0.00  0.00    +0.000 C 
ATOM     25  N   UNL     1      49.934  11.466  11.120  0.00  0.00    +0.000 NA
ENDBRANCH  19  24
ENDBRANCH  14  15
ENDBRANCH   5  14
TORSDOF 4
ENDMDL
MODEL 5
REMARK VINA RESULT:    -6.891      2.168      4.356
REMARK INTER + INTRA:          -9.225
REMARK INTER:                  -9.098
REMARK INTRA:                  -0.127
REMARK UNBOUND:                -0.723
REMARK  Name = 
REMARK  6 active torsions:
REMARK  status: ('A' for Active; 'I' for Inactive)
REMARK    1  A    between atoms: C_1  and  C_2
REMARK    2  A    between atoms: C_4  and  C_5
REMARK    3  A    between atoms: C_9  and  C_10
REMARK    4  A    between atoms: C_10  and  N_11
REMARK    5  A    between atoms: C_15  and  C_16
REMARK    6  A    between atoms: C_18  and  C_19
REMARK                            x       y       z     vdW  Elec       q    Type
REMARK                         _______ _______ _______ _____ _____    ______ ____
ROOT
ATOM      1  C   UNL     1      45.773   6.599  11.394  0.00  0.00    +0.000 A 
ATOM      2  C   UNL     1      44.922   7.621  11.843  0.00  0.00    +0.000 A 
ATOM      3  C   UNL     1      45.434   8.752  12.470  0.00  0.00    +0.000 A 
ATOM      4  C   UNL     1      46.807   8.870  12.691  0.00  0.00    +0.000 A 
ATOM      5  C   UNL     1      47.688   7.850  12.304  0.00  0.00    +0.000 A 
ATOM      6  C   UNL     1      47.158   6.746  11.612  0.00  0.00    +0.000 A 
ENDROOT
BRANCH   1  10
ATOM      7  C   UNL     1      45.421   3.437   7.504  0.00  0.00    +0.000 C 
ATOM      8  C   UNL     1      45.029   3.877   8.883  0.00  0.00    +0.000 A 
ATOM      9  C   UNL     1      45.605   4.999   9.463  0.00  0.00    +0.000 A 
ATOM     10  C   UNL     1      45.216   5.393  10.753  0.00  0.00    +0.000 A 
ATOM     11  C   UNL     1      44.260   4.607  11.406  0.00  0.00    +0.000 A 
ATOM     12  C   UNL     1      43.733   3.509  10.756  0.00  0.00    +0.000 A 
ATOM     13  N   UNL     1      44.097   3.129   9.514  0.00  0.00    +0.000 NA
ENDBRANCH   1  10
BRANCH   5  14
ATOM     14  C   UNL     1      49.164   7.872  12.684  0.00  0.00    +0.000 C 
BRANCH  14  15
ATOM     15  N   UNL     1      49.356   7.958  14.136  0.00  0.00    +0.000 N 
ATOM     16  C   UNL     1      48.871   6.861  14.869  0.00  0.00    +0.000 A 
ATOM     17  C   UNL     1      48.987   6.840  16.258  0.00  0.00    +0.000 A 
ATOM     18  C   UNL     1      48.435   5.775  16.969  0.00  0.00    +0.000 A 
ATOM     19  C   UNL     1      47.776   4.753  16.284  0.00  0.00    +0.000 A 
ATOM     20  C   UNL     1      47.704   4.834  14.896  0.00  0.00    +0.000 A 
ATOM     21  C   UNL     1      47.028   3.799  14.046  0.00  0.00    +0.000 C 
ATOM     22  N   UNL     1      48.248   5.869  14.204  0.00  0.00    +0.000 NA
ATOM     23  H   UNL     1      48.873   8.769  14.518  0.00  0.00    +0.000 HD
BRANCH  19  24
ATOM     24  C   UNL     1      47.197   3.677  17.018  0.00  0.00    +0.000 C 
ATOM     25  N   UNL     1      46.724   2.800  17.631  0.00  0.00    +0.000 NA
ENDBRANCH  19  24
ENDBRANCH  14  15
ENDBRANCH   5  14
TORSDOF 4
ENDMDL
MODEL 6
REMARK VINA RESULT:    -6.884      2.239      7.352
REMARK INTER + INTRA:          -9.216
REMARK INTER:                  -8.798
REMARK INTRA:                  -0.418
REMARK UNBOUND:                -0.723
REMARK  Name = 
REMARK  6 active torsions:
REMARK  status: ('A' for Active; 'I' for Inactive)
REMARK    1  A    between atoms: C_1  and  C_2
REMARK    2  A    between atoms: C_4  and  C_5
REMARK    3  A    between atoms: C_9  and  C_10
REMARK    4  A    between atoms: C_10  and  N_11
REMARK    5  A    between atoms: C_15  and  C_16
REMARK    6  A    between atoms: C_18  and  C_19
REMARK                            x       y       z     vdW  Elec       q    Type
REMARK                         _______ _______ _______ _____ _____    ______ ____
ROOT
ATOM      1  C   UNL     1      46.386   6.655  12.361  0.00  0.00    +0.000 A 
ATOM      2  C   UNL     1      46.732   5.911  13.499  0.00  0.00    +0.000 A 
ATOM      3  C   UNL     1      46.157   4.667  13.741  0.00  0.00    +0.000 A 
ATOM      4  C   UNL     1      45.199   4.156  12.864  0.00  0.00    +0.000 A 
ATOM      5  C   UNL     1      44.787   4.887  11.742  0.00  0.00    +0.000 A 
ATOM      6  C   UNL     1      45.428   6.112  11.480  0.00  0.00    +0.000 A 
ENDROOT
BRANCH   1  10
ATOM      7  C   UNL     1      50.345   9.610  11.446  0.00  0.00    +0.000 C 
ATOM      8  C   UNL     1      48.882   9.413  11.704  0.00  0.00    +0.000 A 
ATOM      9  C   UNL     1      48.355   8.140  11.883  0.00  0.00    +0.000 A 
ATOM     10  C   UNL     1      46.982   7.984  12.129  0.00  0.00    +0.000 A 
ATOM     11  C   UNL     1      46.198   9.142  12.166  0.00  0.00    +0.000 A 
ATOM     12  C   UNL     1      46.802  10.370  11.984  0.00  0.00    +0.000 A 
ATOM     13  N   UNL     1      48.121  10.529  11.754  0.00  0.00    +0.000 NA
ENDBRANCH   1  10
BRANCH   5  14
ATOM     14  C   UNL     1      43.625   4.435  10.866  0.00  0.00    +0.000 C 
BRANCH  14  15
ATOM     15  N   UNL     1      43.724   3.013  10.514  0.00  0.00    +0.000 N 
ATOM     16  C   UNL     1      44.696   2.703   9.548  0.00  0.00    +0.000 A 
ATOM     17  C   UNL     1      44.870   1.386   9.127  0.00  0.00    +0.000 A 
ATOM     18  C   UNL     1      45.791   1.112   8.116  0.00  0.00    +0.000 A 
ATOM     19  C   UNL     1      46.518   2.156   7.542  0.00  0.00    +0.000 A 
ATOM     20  C   UNL     1      46.299   3.446   8.016  0.00  0.00    +0.000 A 
ATOM     21  C   UNL     1      47.021   4.650   7.485  0.00  0.00    +0.000 C 
ATOM     22  N   UNL     1      45.407   3.711   9.006  0.00  0.00    +0.000 NA
ATOM     23  H   UNL     1      42.845   2.674  10.129  0.00  0.00    +0.000 HD
BRANCH  19  24
ATOM     24  C   UNL     1      47.444   1.872   6.495  0.00  0.00    +0.000 C 
ATOM     25  N   UNL     1      48.211   1.647   5.641  0.00  0.00    +0.000 NA
ENDBRANCH  19  24
ENDBRANCH  14  15
ENDBRANCH   5  14
TORSDOF 4
ENDMDL
MODEL 7
REMARK VINA RESULT:    -6.564      2.775      4.856
REMARK INTER + INTRA:          -8.822
REMARK INTER:                  -8.281
REMARK INTRA:                  -0.541
REMARK UNBOUND:                -0.723
REMARK  Name = 
REMARK  6 active torsions:
REMARK  status: ('A' for Active; 'I' for Inactive)
REMARK    1  A    between atoms: C_1  and  C_2
REMARK    2  A    between atoms: C_4  and  C_5
REMARK    3  A    between atoms: C_9  and  C_10
REMARK    4  A    between atoms: C_10  and  N_11
REMARK    5  A    between atoms: C_15  and  C_16
REMARK    6  A    between atoms: C_18  and  C_19
REMARK                            x       y       z     vdW  Elec       q    Type
REMARK                         _______ _______ _______ _____ _____    ______ ____
ROOT
ATOM      1  C   UNL     1      45.715   6.393  12.107  0.00  0.00    +0.000 A 
ATOM      2  C   UNL     1      45.182   7.684  11.970  0.00  0.00    +0.000 A 
ATOM      3  C   UNL     1      45.760   8.768  12.622  0.00  0.00    +0.000 A 
ATOM      4  C   UNL     1      46.866   8.578  13.452  0.00  0.00    +0.000 A 
ATOM      5  C   UNL     1      47.400   7.298  13.657  0.00  0.00    +0.000 A 
ATOM      6  C   UNL     1      46.842   6.226  12.937  0.00  0.00    +0.000 A 
ENDROOT
BRANCH   1  10
ATOM      7  C   UNL     1      44.864   3.608   8.012  0.00  0.00    +0.000 C 
ATOM      8  C   UNL     1      44.651   3.912   9.464  0.00  0.00    +0.000 A 
ATOM      9  C   UNL     1      45.299   4.981  10.071  0.00  0.00    +0.000 A 
ATOM     10  C   UNL     1      45.077   5.248  11.430  0.00  0.00    +0.000 A 
ATOM     11  C   UNL     1      44.209   4.395  12.122  0.00  0.00    +0.000 A 
ATOM     12  C   UNL     1      43.601   3.359  11.443  0.00  0.00    +0.000 A 
ATOM     13  N   UNL     1      43.804   3.100  10.135  0.00  0.00    +0.000 NA
ENDBRANCH   1  10
BRANCH   5  14
ATOM     14  C   UNL     1      48.493   7.035  14.687  0.00  0.00    +0.000 C 
BRANCH  14  15
ATOM     15  N   UNL     1      48.052   6.100  15.729  0.00  0.00    +0.000 N 
ATOM     16  C   UNL     1      49.069   5.629  16.577  0.00  0.00    +0.000 A 
ATOM     17  C   UNL     1      48.768   4.726  17.595  0.00  0.00    +0.000 A 
ATOM     18  C   UNL     1      49.804   4.217  18.379  0.00  0.00    +0.000 A 
ATOM     19  C   UNL     1      51.118   4.614  18.130  0.00  0.00    +0.000 A 
ATOM     20  C   UNL     1      51.345   5.525  17.102  0.00  0.00    +0.000 A 
ATOM     21  C   UNL     1      52.710   6.033  16.740  0.00  0.00    +0.000 C 
ATOM     22  N   UNL     1      50.335   6.025  16.345  0.00  0.00    +0.000 NA
ATOM     23  H   UNL     1      47.639   5.266  15.316  0.00  0.00    +0.000 HD
BRANCH  19  24
ATOM     24  C   UNL     1      52.175   4.076  18.922  0.00  0.00    +0.000 C 
ATOM     25  N   UNL     1      53.048   3.633  19.561  0.00  0.00    +0.000 NA
ENDBRANCH  19  24
ENDBRANCH  14  15
ENDBRANCH   5  14
TORSDOF 4
ENDMDL
MODEL 8
REMARK VINA RESULT:    -6.493      1.374      2.296
REMARK INTER + INTRA:          -8.734
REMARK INTER:                  -8.146
REMARK INTRA:                  -0.589
REMARK UNBOUND:                -0.723
REMARK  Name = 
REMARK  6 active torsions:
REMARK  status: ('A' for Active; 'I' for Inactive)
REMARK    1  A    between atoms: C_1  and  C_2
REMARK    2  A    between atoms: C_4  and  C_5
REMARK    3  A    between atoms: C_9  and  C_10
REMARK    4  A    between atoms: C_10  and  N_11
REMARK    5  A    between atoms: C_15  and  C_16
REMARK    6  A    between atoms: C_18  and  C_19
REMARK                            x       y       z     vdW  Elec       q    Type
REMARK                         _______ _______ _______ _____ _____    ______ ____
ROOT
ATOM      1  C   UNL     1      44.965   4.180   9.640  0.00  0.00    +0.000 A 
ATOM      2  C   UNL     1      43.681   3.923  10.143  0.00  0.00    +0.000 A 
ATOM      3  C   UNL     1      43.085   4.787  11.056  0.00  0.00    +0.000 A 
ATOM      4  C   UNL     1      43.775   5.911  11.510  0.00  0.00    +0.000 A 
ATOM      5  C   UNL     1      45.080   6.180  11.073  0.00  0.00    +0.000 A 
ATOM      6  C   UNL     1      45.639   5.331  10.100  0.00  0.00    +0.000 A 
ENDROOT
BRANCH   1  10
ATOM      7  C   UNL     1      47.285   3.206   5.291  0.00  0.00    +0.000 C 
ATOM      8  C   UNL     1      46.698   2.764   6.597  0.00  0.00    +0.000 A 
ATOM      9  C   UNL     1      46.145   3.684   7.478  0.00  0.00    +0.000 A 
ATOM     10  C   UNL     1      45.597   3.244   8.692  0.00  0.00    +0.000 A 
ATOM     11  C   UNL     1      45.653   1.872   8.965  0.00  0.00    +0.000 A 
ATOM     12  C   UNL     1      46.216   1.023   8.033  0.00  0.00    +0.000 A 
ATOM     13  N   UNL     1      46.738   1.439   6.862  0.00  0.00    +0.000 NA
ENDBRANCH   1  10
BRANCH   5  14
ATOM     14  C   UNL     1      45.920   7.298  11.678  0.00  0.00    +0.000 C 
BRANCH  14  15
ATOM     15  N   UNL     1      46.854   6.796  12.692  0.00  0.00    +0.000 N 
ATOM     16  C   UNL     1      48.037   7.541  12.835  0.00  0.00    +0.000 A 
ATOM     17  C   UNL     1      49.004   7.149  13.760  0.00  0.00    +0.000 A 
ATOM     18  C   UNL     1      50.201   7.862  13.834  0.00  0.00    +0.000 A 
ATOM     19  C   UNL     1      50.412   8.949  12.985  0.00  0.00    +0.000 A 
ATOM     20  C   UNL     1      49.401   9.289  12.091  0.00  0.00    +0.000 A 
ATOM     21  C   UNL     1      49.505  10.438  11.131  0.00  0.00    +0.000 C 
ATOM     22  N   UNL     1      48.233   8.599  12.024  0.00  0.00    +0.000 NA
ATOM     23  H   UNL     1      47.158   5.850  12.467  0.00  0.00    +0.000 HD
BRANCH  19  24
ATOM     24  C   UNL     1      51.645   9.661  13.052  0.00  0.00    +0.000 C 
ATOM     25  N   UNL     1      52.651  10.255  13.112  0.00  0.00    +0.000 NA
ENDBRANCH  19  24
ENDBRANCH  14  15
ENDBRANCH   5  14
TORSDOF 4
ENDMDL
MODEL 9
REMARK VINA RESULT:    -6.293      3.823      5.842
REMARK INTER + INTRA:          -8.487
REMARK INTER:                  -7.848
REMARK INTRA:                  -0.639
REMARK UNBOUND:                -0.723
REMARK  Name = 
REMARK  6 active torsions:
REMARK  status: ('A' for Active; 'I' for Inactive)
REMARK    1  A    between atoms: C_1  and  C_2
REMARK    2  A    between atoms: C_4  and  C_5
REMARK    3  A    between atoms: C_9  and  C_10
REMARK    4  A    between atoms: C_10  and  N_11
REMARK    5  A    between atoms: C_15  and  C_16
REMARK    6  A    between atoms: C_18  and  C_19
REMARK                            x       y       z     vdW  Elec       q    Type
REMARK                         _______ _______ _______ _____ _____    ______ ____
ROOT
ATOM      1  C   UNL     1      46.392   5.434  13.184  0.00  0.00    +0.000 A 
ATOM      2  C   UNL     1      47.122   6.579  12.827  0.00  0.00    +0.000 A 
ATOM      3  C   UNL     1      48.136   7.063  13.647  0.00  0.00    +0.000 A 
ATOM      4  C   UNL     1      48.420   6.431  14.859  0.00  0.00    +0.000 A 
ATOM      5  C   UNL     1      47.682   5.316  15.278  0.00  0.00    +0.000 A 
ATOM      6  C   UNL     1      46.706   4.802  14.405  0.00  0.00    +0.000 A 
ENDROOT
BRANCH   1  10
ATOM      7  C   UNL     1      44.609   4.065   8.691  0.00  0.00    +0.000 C 
ATOM      8  C   UNL     1      44.433   4.299  10.161  0.00  0.00    +0.000 A 
ATOM      9  C   UNL     1      45.495   4.727  10.947  0.00  0.00    +0.000 A 
ATOM     10  C   UNL     1      45.302   4.945  12.319  0.00  0.00    +0.000 A 
ATOM     11  C   UNL     1      44.027   4.699  12.839  0.00  0.00    +0.000 A 
ATOM     12  C   UNL     1      43.023   4.281  11.987  0.00  0.00    +0.000 A 
ATOM     13  N   UNL     1      43.199   4.076  10.667  0.00  0.00    +0.000 NA
ENDBRANCH   1  10
BRANCH   5  14
ATOM     14  C   UNL     1      47.853   4.712  16.667  0.00  0.00    +0.000 C 
BRANCH  14  15
ATOM     15  N   UNL     1      48.270   3.306  16.607  0.00  0.00    +0.000 N 
ATOM     16  C   UNL     1      49.581   3.053  17.047  0.00  0.00    +0.000 A 
ATOM     17  C   UNL     1      50.090   1.756  17.022  0.00  0.00    +0.000 A 
ATOM     18  C   UNL     1      51.417   1.540  17.395  0.00  0.00    +0.000 A 
ATOM     19  C   UNL     1      52.211   2.620  17.782  0.00  0.00    +0.000 A 
ATOM     20  C   UNL     1      51.636   3.887  17.790  0.00  0.00    +0.000 A 
ATOM     21  C   UNL     1      52.382   5.126  18.190  0.00  0.00    +0.000 C 
ATOM     22  N   UNL     1      50.342   4.096  17.433  0.00  0.00    +0.000 NA
ATOM     23  H   UNL     1      48.236   2.959  15.651  0.00  0.00    +0.000 HD
BRANCH  19  24
ATOM     24  C   UNL     1      53.572   2.395  18.143  0.00  0.00    +0.000 C 
ATOM     25  N   UNL     1      54.687   2.218  18.449  0.00  0.00    +0.000 NA
ENDBRANCH  19  24
ENDBRANCH  14  15
ENDBRANCH   5  14
TORSDOF 4
ENDMDL
