MODEL 1
REMARK VINA RESULT:    -6.811      0.000      0.000
REMARK INTER + INTRA:          -8.669
REMARK INTER:                  -8.204
REMARK INTRA:                  -0.465
REMARK UNBOUND:                -0.465
REMARK  Name = 
REMARK  5 active torsions:
REMARK  status: ('A' for Active; 'I' for Inactive)
REMARK    1  A    between atoms: C_1  and  N_2
REMARK    2  A    between atoms: C_4  and  C_5
REMARK    3  A    between atoms: C_5  and  C_6
REMARK    4  A    between atoms: C_15  and  C_16
REMARK    5  A    between atoms: C_16  and  O_18
REMARK                            x       y       z     vdW  Elec       q    Type
REMARK                         _______ _______ _______ _____ _____    ______ ____
ROOT
ATOM      1  C   UNL     1      43.362   2.135  11.761  0.00  0.00    +0.000 C 
ATOM      2  N   UNL     1      44.016   3.326  11.267  0.00  0.00    +0.000 N 
ATOM      3  C   UNL     1      43.989   4.543  11.885  0.00  0.00    +0.000 A 
ATOM      4  C   UNL     1      44.563   5.480  11.044  0.00  0.00    +0.000 A 
ATOM      5  C   UNL     1      45.127   4.738   9.945  0.00  0.00    +0.000 A 
ATOM      6  C   UNL     1      45.933   5.067   8.833  0.00  0.00    +0.000 A 
ATOM      7  C   UNL     1      46.393   4.055   7.969  0.00  0.00    +0.000 A 
ATOM      8  C   UNL     1      46.021   2.722   8.173  0.00  0.00    +0.000 A 
ATOM      9  C   UNL     1      45.188   2.380   9.245  0.00  0.00    +0.000 A 
ATOM     10  C   UNL     1      44.772   3.395  10.121  0.00  0.00    +0.000 A 
ENDROOT
BRANCH   8  11
ATOM     11  C   UNL     1      46.539   1.599   7.345  0.00  0.00    +0.000 C 
ATOM     12  O   UNL     1      46.922   1.741   6.194  0.00  0.00    +0.000 OA
BRANCH  11  13
ATOM     13  O   UNL     1      46.586   0.409   7.985  0.00  0.00    +0.000 OA
ATOM     14  H   UNL     1      47.240   0.359   8.703  0.00  0.00    +0.000 HD
ENDBRANCH  11  13
ENDBRANCH   8  11
BRANCH   4  15
ATOM     15  C   UNL     1      44.668   6.946  11.346  0.00  0.00    +0.000 C 
BRANCH  15  16
ATOM     16  C   UNL     1      45.442   7.406  12.608  0.00  0.00    +0.000 C 
ATOM     17  C   UNL     1      45.598   8.922  12.802  0.00  0.00    +0.000 C 
ATOM     18  C   UNL     1      46.772   9.519  12.031  0.00  0.00    +0.000 C 
ATOM     19  C   UNL     1      48.049   8.684  12.122  0.00  0.00    +0.000 C 
ATOM     20  N   UNL     1      47.857   7.245  11.943  0.00  0.00    +0.000 NA
ATOM     21  C   UNL     1      46.801   6.722  12.804  0.00  0.00    +0.000 C 
ATOM     22  H   UNL     1      47.616   7.063  10.969  0.00  0.00    +0.000 HD
ENDBRANCH  15  16
ENDBRANCH   4  15
TORSDOF 4
ENDMDL
MODEL 2
REMARK VINA RESULT:    -6.164      3.726      6.408
REMARK INTER + INTRA:          -7.890
REMARK INTER:                  -7.457
REMARK INTRA:                  -0.433
REMARK UNBOUND:                -0.465
REMARK  Name = 
REMARK  5 active torsions:
REMARK  status: ('A' for Active; 'I' for Inactive)
REMARK    1  A    between atoms: C_1  and  N_2
REMARK    2  A    between atoms: C_4  and  C_5
REMARK    3  A    between atoms: C_5  and  C_6
REMARK    4  A    between atoms: C_15  and  C_16
REMARK    5  A    between atoms: C_16  and  O_18
REMARK                            x       y       z     vdW  Elec       q    Type
REMARK                         _______ _______ _______ _____ _____    ______ ____
ROOT
ATOM      1  C   UNL     1      41.899   5.702  11.780  0.00  0.00    +0.000 C 
ATOM      2  N   UNL     1      43.230   5.331  11.354  0.00  0.00    +0.000 N 
ATOM      3  C   UNL     1      43.546   4.175  10.702  0.00  0.00    +0.000 A 
ATOM      4  C   UNL     1      44.923   4.076  10.614  0.00  0.00    +0.000 A 
ATOM      5  C   UNL     1      45.443   5.338  11.076  0.00  0.00    +0.000 A 
ATOM      6  C   UNL     1      46.727   5.924  11.130  0.00  0.00    +0.000 A 
ATOM      7  C   UNL     1      46.880   7.250  11.578  0.00  0.00    +0.000 A 
ATOM      8  C   UNL     1      45.774   7.986  12.017  0.00  0.00    +0.000 A 
ATOM      9  C   UNL     1      44.499   7.409  12.012  0.00  0.00    +0.000 A 
ATOM     10  C   UNL     1      44.357   6.100  11.524  0.00  0.00    +0.000 A 
ENDROOT
BRANCH   8  11
ATOM     11  C   UNL     1      45.859   9.414  12.424  0.00  0.00    +0.000 C 
ATOM     12  O   UNL     1      46.901  10.052  12.404  0.00  0.00    +0.000 OA
BRANCH  11  13
ATOM     13  O   UNL     1      44.677   9.963  12.784  0.00  0.00    +0.000 OA
ATOM     14  H   UNL     1      43.910   9.648  12.276  0.00  0.00    +0.000 HD
ENDBRANCH  11  13
ENDBRANCH   8  11
BRANCH   4  15
ATOM     15  C   UNL     1      45.659   2.915  10.014  0.00  0.00    +0.000 C 
BRANCH  15  16
ATOM     16  C   UNL     1      45.309   2.459   8.574  0.00  0.00    +0.000 C 
ATOM     17  C   UNL     1      46.068   1.235   8.039  0.00  0.00    +0.000 C 
ATOM     18  C   UNL     1      47.437   1.571   7.454  0.00  0.00    +0.000 C 
ATOM     19  C   UNL     1      47.431   2.813   6.563  0.00  0.00    +0.000 C 
ATOM     20  N   UNL     1      46.689   3.953   7.102  0.00  0.00    +0.000 NA
ATOM     21  C   UNL     1      45.343   3.579   7.527  0.00  0.00    +0.000 C 
ATOM     22  H   UNL     1      47.199   4.332   7.900  0.00  0.00    +0.000 HD
ENDBRANCH  15  16
ENDBRANCH   4  15
TORSDOF 4
ENDMDL
MODEL 3
REMARK VINA RESULT:    -6.022      2.348      3.672
REMARK INTER + INTRA:          -7.719
REMARK INTER:                  -7.054
REMARK INTRA:                  -0.665
REMARK UNBOUND:                -0.465
REMARK  Name = 
REMARK  5 active torsions:
REMARK  status: ('A' for Active; 'I' for Inactive)
REMARK    1  A    between atoms: C_1  and  N_2
REMARK    2  A    between atoms: C_4  and  C_5
REMARK    3  A    between atoms: C_5  and  C_6
REMARK    4  A    between atoms: C_15  and  C_16
REMARK    5  A    between atoms: C_16  and  O_18
REMARK                            x       y       z     vdW  Elec       q    Type
REMARK                         _______ _______ _______ _____ _____    ______ ____
ROOT
ATOM      1  C   UNL     1      47.076   4.223  14.856  0.00  0.00    +0.000 C 
ATOM      2  N   UNL     1      46.934   5.146  13.752  0.00  0.00    +0.000 N 
ATOM      3  C   UNL     1      47.589   6.338  13.643  0.00  0.00    +0.000 A 
ATOM      4  C   UNL     1      47.077   7.029  12.559  0.00  0.00    +0.000 A 
ATOM      5  C   UNL     1      46.199   6.111  11.880  0.00  0.00    +0.000 A 
ATOM      6  C   UNL     1      45.472   6.142  10.669  0.00  0.00    +0.000 A 
ATOM      7  C   UNL     1      44.756   5.006  10.246  0.00  0.00    +0.000 A 
ATOM      8  C   UNL     1      44.717   3.853  11.037  0.00  0.00    +0.000 A 
ATOM      9  C   UNL     1      45.396   3.816  12.260  0.00  0.00    +0.000 A 
ATOM     10  C   UNL     1      46.139   4.943  12.649  0.00  0.00    +0.000 A 
ENDROOT
BRANCH   8  11
ATOM     11  C   UNL     1      44.047   2.596  10.607  0.00  0.00    +0.000 C 
ATOM     12  O   UNL     1      44.314   2.021   9.563  0.00  0.00    +0.000 OA
BRANCH  11  13
ATOM     13  O   UNL     1      43.139   2.118  11.488  0.00  0.00    +0.000 OA
ATOM     14  H   UNL     1      42.879   2.745  12.185  0.00  0.00    +0.000 HD
ENDBRANCH  11  13
ENDBRANCH   8  11
BRANCH   4  15
ATOM     15  C   UNL     1      47.504   8.407  12.148  0.00  0.00    +0.000 C 
BRANCH  15  16
ATOM     16  C   UNL     1      46.710   9.633  12.668  0.00  0.00    +0.000 C 
ATOM     17  C   UNL     1      45.179   9.557  12.555  0.00  0.00    +0.000 C 
ATOM     18  C   UNL     1      44.646   9.965  11.184  0.00  0.00    +0.000 C 
ATOM     19  C   UNL     1      45.311  11.221  10.621  0.00  0.00    +0.000 C 
ATOM     20  N   UNL     1      46.767  11.260  10.758  0.00  0.00    +0.000 NA
ATOM     21  C   UNL     1      47.197  10.982  12.125  0.00  0.00    +0.000 C 
ATOM     22  H   UNL     1      47.177  10.569  10.131  0.00  0.00    +0.000 HD
ENDBRANCH  15  16
ENDBRANCH   4  15
TORSDOF 4
ENDMDL
MODEL 4
REMARK VINA RESULT:    -6.015      2.628      4.272
REMARK INTER + INTRA:          -7.711
REMARK INTER:                  -7.176
REMARK INTRA:                  -0.534
REMARK UNBOUND:                -0.465
REMARK  Name = 
REMARK  5 active torsions:
REMARK  status: ('A' for Active; 'I' for Inactive)
REMARK    1  A    between atoms: C_1  and  N_2
REMARK    2  A    between atoms: C_4  and  C_5
REMARK    3  A    between atoms: C_5  and  C_6
REMARK    4  A    between atoms: C_15  and  C_16
REMARK    5  A    between atoms: C_16  and  O_18
REMARK                            x       y       z     vdW  Elec       q    Type
REMARK                         _______ _______ _______ _____ _____    ______ ____
ROOT
ATOM      1  C   UNL     1      47.194   4.038  15.424  0.00  0.00    +0.000 C 
ATOM      2  N   UNL     1      47.160   5.043  14.386  0.00  0.00    +0.000 N 
ATOM      3  C   UNL     1      47.908   6.184  14.382  0.00  0.00    +0.000 A 
ATOM      4  C   UNL     1      47.487   6.987  13.337  0.00  0.00    +0.000 A 
ATOM      5  C   UNL     1      46.564   6.192  12.570  0.00  0.00    +0.000 A 
ATOM      6  C   UNL     1      45.882   6.365  11.344  0.00  0.00    +0.000 A 
ATOM      7  C   UNL     1      45.095   5.321  10.821  0.00  0.00    +0.000 A 
ATOM      8  C   UNL     1      44.941   4.123  11.526  0.00  0.00    +0.000 A 
ATOM      9  C   UNL     1      45.574   3.947  12.761  0.00  0.00    +0.000 A 
ATOM     10  C   UNL     1      46.388   4.981  13.250  0.00  0.00    +0.000 A 
ENDROOT
BRANCH   8  11
ATOM     11  C   UNL     1      44.190   2.956  10.988  0.00  0.00    +0.000 C 
ATOM     12  O   UNL     1      43.059   2.667  11.349  0.00  0.00    +0.000 OA
BRANCH  11  13
ATOM     13  O   UNL     1      44.849   2.259  10.035  0.00  0.00    +0.000 OA
ATOM     14  H   UNL     1      45.583   2.739   9.614  0.00  0.00    +0.000 HD
ENDBRANCH  11  13
ENDBRANCH   8  11
BRANCH   4  15
ATOM     15  C   UNL     1      48.032   8.353  13.038  0.00  0.00    +0.000 C 
BRANCH  15  16
ATOM     16  C   UNL     1      48.761   8.601  11.693  0.00  0.00    +0.000 C 
ATOM     17  C   UNL     1      50.011   7.749  11.424  0.00  0.00    +0.000 C 
ATOM     18  C   UNL     1      51.281   8.309  12.059  0.00  0.00    +0.000 C 
ATOM     19  C   UNL     1      51.434   9.820  11.886  0.00  0.00    +0.000 C 
ATOM     20  N   UNL     1      50.219  10.594  12.140  0.00  0.00    +0.000 NA
ATOM     21  C   UNL     1      49.073  10.073  11.401  0.00  0.00    +0.000 C 
ATOM     22  H   UNL     1      50.014  10.569  13.138  0.00  0.00    +0.000 HD
ENDBRANCH  15  16
ENDBRANCH   4  15
TORSDOF 4
ENDMDL
MODEL 5
REMARK VINA RESULT:    -5.912      3.804      5.587
REMARK INTER + INTRA:          -7.586
REMARK INTER:                  -7.141
REMARK INTRA:                  -0.445
REMARK UNBOUND:                -0.465
REMARK  Name = 
REMARK  5 active torsions:
REMARK  status: ('A' for Active; 'I' for Inactive)
REMARK    1  A    between atoms: C_1  and  N_2
REMARK    2  A    between atoms: C_4  and  C_5
REMARK    3  A    between atoms: C_5  and  C_6
REMARK    4  A    between atoms: C_15  and  C_16
REMARK    5  A    between atoms: C_16  and  O_18
REMARK                            x       y       z     vdW  Elec       q    Type
REMARK                         _______ _______ _______ _____ _____    ______ ____
ROOT
ATOM      1  C   UNL     1      45.324   8.555  12.140  0.00  0.00    +0.000 C 
ATOM      2  N   UNL     1      46.142   7.579  12.825  0.00  0.00    +0.000 N 
ATOM      3  C   UNL     1      47.212   7.878  13.617  0.00  0.00    +0.000 A 
ATOM      4  C   UNL     1      47.856   6.701  13.955  0.00  0.00    +0.000 A 
ATOM      5  C   UNL     1      47.008   5.635  13.488  0.00  0.00    +0.000 A 
ATOM      6  C   UNL     1      47.020   4.227  13.615  0.00  0.00    +0.000 A 
ATOM      7  C   UNL     1      45.960   3.463  13.092  0.00  0.00    +0.000 A 
ATOM      8  C   UNL     1      44.909   4.079  12.403  0.00  0.00    +0.000 A 
ATOM      9  C   UNL     1      44.900   5.467  12.231  0.00  0.00    +0.000 A 
ATOM     10  C   UNL     1      45.943   6.220  12.794  0.00  0.00    +0.000 A 
ENDROOT
BRANCH   8  11
ATOM     11  C   UNL     1      43.723   3.335  11.900  0.00  0.00    +0.000 C 
ATOM     12  O   UNL     1      43.007   3.751  11.001  0.00  0.00    +0.000 OA
BRANCH  11  13
ATOM     13  O   UNL     1      43.520   2.138  12.495  0.00  0.00    +0.000 OA
ATOM     14  H   UNL     1      42.590   1.856  12.536  0.00  0.00    +0.000 HD
ENDBRANCH  11  13
ENDBRANCH   8  11
BRANCH   4  15
ATOM     15  C   UNL     1      49.113   6.621  14.771  0.00  0.00    +0.000 C 
BRANCH  15  16
ATOM     16  C   UNL     1      49.008   6.512  16.313  0.00  0.00    +0.000 C 
ATOM     17  C   UNL     1      50.313   6.697  17.104  0.00  0.00    +0.000 C 
ATOM     18  C   UNL     1      51.152   5.427  17.207  0.00  0.00    +0.000 C 
ATOM     19  C   UNL     1      50.331   4.179  17.530  0.00  0.00    +0.000 C 
ATOM     20  N   UNL     1      49.091   4.044  16.765  0.00  0.00    +0.000 NA
ATOM     21  C   UNL     1      48.282   5.257  16.814  0.00  0.00    +0.000 C 
ATOM     22  H   UNL     1      49.323   3.835  15.794  0.00  0.00    +0.000 HD
ENDBRANCH  15  16
ENDBRANCH   4  15
TORSDOF 4
ENDMDL
MODEL 6
REMARK VINA RESULT:    -5.662      2.740      4.409
REMARK INTER + INTRA:          -7.286
REMARK INTER:                  -6.770
REMARK INTRA:                  -0.516
REMARK UNBOUND:                -0.465
REMARK  Name = 
REMARK  5 active torsions:
REMARK  status: ('A' for Active; 'I' for Inactive)
REMARK    1  A    between atoms: C_1  and  N_2
REMARK    2  A    between atoms: C_4  and  C_5
REMARK    3  A    between atoms: C_5  and  C_6
REMARK    4  A    between atoms: C_15  and  C_16
REMARK    5  A    between atoms: C_16  and  O_18
REMARK                            x       y       z     vdW  Elec       q    Type
REMARK                         _______ _______ _______ _____ _____    ______ ____
ROOT
ATOM      1  C   UNL     1      44.010   9.200  10.838  0.00  0.00    +0.000 C 
ATOM      2  N   UNL     1      44.881   8.550  11.792  0.00  0.00    +0.000 N 
ATOM      3  C   UNL     1      45.612   9.196  12.746  0.00  0.00    +0.000 A 
ATOM      4  C   UNL     1      46.457   8.284  13.352  0.00  0.00    +0.000 A 
ATOM      5  C   UNL     1      46.069   6.990  12.852  0.00  0.00    +0.000 A 
ATOM      6  C   UNL     1      46.439   5.658  13.148  0.00  0.00    +0.000 A 
ATOM      7  C   UNL     1      45.784   4.586  12.513  0.00  0.00    +0.000 A 
ATOM      8  C   UNL     1      44.796   4.824  11.552  0.00  0.00    +0.000 A 
ATOM      9  C   UNL     1      44.445   6.135  11.214  0.00  0.00    +0.000 A 
ATOM     10  C   UNL     1      45.078   7.193  11.885  0.00  0.00    +0.000 A 
ENDROOT
BRANCH   8  11
ATOM     11  C   UNL     1      44.013   3.735  10.907  0.00  0.00    +0.000 C 
ATOM     12  O   UNL     1      44.496   2.951  10.104  0.00  0.00    +0.000 OA
BRANCH  11  13
ATOM     13  O   UNL     1      42.725   3.659  11.311  0.00  0.00    +0.000 OA
ATOM     14  H   UNL     1      42.597   3.704  12.275  0.00  0.00    +0.000 HD
ENDBRANCH  11  13
ENDBRANCH   8  11
BRANCH   4  15
ATOM     15  C   UNL     1      47.459   8.624  14.415  0.00  0.00    +0.000 C 
BRANCH  15  16
ATOM     16  C   UNL     1      48.920   8.943  14.006  0.00  0.00    +0.000 C 
ATOM     17  C   UNL     1      49.108   9.765  12.721  0.00  0.00    +0.000 C 
ATOM     18  C   UNL     1      49.079   8.924  11.447  0.00  0.00    +0.000 C 
ATOM     19  C   UNL     1      49.883   7.629  11.553  0.00  0.00    +0.000 C 
ATOM     20  N   UNL     1      49.685   6.882  12.795  0.00  0.00    +0.000 NA
ATOM     21  C   UNL     1      49.851   7.725  13.974  0.00  0.00    +0.000 C 
ATOM     22  H   UNL     1      48.746   6.486  12.796  0.00  0.00    +0.000 HD
ENDBRANCH  15  16
ENDBRANCH   4  15
TORSDOF 4
ENDMDL
MODEL 7
REMARK VINA RESULT:    -5.641      4.193      5.885
REMARK INTER + INTRA:          -7.260
REMARK INTER:                  -6.840
REMARK INTRA:                  -0.419
REMARK UNBOUND:                -0.465
REMARK  Name = 
REMARK  5 active torsions:
REMARK  status: ('A' for Active; 'I' for Inactive)
REMARK    1  A    between atoms: C_1  and  N_2
REMARK    2  A    between atoms: C_4  and  C_5
REMARK    3  A    between atoms: C_5  and  C_6
REMARK    4  A    between atoms: C_15  and  C_16
REMARK    5  A    between atoms: C_16  and  O_18
REMARK                            x       y       z     vdW  Elec       q    Type
REMARK                         _______ _______ _______ _____ _____    ______ ____
ROOT
ATOM      1  C   UNL     1      47.412   8.425  12.158  0.00  0.00    +0.000 C 
ATOM      2  N   UNL     1      47.362   7.233  12.975  0.00  0.00    +0.000 N 
ATOM      3  C   UNL     1      47.969   7.094  14.190  0.00  0.00    +0.000 A 
ATOM      4  C   UNL     1      47.860   5.776  14.592  0.00  0.00    +0.000 A 
ATOM      5  C   UNL     1      46.976   5.142  13.648  0.00  0.00    +0.000 A 
ATOM      6  C   UNL     1      46.370   3.869  13.553  0.00  0.00    +0.000 A 
ATOM      7  C   UNL     1      45.463   3.596  12.511  0.00  0.00    +0.000 A 
ATOM      8  C   UNL     1      45.187   4.559  11.535  0.00  0.00    +0.000 A 
ATOM      9  C   UNL     1      45.809   5.812  11.588  0.00  0.00    +0.000 A 
ATOM     10  C   UNL     1      46.679   6.083  12.656  0.00  0.00    +0.000 A 
ENDROOT
BRANCH   8  11
ATOM     11  C   UNL     1      44.179   4.359  10.459  0.00  0.00    +0.000 C 
ATOM     12  O   UNL     1      44.086   3.323   9.818  0.00  0.00    +0.000 OA
BRANCH  11  13
ATOM     13  O   UNL     1      43.345   5.406  10.273  0.00  0.00    +0.000 OA
ATOM     14  H   UNL     1      42.657   5.264   9.600  0.00  0.00    +0.000 HD
ENDBRANCH  11  13
ENDBRANCH   8  11
BRANCH   4  15
ATOM     15  C   UNL     1      48.453   5.217  15.852  0.00  0.00    +0.000 C 
BRANCH  15  16
ATOM     16  C   UNL     1      47.534   4.486  16.864  0.00  0.00    +0.000 C 
ATOM     17  C   UNL     1      47.118   5.282  18.111  0.00  0.00    +0.000 C 
ATOM     18  C   UNL     1      48.152   5.246  19.233  0.00  0.00    +0.000 C 
ATOM     19  C   UNL     1      48.740   3.856  19.475  0.00  0.00    +0.000 C 
ATOM     20  N   UNL     1      49.113   3.126  18.263  0.00  0.00    +0.000 NA
ATOM     21  C   UNL     1      48.029   3.098  17.285  0.00  0.00    +0.000 C 
ATOM     22  H   UNL     1      49.928   3.574  17.845  0.00  0.00    +0.000 HD
ENDBRANCH  15  16
ENDBRANCH   4  15
TORSDOF 4
ENDMDL
MODEL 8
REMARK VINA RESULT:    -5.566      4.433      5.951
REMARK INTER + INTRA:          -7.170
REMARK INTER:                  -6.596
REMARK INTRA:                  -0.574
REMARK UNBOUND:                -0.465
REMARK  Name = 
REMARK  5 active torsions:
REMARK  status: ('A' for Active; 'I' for Inactive)
REMARK    1  A    between atoms: C_1  and  N_2
REMARK    2  A    between atoms: C_4  and  C_5
REMARK    3  A    between atoms: C_5  and  C_6
REMARK    4  A    between atoms: C_15  and  C_16
REMARK    5  A    between atoms: C_16  and  O_18
REMARK                            x       y       z     vdW  Elec       q    Type
REMARK                         _______ _______ _______ _____ _____    ______ ____
ROOT
ATOM      1  C   UNL     1      43.359   3.942  11.564  0.00  0.00    +0.000 C 
ATOM      2  N   UNL     1      44.560   4.391  12.231  0.00  0.00    +0.000 N 
ATOM      3  C   UNL     1      45.468   3.572  12.837  0.00  0.00    +0.000 A 
ATOM      4  C   UNL     1      46.384   4.353  13.519  0.00  0.00    +0.000 A 
ATOM      5  C   UNL     1      46.108   5.714  13.139  0.00  0.00    +0.000 A 
ATOM      6  C   UNL     1      46.735   6.959  13.376  0.00  0.00    +0.000 A 
ATOM      7  C   UNL     1      46.237   8.127  12.767  0.00  0.00    +0.000 A 
ATOM      8  C   UNL     1      45.094   8.079  11.961  0.00  0.00    +0.000 A 
ATOM      9  C   UNL     1      44.435   6.863  11.748  0.00  0.00    +0.000 A 
ATOM     10  C   UNL     1      44.967   5.701  12.329  0.00  0.00    +0.000 A 
ENDROOT
BRANCH   8  11
ATOM     11  C   UNL     1      44.569   9.261  11.228  0.00  0.00    +0.000 C 
ATOM     12  O   UNL     1      45.073  10.372  11.304  0.00  0.00    +0.000 OA
BRANCH  11  13
ATOM     13  O   UNL     1      43.505   8.999  10.435  0.00  0.00    +0.000 OA
ATOM     14  H   UNL     1      43.724   8.571   9.589  0.00  0.00    +0.000 HD
ENDBRANCH  11  13
ENDBRANCH   8  11
BRANCH   4  15
ATOM     15  C   UNL     1      47.506   3.815  14.357  0.00  0.00    +0.000 C 
BRANCH  15  16
ATOM     16  C   UNL     1      47.373   3.830  15.901  0.00  0.00    +0.000 C 
ATOM     17  C   UNL     1      47.628   5.176  16.598  0.00  0.00    +0.000 C 
ATOM     18  C   UNL     1      49.104   5.461  16.858  0.00  0.00    +0.000 C 
ATOM     19  C   UNL     1      49.871   4.256  17.402  0.00  0.00    +0.000 C 
ATOM     20  N   UNL     1      49.594   2.992  16.720  0.00  0.00    +0.000 NA
ATOM     21  C   UNL     1      48.162   2.727  16.618  0.00  0.00    +0.000 C 
ATOM     22  H   UNL     1      49.995   3.027  15.783  0.00  0.00    +0.000 HD
ENDBRANCH  15  16
ENDBRANCH   4  15
TORSDOF 4
ENDMDL
MODEL 9
REMARK VINA RESULT:    -5.527      4.361      6.149
REMARK INTER + INTRA:          -7.122
REMARK INTER:                  -6.461
REMARK INTRA:                  -0.661
REMARK UNBOUND:                -0.465
REMARK  Name = 
REMARK  5 active torsions:
REMARK  status: ('A' for Active; 'I' for Inactive)
REMARK    1  A    between atoms: C_1  and  N_2
REMARK    2  A    between atoms: C_4  and  C_5
REMARK    3  A    between atoms: C_5  and  C_6
REMARK    4  A    between atoms: C_15  and  C_16
REMARK    5  A    between atoms: C_16  and  O_18
REMARK                            x       y       z     vdW  Elec       q    Type
REMARK                         _______ _______ _______ _____ _____    ______ ____
ROOT
ATOM      1  C   UNL     1      45.316   3.854  12.294  0.00  0.00    +0.000 C 
ATOM      2  N   UNL     1      46.089   4.974  12.781  0.00  0.00    +0.000 N 
ATOM      3  C   UNL     1      46.170   6.190  12.168  0.00  0.00    +0.000 A 
ATOM      4  C   UNL     1      47.131   6.949  12.812  0.00  0.00    +0.000 A 
ATOM      5  C   UNL     1      47.506   6.204  13.986  0.00  0.00    +0.000 A 
ATOM      6  C   UNL     1      48.328   6.461  15.107  0.00  0.00    +0.000 A 
ATOM      7  C   UNL     1      48.413   5.521  16.151  0.00  0.00    +0.000 A 
ATOM      8  C   UNL     1      47.724   4.306  16.073  0.00  0.00    +0.000 A 
ATOM      9  C   UNL     1      46.937   4.014  14.953  0.00  0.00    +0.000 A 
ATOM     10  C   UNL     1      46.830   4.979  13.939  0.00  0.00    +0.000 A 
ENDROOT
BRANCH   8  11
ATOM     11  C   UNL     1      47.709   3.310  17.178  0.00  0.00    +0.000 C 
ATOM     12  O   UNL     1      48.726   2.873  17.696  0.00  0.00    +0.000 OA
BRANCH  11  13
ATOM     13  O   UNL     1      46.472   2.952  17.590  0.00  0.00    +0.000 OA
ATOM     14  H   UNL     1      46.011   3.622  18.124  0.00  0.00    +0.000 HD
ENDBRANCH  11  13
ENDBRANCH   8  11
BRANCH   4  15
ATOM     15  C   UNL     1      47.550   8.328  12.395  0.00  0.00    +0.000 C 
BRANCH  15  16
ATOM     16  C   UNL     1      48.841   8.507  11.557  0.00  0.00    +0.000 C 
ATOM     17  C   UNL     1      50.067   7.694  12.004  0.00  0.00    +0.000 C 
ATOM     18  C   UNL     1      50.865   8.356  13.124  0.00  0.00    +0.000 C 
ATOM     19  C   UNL     1      51.078   9.855  12.917  0.00  0.00    +0.000 C 
ATOM     20  N   UNL     1      49.892  10.591  12.481  0.00  0.00    +0.000 NA
ATOM     21  C   UNL     1      49.253   9.967  11.327  0.00  0.00    +0.000 C 
ATOM     22  H   UNL     1      49.226  10.631  13.252  0.00  0.00    +0.000 HD
ENDBRANCH  15  16
ENDBRANCH   4  15
TORSDOF 4
ENDMDL
