MODEL 1
REMARK VINA RESULT:    -9.075      0.000      0.000
REMARK INTER + INTRA:         -13.126
REMARK INTER:                 -12.259
REMARK INTRA:                  -0.867
REMARK UNBOUND:                -0.867
REMARK  Name = 
REMARK  6 active torsions:
REMARK  status: ('A' for Active; 'I' for Inactive)
REMARK    1  A    between atoms: C_2  and  C_4
REMARK    2  A    between atoms: C_7  and  N_8
REMARK    3  A    between atoms: N_8  and  C_9
REMARK    4  A    between atoms: C_9  and  C_10
REMARK    5  A    between atoms: C_10  and  C_13
REMARK    6  A    between atoms: C_15  and  C_16
REMARK                            x       y       z     vdW  Elec       q    Type
REMARK                         _______ _______ _______ _____ _____    ______ ____
ROOT
ATOM      1  C   UNL     1      43.347   4.946  12.572  0.00  0.00    +0.000 C 
ATOM      2  F   UNL     1      42.664   6.095  12.284  0.00  0.00    +0.000 F 
ATOM      3  F   UNL     1      42.677   4.391  13.632  0.00  0.00    +0.000 F 
ENDROOT
BRANCH   1   4
ATOM      4  C   UNL     1      44.805   5.236  12.922  0.00  0.00    +0.000 A 
ATOM      5  C   UNL     1      45.384   6.430  12.482  0.00  0.00    +0.000 A 
ATOM      6  C   UNL     1      46.722   6.724  12.792  0.00  0.00    +0.000 A 
ATOM      7  C   UNL     1      47.424   5.773  13.546  0.00  0.00    +0.000 A 
ATOM      8  C   UNL     1      46.789   4.609  13.941  0.00  0.00    +0.000 A 
ATOM      9  N   UNL     1      45.505   4.326  13.651  0.00  0.00    +0.000 NA
BRANCH   6  10
ATOM     10  C   UNL     1      47.367   7.974  12.350  0.00  0.00    +0.000 A 
ATOM     11  C   UNL     1      46.761   9.221  12.423  0.00  0.00    +0.000 A 
ATOM     12  N   UNL     1      47.329  10.383  12.031  0.00  0.00    +0.000 NA
ATOM     13  C   UNL     1      48.574  10.287  11.544  0.00  0.00    +0.000 A 
ATOM     14  N   UNL     1      49.277   9.156  11.418  0.00  0.00    +0.000 NA
ATOM     15  C   UNL     1      48.649   8.029  11.821  0.00  0.00    +0.000 A 
ENDBRANCH   6  10
ENDBRANCH   1   4
BRANCH   1  16
ATOM     16  C   UNL     1      43.240   3.975  11.373  0.00  0.00    +0.000 C 
BRANCH  16  17
ATOM     17  N   UNL     1      43.677   4.557  10.089  0.00  0.00    +0.000 N 
ATOM     18  H   UNL     1      42.924   4.947   9.525  0.00  0.00    +0.000 HD
BRANCH  17  22
ATOM     19  C   UNL     1      46.493   2.493   7.717  0.00  0.00    +0.000 A 
ATOM     20  C   UNL     1      46.384   3.880   7.601  0.00  0.00    +0.000 A 
ATOM     21  C   UNL     1      45.468   4.579   8.394  0.00  0.00    +0.000 A 
ATOM     22  C   UNL     1      44.665   3.922   9.337  0.00  0.00    +0.000 A 
ATOM     23  C   UNL     1      44.771   2.528   9.421  0.00  0.00    +0.000 A 
ATOM     24  C   UNL     1      45.670   1.815   8.619  0.00  0.00    +0.000 A 
BRANCH  19  26
ATOM     25  N   UNL     1      48.542   2.359   6.413  0.00  0.00    +0.000 N 
ATOM     26  C   UNL     1      47.432   1.709   6.877  0.00  0.00    +0.000 C 
ATOM     27  O   UNL     1      47.250   0.524   6.638  0.00  0.00    +0.000 OA
ATOM     28  H   UNL     1      49.229   1.786   5.941  0.00  0.00    +0.000 HD
ATOM     29  H   UNL     1      48.850   3.242   6.796  0.00  0.00    +0.000 HD
ENDBRANCH  19  26
ENDBRANCH  17  22
ENDBRANCH  16  17
ENDBRANCH   1  16
TORSDOF 6
ENDMDL
MODEL 2
REMARK VINA RESULT:    -9.002      1.910      3.421
REMARK INTER + INTRA:         -13.027
REMARK INTER:                 -11.979
REMARK INTRA:                  -1.048
REMARK UNBOUND:                -0.867
REMARK  Name = 
REMARK  6 active torsions:
REMARK  status: ('A' for Active; 'I' for Inactive)
REMARK    1  A    between atoms: C_2  and  C_4
REMARK    2  A    between atoms: C_7  and  N_8
REMARK    3  A    between atoms: N_8  and  C_9
REMARK    4  A    between atoms: C_9  and  C_10
REMARK    5  A    between atoms: C_10  and  C_13
REMARK    6  A    between atoms: C_15  and  C_16
REMARK                            x       y       z     vdW  Elec       q    Type
REMARK                         _______ _______ _______ _____ _____    ______ ____
ROOT
ATOM      1  C   UNL     1      43.275   5.616  12.108  0.00  0.00    +0.000 C 
ATOM      2  F   UNL     1      42.587   6.738  11.735  0.00  0.00    +0.000 F 
ATOM      3  F   UNL     1      42.655   5.184  13.252  0.00  0.00    +0.000 F 
ENDROOT
BRANCH   1   4
ATOM      4  C   UNL     1      44.751   5.922  12.351  0.00  0.00    +0.000 A 
ATOM      5  C   UNL     1      45.397   5.333  13.441  0.00  0.00    +0.000 A 
ATOM      6  C   UNL     1      46.754   5.595  13.687  0.00  0.00    +0.000 A 
ATOM      7  C   UNL     1      47.405   6.462  12.798  0.00  0.00    +0.000 A 
ATOM      8  C   UNL     1      46.701   7.015  11.744  0.00  0.00    +0.000 A 
ATOM      9  N   UNL     1      45.401   6.763  11.502  0.00  0.00    +0.000 NA
BRANCH   6  10
ATOM     10  C   UNL     1      47.471   4.989  14.824  0.00  0.00    +0.000 A 
ATOM     11  C   UNL     1      47.406   3.640  15.145  0.00  0.00    +0.000 A 
ATOM     12  N   UNL     1      48.056   3.057  16.177  0.00  0.00    +0.000 NA
ATOM     13  C   UNL     1      48.814   3.872  16.923  0.00  0.00    +0.000 A 
ATOM     14  N   UNL     1      48.970   5.187  16.729  0.00  0.00    +0.000 NA
ATOM     15  C   UNL     1      48.287   5.709  15.685  0.00  0.00    +0.000 A 
ENDBRANCH   6  10
ENDBRANCH   1   4
BRANCH   1  16
ATOM     16  C   UNL     1      43.099   4.526  11.024  0.00  0.00    +0.000 C 
BRANCH  16  17
ATOM     17  N   UNL     1      43.736   4.855   9.734  0.00  0.00    +0.000 N 
ATOM     18  H   UNL     1      43.113   5.290   9.055  0.00  0.00    +0.000 HD
BRANCH  17  22
ATOM     19  C   UNL     1      46.315   2.047   7.924  0.00  0.00    +0.000 A 
ATOM     20  C   UNL     1      46.427   3.397   7.586  0.00  0.00    +0.000 A 
ATOM     21  C   UNL     1      45.590   4.341   8.192  0.00  0.00    +0.000 A 
ATOM     22  C   UNL     1      44.651   3.970   9.164  0.00  0.00    +0.000 A 
ATOM     23  C   UNL     1      44.537   2.608   9.471  0.00  0.00    +0.000 A 
ATOM     24  C   UNL     1      45.355   1.652   8.857  0.00  0.00    +0.000 A 
BRANCH  19  26
ATOM     25  N   UNL     1      46.862  -0.296   7.564  0.00  0.00    +0.000 N 
ATOM     26  C   UNL     1      47.163   1.009   7.286  0.00  0.00    +0.000 C 
ATOM     27  O   UNL     1      48.067   1.297   6.515  0.00  0.00    +0.000 OA
ATOM     28  H   UNL     1      47.371  -0.992   7.035  0.00  0.00    +0.000 HD
ATOM     29  H   UNL     1      45.983  -0.570   7.978  0.00  0.00    +0.000 HD
ENDBRANCH  19  26
ENDBRANCH  17  22
ENDBRANCH  16  17
ENDBRANCH   1  16
TORSDOF 6
ENDMDL
MODEL 3
REMARK VINA RESULT:    -8.792      1.652      2.270
REMARK INTER + INTRA:         -12.743
REMARK INTER:                 -11.750
REMARK INTRA:                  -0.994
REMARK UNBOUND:                -0.867
REMARK  Name = 
REMARK  6 active torsions:
REMARK  status: ('A' for Active; 'I' for Inactive)
REMARK    1  A    between atoms: C_2  and  C_4
REMARK    2  A    between atoms: C_7  and  N_8
REMARK    3  A    between atoms: N_8  and  C_9
REMARK    4  A    between atoms: C_9  and  C_10
REMARK    5  A    between atoms: C_10  and  C_13
REMARK    6  A    between atoms: C_15  and  C_16
REMARK                            x       y       z     vdW  Elec       q    Type
REMARK                         _______ _______ _______ _____ _____    ______ ____
ROOT
ATOM      1  C   UNL     1      43.906   4.597  12.414  0.00  0.00    +0.000 C 
ATOM      2  F   UNL     1      43.044   4.592  13.476  0.00  0.00    +0.000 F 
ATOM      3  F   UNL     1      44.731   3.521  12.622  0.00  0.00    +0.000 F 
ENDROOT
BRANCH   1   4
ATOM      4  C   UNL     1      44.696   5.902  12.342  0.00  0.00    +0.000 A 
ATOM      5  C   UNL     1      45.940   5.979  12.974  0.00  0.00    +0.000 A 
ATOM      6  C   UNL     1      46.689   7.166  12.922  0.00  0.00    +0.000 A 
ATOM      7  C   UNL     1      46.127   8.241  12.218  0.00  0.00    +0.000 A 
ATOM      8  C   UNL     1      44.887   8.096  11.624  0.00  0.00    +0.000 A 
ATOM      9  N   UNL     1      44.168   6.959  11.667  0.00  0.00    +0.000 NA
BRANCH   6  10
ATOM     10  C   UNL     1      48.007   7.285  13.571  0.00  0.00    +0.000 A 
ATOM     11  C   UNL     1      48.379   6.560  14.695  0.00  0.00    +0.000 A 
ATOM     12  N   UNL     1      49.582   6.644  15.308  0.00  0.00    +0.000 NA
ATOM     13  C   UNL     1      50.456   7.497  14.759  0.00  0.00    +0.000 A 
ATOM     14  N   UNL     1      50.234   8.255  13.679  0.00  0.00    +0.000 NA
ATOM     15  C   UNL     1      49.010   8.130  13.119  0.00  0.00    +0.000 A 
ENDBRANCH   6  10
ENDBRANCH   1   4
BRANCH   1  16
ATOM     16  C   UNL     1      43.111   4.349  11.111  0.00  0.00    +0.000 C 
BRANCH  16  17
ATOM     17  N   UNL     1      43.781   4.851   9.895  0.00  0.00    +0.000 N 
ATOM     18  H   UNL     1      43.174   5.373   9.265  0.00  0.00    +0.000 HD
BRANCH  17  22
ATOM     19  C   UNL     1      46.422   2.316   7.794  0.00  0.00    +0.000 A 
ATOM     20  C   UNL     1      46.519   3.699   7.624  0.00  0.00    +0.000 A 
ATOM     21  C   UNL     1      45.661   4.552   8.328  0.00  0.00    +0.000 A 
ATOM     22  C   UNL     1      44.715   4.053   9.234  0.00  0.00    +0.000 A 
ATOM     23  C   UNL     1      44.617   2.663   9.372  0.00  0.00    +0.000 A 
ATOM     24  C   UNL     1      45.456   1.799   8.658  0.00  0.00    +0.000 A 
BRANCH  19  26
ATOM     25  N   UNL     1      48.417   1.894   6.468  0.00  0.00    +0.000 N 
ATOM     26  C   UNL     1      47.293   1.374   7.047  0.00  0.00    +0.000 C 
ATOM     27  O   UNL     1      47.045   0.178   6.983  0.00  0.00    +0.000 OA
ATOM     28  H   UNL     1      49.059   1.224   6.063  0.00  0.00    +0.000 HD
ATOM     29  H   UNL     1      48.780   2.803   6.714  0.00  0.00    +0.000 HD
ENDBRANCH  19  26
ENDBRANCH  17  22
ENDBRANCH  16  17
ENDBRANCH   1  16
TORSDOF 6
ENDMDL
MODEL 4
REMARK VINA RESULT:    -8.001      2.451      4.203
REMARK INTER + INTRA:         -11.674
REMARK INTER:                 -10.987
REMARK INTRA:                  -0.688
REMARK UNBOUND:                -0.867
REMARK  Name = 
REMARK  6 active torsions:
REMARK  status: ('A' for Active; 'I' for Inactive)
REMARK    1  A    between atoms: C_2  and  C_4
REMARK    2  A    between atoms: C_7  and  N_8
REMARK    3  A    between atoms: N_8  and  C_9
REMARK    4  A    between atoms: C_9  and  C_10
REMARK    5  A    between atoms: C_10  and  C_13
REMARK    6  A    between atoms: C_15  and  C_16
REMARK                            x       y       z     vdW  Elec       q    Type
REMARK                         _______ _______ _______ _____ _____    ______ ____
ROOT
ATOM      1  C   UNL     1      44.780   5.422  12.343  0.00  0.00    +0.000 C 
ATOM      2  F   UNL     1      43.680   5.998  12.917  0.00  0.00    +0.000 F 
ATOM      3  F   UNL     1      44.522   4.076  12.354  0.00  0.00    +0.000 F 
ENDROOT
BRANCH   1   4
ATOM      4  C   UNL     1      46.053   5.755  13.119  0.00  0.00    +0.000 A 
ATOM      5  C   UNL     1      46.342   5.044  14.286  0.00  0.00    +0.000 A 
ATOM      6  C   UNL     1      47.507   5.327  15.018  0.00  0.00    +0.000 A 
ATOM      7  C   UNL     1      48.338   6.342  14.521  0.00  0.00    +0.000 A 
ATOM      8  C   UNL     1      47.985   7.010  13.363  0.00  0.00    +0.000 A 
ATOM      9  N   UNL     1      46.872   6.738  12.656  0.00  0.00    +0.000 NA
BRANCH   6  10
ATOM     10  C   UNL     1      47.849   4.596  16.251  0.00  0.00    +0.000 A 
ATOM     11  C   UNL     1      48.073   5.211  17.475  0.00  0.00    +0.000 A 
ATOM     12  N   UNL     1      48.382   4.565  18.623  0.00  0.00    +0.000 NA
ATOM     13  C   UNL     1      48.466   3.231  18.535  0.00  0.00    +0.000 A 
ATOM     14  N   UNL     1      48.274   2.509  17.425  0.00  0.00    +0.000 NA
ATOM     15  C   UNL     1      47.975   3.215  16.312  0.00  0.00    +0.000 A 
ENDBRANCH   6  10
ENDBRANCH   1   4
BRANCH   1  16
ATOM     16  C   UNL     1      44.885   5.881  10.870  0.00  0.00    +0.000 C 
BRANCH  16  17
ATOM     17  N   UNL     1      44.113   5.049   9.926  0.00  0.00    +0.000 N 
ATOM     18  H   UNL     1      43.169   4.825  10.236  0.00  0.00    +0.000 HD
BRANCH  17  22
ATOM     19  C   UNL     1      46.220   1.975   7.943  0.00  0.00    +0.000 A 
ATOM     20  C   UNL     1      45.249   1.641   8.890  0.00  0.00    +0.000 A 
ATOM     21  C   UNL     1      44.531   2.649   9.542  0.00  0.00    +0.000 A 
ATOM     22  C   UNL     1      44.738   4.004   9.246  0.00  0.00    +0.000 A 
ATOM     23  C   UNL     1      45.733   4.320   8.312  0.00  0.00    +0.000 A 
ATOM     24  C   UNL     1      46.472   3.321   7.668  0.00  0.00    +0.000 A 
BRANCH  19  26
ATOM     25  N   UNL     1      46.779  -0.363   7.580  0.00  0.00    +0.000 N 
ATOM     26  C   UNL     1      47.024   0.940   7.248  0.00  0.00    +0.000 C 
ATOM     27  O   UNL     1      47.843   1.228   6.387  0.00  0.00    +0.000 OA
ATOM     28  H   UNL     1      47.249  -1.062   7.018  0.00  0.00    +0.000 HD
ATOM     29  H   UNL     1      45.950  -0.646   8.083  0.00  0.00    +0.000 HD
ENDBRANCH  19  26
ENDBRANCH  17  22
ENDBRANCH  16  17
ENDBRANCH   1  16
TORSDOF 6
ENDMDL
MODEL 5
REMARK VINA RESULT:    -7.876      1.616      2.561
REMARK INTER + INTRA:         -11.505
REMARK INTER:                 -10.674
REMARK INTRA:                  -0.832
REMARK UNBOUND:                -0.867
REMARK  Name = 
REMARK  6 active torsions:
REMARK  status: ('A' for Active; 'I' for Inactive)
REMARK    1  A    between atoms: C_2  and  C_4
REMARK    2  A    between atoms: C_7  and  N_8
REMARK    3  A    between atoms: N_8  and  C_9
REMARK    4  A    between atoms: C_9  and  C_10
REMARK    5  A    between atoms: C_10  and  C_13
REMARK    6  A    between atoms: C_15  and  C_16
REMARK                            x       y       z     vdW  Elec       q    Type
REMARK                         _______ _______ _______ _____ _____    ______ ____
ROOT
ATOM      1  C   UNL     1      45.048   5.592  12.225  0.00  0.00    +0.000 C 
ATOM      2  F   UNL     1      44.396   5.328  13.398  0.00  0.00    +0.000 F 
ATOM      3  F   UNL     1      46.014   4.623  12.131  0.00  0.00    +0.000 F 
ENDROOT
BRANCH   1   4
ATOM      4  C   UNL     1      45.658   6.993  12.229  0.00  0.00    +0.000 A 
ATOM      5  C   UNL     1      47.020   7.141  11.955  0.00  0.00    +0.000 A 
ATOM      6  C   UNL     1      47.607   8.417  11.949  0.00  0.00    +0.000 A 
ATOM      7  C   UNL     1      46.766   9.504  12.230  0.00  0.00    +0.000 A 
ATOM      8  C   UNL     1      45.428   9.281  12.500  0.00  0.00    +0.000 A 
ATOM      9  N   UNL     1      44.861   8.060  12.502  0.00  0.00    +0.000 NA
BRANCH   6  10
ATOM     10  C   UNL     1      49.039   8.614  11.660  0.00  0.00    +0.000 A 
ATOM     11  C   UNL     1      49.659   9.856  11.652  0.00  0.00    +0.000 A 
ATOM     12  N   UNL     1      50.970  10.066  11.396  0.00  0.00    +0.000 NA
ATOM     13  C   UNL     1      51.696   8.969  11.139  0.00  0.00    +0.000 A 
ATOM     14  N   UNL     1      51.231   7.714  11.115  0.00  0.00    +0.000 NA
ATOM     15  C   UNL     1      49.911   7.574  11.372  0.00  0.00    +0.000 A 
ENDBRANCH   6  10
ENDBRANCH   1   4
BRANCH   1  16
ATOM     16  C   UNL     1      44.066   5.411  11.044  0.00  0.00    +0.000 C 
BRANCH  16  17
ATOM     17  N   UNL     1      43.938   4.016  10.579  0.00  0.00    +0.000 N 
ATOM     18  H   UNL     1      43.803   3.334  11.324  0.00  0.00    +0.000 HD
BRANCH  17  22
ATOM     19  C   UNL     1      46.553   2.746   7.519  0.00  0.00    +0.000 A 
ATOM     20  C   UNL     1      45.929   1.793   8.327  0.00  0.00    +0.000 A 
ATOM     21  C   UNL     1      45.046   2.199   9.334  0.00  0.00    +0.000 A 
ATOM     22  C   UNL     1      44.741   3.552   9.537  0.00  0.00    +0.000 A 
ATOM     23  C   UNL     1      45.395   4.494   8.733  0.00  0.00    +0.000 A 
ATOM     24  C   UNL     1      46.296   4.101   7.736  0.00  0.00    +0.000 A 
BRANCH  19  26
ATOM     25  N   UNL     1      47.412   3.010   5.259  0.00  0.00    +0.000 N 
ATOM     26  C   UNL     1      47.516   2.361   6.458  0.00  0.00    +0.000 C 
ATOM     27  O   UNL     1      48.393   1.531   6.651  0.00  0.00    +0.000 OA
ATOM     28  H   UNL     1      48.144   2.823   4.586  0.00  0.00    +0.000 HD
ATOM     29  H   UNL     1      46.883   3.864   5.151  0.00  0.00    +0.000 HD
ENDBRANCH  19  26
ENDBRANCH  17  22
ENDBRANCH  16  17
ENDBRANCH   1  16
TORSDOF 6
ENDMDL
MODEL 6
REMARK VINA RESULT:    -7.754      1.350      2.036
REMARK INTER + INTRA:         -11.341
REMARK INTER:                 -10.669
REMARK INTRA:                  -0.672
REMARK UNBOUND:                -0.867
REMARK  Name = 
REMARK  6 active torsions:
REMARK  status: ('A' for Active; 'I' for Inactive)
REMARK    1  A    between atoms: C_2  and  C_4
REMARK    2  A    between atoms: C_7  and  N_8
REMARK    3  A    between atoms: N_8  and  C_9
REMARK    4  A    between atoms: C_9  and  C_10
REMARK    5  A    between atoms: C_10  and  C_13
REMARK    6  A    between atoms: C_15  and  C_16
REMARK                            x       y       z     vdW  Elec       q    Type
REMARK                         _______ _______ _______ _____ _____    ______ ____
ROOT
ATOM      1  C   UNL     1      44.891   5.418  12.282  0.00  0.00    +0.000 C 
ATOM      2  F   UNL     1      43.821   5.804  13.042  0.00  0.00    +0.000 F 
ATOM      3  F   UNL     1      44.854   4.048  12.287  0.00  0.00    +0.000 F 
ENDROOT
BRANCH   1   4
ATOM      4  C   UNL     1      46.204   5.944  12.860  0.00  0.00    +0.000 A 
ATOM      5  C   UNL     1      46.836   7.023  12.237  0.00  0.00    +0.000 A 
ATOM      6  C   UNL     1      48.043   7.529  12.749  0.00  0.00    +0.000 A 
ATOM      7  C   UNL     1      48.561   6.901  13.891  0.00  0.00    +0.000 A 
ATOM      8  C   UNL     1      47.885   5.832  14.450  0.00  0.00    +0.000 A 
ATOM      9  N   UNL     1      46.726   5.348  13.966  0.00  0.00    +0.000 NA
BRANCH   6  10
ATOM     10  C   UNL     1      48.737   8.668  12.123  0.00  0.00    +0.000 A 
ATOM     11  C   UNL     1      50.018   8.593  11.592  0.00  0.00    +0.000 A 
ATOM     12  N   UNL     1      50.676   9.619  11.008  0.00  0.00    +0.000 NA
ATOM     13  C   UNL     1      50.010  10.780  10.949  0.00  0.00    +0.000 A 
ATOM     14  N   UNL     1      48.775  10.995  11.416  0.00  0.00    +0.000 NA
ATOM     15  C   UNL     1      48.175   9.931  11.996  0.00  0.00    +0.000 A 
ENDBRANCH   6  10
ENDBRANCH   1   4
BRANCH   1  16
ATOM     16  C   UNL     1      44.685   5.901  10.827  0.00  0.00    +0.000 C 
BRANCH  16  17
ATOM     17  N   UNL     1      43.930   4.956   9.982  0.00  0.00    +0.000 N 
ATOM     18  H   UNL     1      43.039   4.659  10.376  0.00  0.00    +0.000 HD
BRANCH  17  22
ATOM     19  C   UNL     1      46.174   1.986   7.991  0.00  0.00    +0.000 A 
ATOM     20  C   UNL     1      45.188   1.604   8.904  0.00  0.00    +0.000 A 
ATOM     21  C   UNL     1      44.425   2.578   9.558  0.00  0.00    +0.000 A 
ATOM     22  C   UNL     1      44.602   3.944   9.297  0.00  0.00    +0.000 A 
ATOM     23  C   UNL     1      45.612   4.308   8.397  0.00  0.00    +0.000 A 
ATOM     24  C   UNL     1      46.395   3.344   7.752  0.00  0.00    +0.000 A 
BRANCH  19  26
ATOM     25  N   UNL     1      46.776  -0.329   7.558  0.00  0.00    +0.000 N 
ATOM     26  C   UNL     1      47.024   0.989   7.296  0.00  0.00    +0.000 C 
ATOM     27  O   UNL     1      47.884   1.321   6.492  0.00  0.00    +0.000 OA
ATOM     28  H   UNL     1      47.283  -0.999   6.993  0.00  0.00    +0.000 HD
ATOM     29  H   UNL     1      45.925  -0.640   8.004  0.00  0.00    +0.000 HD
ENDBRANCH  19  26
ENDBRANCH  17  22
ENDBRANCH  16  17
ENDBRANCH   1  16
TORSDOF 6
ENDMDL
MODEL 7
REMARK VINA RESULT:    -7.545      1.506      2.063
REMARK INTER + INTRA:         -11.059
REMARK INTER:                 -10.212
REMARK INTRA:                  -0.847
REMARK UNBOUND:                -0.867
REMARK  Name = 
REMARK  6 active torsions:
REMARK  status: ('A' for Active; 'I' for Inactive)
REMARK    1  A    between atoms: C_2  and  C_4
REMARK    2  A    between atoms: C_7  and  N_8
REMARK    3  A    between atoms: N_8  and  C_9
REMARK    4  A    between atoms: C_9  and  C_10
REMARK    5  A    between atoms: C_10  and  C_13
REMARK    6  A    between atoms: C_15  and  C_16
REMARK                            x       y       z     vdW  Elec       q    Type
REMARK                         _______ _______ _______ _____ _____    ______ ____
ROOT
ATOM      1  C   UNL     1      44.942   6.611  11.547  0.00  0.00    +0.000 C 
ATOM      2  F   UNL     1      45.010   7.125  10.281  0.00  0.00    +0.000 F 
ATOM      3  F   UNL     1      44.034   7.402  12.202  0.00  0.00    +0.000 F 
ENDROOT
BRANCH   1   4
ATOM      4  C   UNL     1      46.306   6.639  12.234  0.00  0.00    +0.000 A 
ATOM      5  C   UNL     1      47.343   7.378  11.658  0.00  0.00    +0.000 A 
ATOM      6  C   UNL     1      48.606   7.423  12.269  0.00  0.00    +0.000 A 
ATOM      7  C   UNL     1      48.761   6.699  13.460  0.00  0.00    +0.000 A 
ATOM      8  C   UNL     1      47.694   5.983  13.970  0.00  0.00    +0.000 A 
ATOM      9  N   UNL     1      46.480   5.941  13.389  0.00  0.00    +0.000 NA
BRANCH   6  10
ATOM     10  C   UNL     1      49.722   8.195  11.694  0.00  0.00    +0.000 A 
ATOM     11  C   UNL     1      49.787   9.582  11.707  0.00  0.00    +0.000 A 
ATOM     12  N   UNL     1      50.800  10.315  11.193  0.00  0.00    +0.000 NA
ATOM     13  C   UNL     1      51.802   9.617  10.641  0.00  0.00    +0.000 A 
ATOM     14  N   UNL     1      51.872   8.284  10.560  0.00  0.00    +0.000 NA
ATOM     15  C   UNL     1      50.824   7.610  11.086  0.00  0.00    +0.000 A 
ENDBRANCH   6  10
ENDBRANCH   1   4
BRANCH   1  16
ATOM     16  C   UNL     1      44.374   5.174  11.485  0.00  0.00    +0.000 C 
BRANCH  16  17
ATOM     17  N   UNL     1      43.982   4.742  10.129  0.00  0.00    +0.000 N 
ATOM     18  H   UNL     1      43.013   4.438  10.048  0.00  0.00    +0.000 HD
BRANCH  17  22
ATOM     19  C   UNL     1      46.471   2.356   7.694  0.00  0.00    +0.000 A 
ATOM     20  C   UNL     1      46.497   3.745   7.550  0.00  0.00    +0.000 A 
ATOM     21  C   UNL     1      45.691   4.549   8.362  0.00  0.00    +0.000 A 
ATOM     22  C   UNL     1      44.868   3.995   9.353  0.00  0.00    +0.000 A 
ATOM     23  C   UNL     1      44.836   2.599   9.467  0.00  0.00    +0.000 A 
ATOM     24  C   UNL     1      45.623   1.783   8.645  0.00  0.00    +0.000 A 
BRANCH  19  26
ATOM     25  N   UNL     1      48.378   2.019   6.224  0.00  0.00    +0.000 N 
ATOM     26  C   UNL     1      47.289   1.464   6.836  0.00  0.00    +0.000 C 
ATOM     27  O   UNL     1      47.031   0.275   6.708  0.00  0.00    +0.000 OA
ATOM     28  H   UNL     1      48.990   1.377   5.737  0.00  0.00    +0.000 HD
ATOM     29  H   UNL     1      48.761   2.910   6.507  0.00  0.00    +0.000 HD
ENDBRANCH  19  26
ENDBRANCH  17  22
ENDBRANCH  16  17
ENDBRANCH   1  16
TORSDOF 6
ENDMDL
MODEL 8
REMARK VINA RESULT:    -7.475      3.100      6.959
REMARK INTER + INTRA:         -10.964
REMARK INTER:                 -10.146
REMARK INTRA:                  -0.818
REMARK UNBOUND:                -0.867
REMARK  Name = 
REMARK  6 active torsions:
REMARK  status: ('A' for Active; 'I' for Inactive)
REMARK    1  A    between atoms: C_2  and  C_4
REMARK    2  A    between atoms: C_7  and  N_8
REMARK    3  A    between atoms: N_8  and  C_9
REMARK    4  A    between atoms: C_9  and  C_10
REMARK    5  A    between atoms: C_10  and  C_13
REMARK    6  A    between atoms: C_15  and  C_16
REMARK                            x       y       z     vdW  Elec       q    Type
REMARK                         _______ _______ _______ _____ _____    ______ ____
ROOT
ATOM      1  C   UNL     1      45.564   7.670  11.907  0.00  0.00    +0.000 C 
ATOM      2  F   UNL     1      45.186   8.006  13.179  0.00  0.00    +0.000 F 
ATOM      3  F   UNL     1      45.264   8.771  11.147  0.00  0.00    +0.000 F 
ENDROOT
BRANCH   1   4
ATOM      4  C   UNL     1      44.822   6.429  11.415  0.00  0.00    +0.000 A 
ATOM      5  C   UNL     1      45.454   5.576  10.506  0.00  0.00    +0.000 A 
ATOM      6  C   UNL     1      44.796   4.427  10.038  0.00  0.00    +0.000 A 
ATOM      7  C   UNL     1      43.502   4.194  10.524  0.00  0.00    +0.000 A 
ATOM      8  C   UNL     1      42.935   5.086  11.416  0.00  0.00    +0.000 A 
ATOM      9  N   UNL     1      43.564   6.186  11.871  0.00  0.00    +0.000 NA
BRANCH   6  10
ATOM     10  C   UNL     1      45.432   3.501   9.083  0.00  0.00    +0.000 A 
ATOM     11  C   UNL     1      46.170   3.916   7.983  0.00  0.00    +0.000 A 
ATOM     12  N   UNL     1      46.768   3.090   7.095  0.00  0.00    +0.000 NA
ATOM     13  C   UNL     1      46.619   1.779   7.328  0.00  0.00    +0.000 A 
ATOM     14  N   UNL     1      45.939   1.240   8.346  0.00  0.00    +0.000 NA
ATOM     15  C   UNL     1      45.359   2.119   9.193  0.00  0.00    +0.000 A 
ENDBRANCH   6  10
ENDBRANCH   1   4
BRANCH   1  16
ATOM     16  C   UNL     1      47.096   7.461  11.869  0.00  0.00    +0.000 C 
BRANCH  16  17
ATOM     17  N   UNL     1      47.743   7.521  13.194  0.00  0.00    +0.000 N 
ATOM     18  H   UNL     1      48.613   8.051  13.214  0.00  0.00    +0.000 HD
BRANCH  17  22
ATOM     19  C   UNL     1      47.687   4.240  15.849  0.00  0.00    +0.000 A 
ATOM     20  C   UNL     1      47.064   4.126  14.604  0.00  0.00    +0.000 A 
ATOM     21  C   UNL     1      47.090   5.199  13.707  0.00  0.00    +0.000 A 
ATOM     22  C   UNL     1      47.759   6.392  14.013  0.00  0.00    +0.000 A 
ATOM     23  C   UNL     1      48.357   6.497  15.276  0.00  0.00    +0.000 A 
ATOM     24  C   UNL     1      48.320   5.437  16.190  0.00  0.00    +0.000 A 
BRANCH  19  26
ATOM     25  N   UNL     1      48.815   2.424  17.008  0.00  0.00    +0.000 N 
ATOM     26  C   UNL     1      47.660   3.137  16.841  0.00  0.00    +0.000 C 
ATOM     27  O   UNL     1      46.667   2.895  17.512  0.00  0.00    +0.000 OA
ATOM     28  H   UNL     1      48.818   1.754  17.767  0.00  0.00    +0.000 HD
ATOM     29  H   UNL     1      49.707   2.754  16.670  0.00  0.00    +0.000 HD
ENDBRANCH  19  26
ENDBRANCH  17  22
ENDBRANCH  16  17
ENDBRANCH   1  16
TORSDOF 6
ENDMDL
MODEL 9
REMARK VINA RESULT:    -7.334      2.918      6.691
REMARK INTER + INTRA:         -10.774
REMARK INTER:                  -9.702
REMARK INTRA:                  -1.072
REMARK UNBOUND:                -0.867
REMARK  Name = 
REMARK  6 active torsions:
REMARK  status: ('A' for Active; 'I' for Inactive)
REMARK    1  A    between atoms: C_2  and  C_4
REMARK    2  A    between atoms: C_7  and  N_8
REMARK    3  A    between atoms: N_8  and  C_9
REMARK    4  A    between atoms: C_9  and  C_10
REMARK    5  A    between atoms: C_10  and  C_13
REMARK    6  A    between atoms: C_15  and  C_16
REMARK                            x       y       z     vdW  Elec       q    Type
REMARK                         _______ _______ _______ _____ _____    ______ ____
ROOT
ATOM      1  C   UNL     1      43.882   6.107  11.437  0.00  0.00    +0.000 C 
ATOM      2  F   UNL     1      42.577   6.515  11.472  0.00  0.00    +0.000 F 
ATOM      3  F   UNL     1      44.500   6.974  10.572  0.00  0.00    +0.000 F 
ENDROOT
BRANCH   1   4
ATOM      4  C   UNL     1      44.002   4.661  10.961  0.00  0.00    +0.000 A 
ATOM      5  C   UNL     1      44.809   4.373   9.857  0.00  0.00    +0.000 A 
ATOM      6  C   UNL     1      44.939   3.051   9.400  0.00  0.00    +0.000 A 
ATOM      7  C   UNL     1      44.228   2.065  10.099  0.00  0.00    +0.000 A 
ATOM      8  C   UNL     1      43.442   2.424  11.178  0.00  0.00    +0.000 A 
ATOM      9  N   UNL     1      43.318   3.688  11.623  0.00  0.00    +0.000 NA
BRANCH   6  10
ATOM     10  C   UNL     1      45.784   2.708   8.242  0.00  0.00    +0.000 A 
ATOM     11  C   UNL     1      46.068   3.589   7.207  0.00  0.00    +0.000 A 
ATOM     12  N   UNL     1      46.843   3.303   6.137  0.00  0.00    +0.000 NA
ATOM     13  C   UNL     1      47.364   2.069   6.109  0.00  0.00    +0.000 A 
ATOM     14  N   UNL     1      47.177   1.122   7.035  0.00  0.00    +0.000 NA
ATOM     15  C   UNL     1      46.386   1.469   8.075  0.00  0.00    +0.000 A 
ENDBRANCH   6  10
ENDBRANCH   1   4
BRANCH   1  16
ATOM     16  C   UNL     1      44.513   6.292  12.836  0.00  0.00    +0.000 C 
BRANCH  16  17
ATOM     17  N   UNL     1      45.740   5.501  13.051  0.00  0.00    +0.000 N 
ATOM     18  H   UNL     1      45.662   4.789  13.775  0.00  0.00    +0.000 HD
BRANCH  17  22
ATOM     19  C   UNL     1      49.399   7.599  12.879  0.00  0.00    +0.000 A 
ATOM     20  C   UNL     1      49.014   6.988  14.075  0.00  0.00    +0.000 A 
ATOM     21  C   UNL     1      47.813   6.275  14.141  0.00  0.00    +0.000 A 
ATOM     22  C   UNL     1      46.987   6.127  13.018  0.00  0.00    +0.000 A 
ATOM     23  C   UNL     1      47.377   6.767  11.834  0.00  0.00    +0.000 A 
ATOM     24  C   UNL     1      48.567   7.500  11.762  0.00  0.00    +0.000 A 
BRANCH  19  26
ATOM     25  N   UNL     1      51.614   7.912  11.925  0.00  0.00    +0.000 N 
ATOM     26  C   UNL     1      50.652   8.388  12.771  0.00  0.00    +0.000 C 
ATOM     27  O   UNL     1      50.808   9.438  13.378  0.00  0.00    +0.000 OA
ATOM     28  H   UNL     1      52.411   8.517  11.772  0.00  0.00    +0.000 HD
ATOM     29  H   UNL     1      51.420   7.208  11.228  0.00  0.00    +0.000 HD
ENDBRANCH  19  26
ENDBRANCH  17  22
ENDBRANCH  16  17
ENDBRANCH   1  16
TORSDOF 6
ENDMDL
