MODEL 1
REMARK VINA RESULT:    -7.810      0.000      0.000
REMARK INTER + INTRA:         -10.246
REMARK INTER:                  -9.637
REMARK INTRA:                  -0.610
REMARK UNBOUND:                -0.610
REMARK  Name = 
REMARK  4 active torsions:
REMARK  status: ('A' for Active; 'I' for Inactive)
REMARK    1  A    between atoms: C_2  and  C_4
REMARK    2  A    between atoms: C_7  and  O_8
REMARK    3  A    between atoms: O_8  and  C_9
REMARK    4  A    between atoms: C_9  and  C_10
REMARK                            x       y       z     vdW  Elec       q    Type
REMARK                         _______ _______ _______ _____ _____    ______ ____
ROOT
ATOM      1  C   UNL     1      46.323   2.287   7.813  0.00  0.00    +0.000 A 
ATOM      2  C   UNL     1      45.422   1.752   8.735  0.00  0.00    +0.000 A 
ATOM      3  C   UNL     1      44.517   2.603   9.378  0.00  0.00    +0.000 A 
ATOM      4  C   UNL     1      44.519   3.955   9.052  0.00  0.00    +0.000 A 
ATOM      5  N   UNL     1      45.388   4.495   8.165  0.00  0.00    +0.000 NA
ATOM      6  C   UNL     1      46.274   3.652   7.581  0.00  0.00    +0.000 A 
ENDROOT
BRANCH   1   8
ATOM      7  N   UNL     1      48.431   2.142   6.604  0.00  0.00    +0.000 N 
ATOM      8  C   UNL     1      47.335   1.487   7.095  0.00  0.00    +0.000 C 
ATOM      9  O   UNL     1      47.223   0.272   6.973  0.00  0.00    +0.000 OA
ATOM     10  H   UNL     1      49.161   1.559   6.212  0.00  0.00    +0.000 HD
ATOM     11  H   UNL     1      48.689   3.071   6.906  0.00  0.00    +0.000 HD
ENDBRANCH   1   8
BRANCH   4  12
ATOM     12  O   UNL     1      43.618   4.789   9.677  0.00  0.00    +0.000 OA
BRANCH  12  13
ATOM     13  C   UNL     1      43.613   4.597  11.104  0.00  0.00    +0.000 C 
BRANCH  13  14
ATOM     14  C   UNL     1      44.666   5.453  11.783  0.00  0.00    +0.000 A 
ATOM     15  N   UNL     1      44.555   6.808  11.623  0.00  0.00    +0.000 NA
ATOM     16  C   UNL     1      45.491   7.591  12.211  0.00  0.00    +0.000 A 
ATOM     17  C   UNL     1      46.548   7.099  12.956  0.00  0.00    +0.000 A 
ATOM     18  C   UNL     1      46.664   5.720  13.094  0.00  0.00    +0.000 A 
ATOM     19  C   UNL     1      45.719   4.882  12.498  0.00  0.00    +0.000 A 
ATOM     20 CL   UNL     1      45.923   3.178  12.669  0.00  0.00    +0.000 Cl
ENDBRANCH  13  14
ENDBRANCH  12  13
ENDBRANCH   4  12
TORSDOF 4
ENDMDL
MODEL 2
REMARK VINA RESULT:    -7.712      1.702      2.198
REMARK INTER + INTRA:         -10.126
REMARK INTER:                  -9.814
REMARK INTRA:                  -0.312
REMARK UNBOUND:                -0.610
REMARK  Name = 
REMARK  4 active torsions:
REMARK  status: ('A' for Active; 'I' for Inactive)
REMARK    1  A    between atoms: C_2  and  C_4
REMARK    2  A    between atoms: C_7  and  O_8
REMARK    3  A    between atoms: O_8  and  C_9
REMARK    4  A    between atoms: C_9  and  C_10
REMARK                            x       y       z     vdW  Elec       q    Type
REMARK                         _______ _______ _______ _____ _____    ______ ____
ROOT
ATOM      1  C   UNL     1      46.410   2.469   7.730  0.00  0.00    +0.000 A 
ATOM      2  C   UNL     1      46.175   3.845   7.746  0.00  0.00    +0.000 A 
ATOM      3  C   UNL     1      45.202   4.362   8.607  0.00  0.00    +0.000 A 
ATOM      4  C   UNL     1      44.521   3.490   9.450  0.00  0.00    +0.000 A 
ATOM      5  N   UNL     1      44.730   2.153   9.448  0.00  0.00    +0.000 NA
ATOM      6  C   UNL     1      45.656   1.676   8.579  0.00  0.00    +0.000 A 
ENDROOT
BRANCH   1   8
ATOM      7  N   UNL     1      48.488   2.542   6.465  0.00  0.00    +0.000 N 
ATOM      8  C   UNL     1      47.394   1.815   6.844  0.00  0.00    +0.000 C 
ATOM      9  O   UNL     1      47.261   0.649   6.487  0.00  0.00    +0.000 OA
ATOM     10  H   UNL     1      49.201   2.041   5.948  0.00  0.00    +0.000 HD
ATOM     11  H   UNL     1      48.767   3.391   6.937  0.00  0.00    +0.000 HD
ENDBRANCH   1   8
BRANCH   4  12
ATOM     12  O   UNL     1      43.573   4.003  10.308  0.00  0.00    +0.000 OA
BRANCH  12  13
ATOM     13  C   UNL     1      43.705   3.467  11.637  0.00  0.00    +0.000 C 
BRANCH  13  14
ATOM     14  C   UNL     1      44.912   4.047  12.351  0.00  0.00    +0.000 A 
ATOM     15  N   UNL     1      45.762   3.156  12.948  0.00  0.00    +0.000 NA
ATOM     16  C   UNL     1      46.839   3.653  13.602  0.00  0.00    +0.000 A 
ATOM     17  C   UNL     1      47.123   5.004  13.700  0.00  0.00    +0.000 A 
ATOM     18  C   UNL     1      46.243   5.902  13.107  0.00  0.00    +0.000 A 
ATOM     19  C   UNL     1      45.119   5.425  12.430  0.00  0.00    +0.000 A 
ATOM     20 CL   UNL     1      44.037   6.578  11.740  0.00  0.00    +0.000 Cl
ENDBRANCH  13  14
ENDBRANCH  12  13
ENDBRANCH   4  12
TORSDOF 4
ENDMDL
MODEL 3
REMARK VINA RESULT:    -6.429      2.589      5.728
REMARK INTER + INTRA:          -8.542
REMARK INTER:                  -8.195
REMARK INTRA:                  -0.347
REMARK UNBOUND:                -0.610
REMARK  Name = 
REMARK  4 active torsions:
REMARK  status: ('A' for Active; 'I' for Inactive)
REMARK    1  A    between atoms: C_2  and  C_4
REMARK    2  A    between atoms: C_7  and  O_8
REMARK    3  A    between atoms: O_8  and  C_9
REMARK    4  A    between atoms: C_9  and  C_10
REMARK                            x       y       z     vdW  Elec       q    Type
REMARK                         _______ _______ _______ _____ _____    ______ ____
ROOT
ATOM      1  C   UNL     1      46.570   4.355  13.534  0.00  0.00    +0.000 A 
ATOM      2  C   UNL     1      45.673   3.508  12.880  0.00  0.00    +0.000 A 
ATOM      3  C   UNL     1      45.111   3.915  11.666  0.00  0.00    +0.000 A 
ATOM      4  C   UNL     1      45.492   5.140  11.127  0.00  0.00    +0.000 A 
ATOM      5  N   UNL     1      46.356   5.978  11.746  0.00  0.00    +0.000 NA
ATOM      6  C   UNL     1      46.860   5.571  12.938  0.00  0.00    +0.000 A 
ENDROOT
BRANCH   1   8
ATOM      7  N   UNL     1      47.170   4.998  15.803  0.00  0.00    +0.000 N 
ATOM      8  C   UNL     1      47.202   4.037  14.830  0.00  0.00    +0.000 C 
ATOM      9  O   UNL     1      47.707   2.941  15.046  0.00  0.00    +0.000 OA
ATOM     10  H   UNL     1      47.513   4.721  16.715  0.00  0.00    +0.000 HD
ATOM     11  H   UNL     1      46.549   5.793  15.762  0.00  0.00    +0.000 HD
ENDBRANCH   1   8
BRANCH   4  12
ATOM     12  O   UNL     1      44.947   5.532   9.924  0.00  0.00    +0.000 OA
BRANCH  12  13
ATOM     13  C   UNL     1      44.419   4.415   9.185  0.00  0.00    +0.000 C 
BRANCH  13  14
ATOM     14  C   UNL     1      45.503   3.720   8.382  0.00  0.00    +0.000 A 
ATOM     15  N   UNL     1      46.355   4.523   7.672  0.00  0.00    +0.000 NA
ATOM     16  C   UNL     1      47.322   3.923   6.938  0.00  0.00    +0.000 A 
ATOM     17  C   UNL     1      47.493   2.552   6.865  0.00  0.00    +0.000 A 
ATOM     18  C   UNL     1      46.610   1.744   7.574  0.00  0.00    +0.000 A 
ATOM     19  C   UNL     1      45.597   2.328   8.337  0.00  0.00    +0.000 A 
ATOM     20 CL   UNL     1      44.505   1.286   9.170  0.00  0.00    +0.000 Cl
ENDBRANCH  13  14
ENDBRANCH  12  13
ENDBRANCH   4  12
TORSDOF 4
ENDMDL
MODEL 4
REMARK VINA RESULT:    -6.419      2.342      6.371
REMARK INTER + INTRA:          -8.529
REMARK INTER:                  -8.027
REMARK INTRA:                  -0.502
REMARK UNBOUND:                -0.610
REMARK  Name = 
REMARK  4 active torsions:
REMARK  status: ('A' for Active; 'I' for Inactive)
REMARK    1  A    between atoms: C_2  and  C_4
REMARK    2  A    between atoms: C_7  and  O_8
REMARK    3  A    between atoms: O_8  and  C_9
REMARK    4  A    between atoms: C_9  and  C_10
REMARK                            x       y       z     vdW  Elec       q    Type
REMARK                         _______ _______ _______ _____ _____    ______ ____
ROOT
ATOM      1  C   UNL     1      45.459   6.937  12.486  0.00  0.00    +0.000 A 
ATOM      2  C   UNL     1      46.217   5.896  13.023  0.00  0.00    +0.000 A 
ATOM      3  C   UNL     1      45.993   4.588  12.579  0.00  0.00    +0.000 A 
ATOM      4  C   UNL     1      45.043   4.370  11.587  0.00  0.00    +0.000 A 
ATOM      5  N   UNL     1      44.293   5.365  11.057  0.00  0.00    +0.000 NA
ATOM      6  C   UNL     1      44.510   6.617  11.529  0.00  0.00    +0.000 A 
ENDROOT
BRANCH   1   8
ATOM      7  N   UNL     1      44.608   9.218  12.521  0.00  0.00    +0.000 N 
ATOM      8  C   UNL     1      45.595   8.348  12.898  0.00  0.00    +0.000 C 
ATOM      9  O   UNL     1      46.536   8.728  13.586  0.00  0.00    +0.000 OA
ATOM     10  H   UNL     1      44.667  10.153  12.904  0.00  0.00    +0.000 HD
ATOM     11  H   UNL     1      43.706   8.905  12.192  0.00  0.00    +0.000 HD
ENDBRANCH   1   8
BRANCH   4  12
ATOM     12  O   UNL     1      44.833   3.083  11.143  0.00  0.00    +0.000 OA
BRANCH  12  13
ATOM     13  C   UNL     1      44.336   3.057   9.792  0.00  0.00    +0.000 C 
BRANCH  13  14
ATOM     14  C   UNL     1      45.387   2.545   8.824  0.00  0.00    +0.000 A 
ATOM     15  N   UNL     1      45.507   1.187   8.706  0.00  0.00    +0.000 NA
ATOM     16  C   UNL     1      46.447   0.709   7.856  0.00  0.00    +0.000 A 
ATOM     17  C   UNL     1      47.290   1.513   7.109  0.00  0.00    +0.000 A 
ATOM     18  C   UNL     1      47.174   2.891   7.252  0.00  0.00    +0.000 A 
ATOM     19  C   UNL     1      46.219   3.420   8.123  0.00  0.00    +0.000 A 
ATOM     20 CL   UNL     1      46.136   5.134   8.293  0.00  0.00    +0.000 Cl
ENDBRANCH  13  14
ENDBRANCH  12  13
ENDBRANCH   4  12
TORSDOF 4
ENDMDL
MODEL 5
REMARK VINA RESULT:    -6.327      2.639      6.055
REMARK INTER + INTRA:          -8.416
REMARK INTER:                  -7.971
REMARK INTRA:                  -0.445
REMARK UNBOUND:                -0.610
REMARK  Name = 
REMARK  4 active torsions:
REMARK  status: ('A' for Active; 'I' for Inactive)
REMARK    1  A    between atoms: C_2  and  C_4
REMARK    2  A    between atoms: C_7  and  O_8
REMARK    3  A    between atoms: O_8  and  C_9
REMARK    4  A    between atoms: C_9  and  C_10
REMARK                            x       y       z     vdW  Elec       q    Type
REMARK                         _______ _______ _______ _____ _____    ______ ____
ROOT
ATOM      1  C   UNL     1      46.828   5.112  14.178  0.00  0.00    +0.000 A 
ATOM      2  C   UNL     1      47.562   6.002  13.393  0.00  0.00    +0.000 A 
ATOM      3  C   UNL     1      47.088   6.346  12.124  0.00  0.00    +0.000 A 
ATOM      4  C   UNL     1      45.875   5.815  11.695  0.00  0.00    +0.000 A 
ATOM      5  N   UNL     1      45.150   4.946  12.437  0.00  0.00    +0.000 NA
ATOM      6  C   UNL     1      45.651   4.607  13.650  0.00  0.00    +0.000 A 
ENDROOT
BRANCH   1   8
ATOM      7  N   UNL     1      48.018   5.515  16.262  0.00  0.00    +0.000 N 
ATOM      8  C   UNL     1      47.248   4.662  15.520  0.00  0.00    +0.000 C 
ATOM      9  O   UNL     1      46.892   3.581  15.975  0.00  0.00    +0.000 OA
ATOM     10  H   UNL     1      48.204   5.232  17.217  0.00  0.00    +0.000 HD
ATOM     11  H   UNL     1      48.110   6.496  16.042  0.00  0.00    +0.000 HD
ENDBRANCH   1   8
BRANCH   4  12
ATOM     12  O   UNL     1      45.403   6.165  10.448  0.00  0.00    +0.000 OA
BRANCH  12  13
ATOM     13  C   UNL     1      44.504   5.174   9.918  0.00  0.00    +0.000 C 
BRANCH  13  14
ATOM     14  C   UNL     1      45.242   4.152   9.072  0.00  0.00    +0.000 A 
ATOM     15  N   UNL     1      46.045   4.640   8.077  0.00  0.00    +0.000 NA
ATOM     16  C   UNL     1      46.703   3.746   7.302  0.00  0.00    +0.000 A 
ATOM     17  C   UNL     1      46.607   2.375   7.459  0.00  0.00    +0.000 A 
ATOM     18  C   UNL     1      45.773   1.888   8.460  0.00  0.00    +0.000 A 
ATOM     19  C   UNL     1      45.074   2.782   9.274  0.00  0.00    +0.000 A 
ATOM     20 CL   UNL     1      44.025   2.131  10.479  0.00  0.00    +0.000 Cl
ENDBRANCH  13  14
ENDBRANCH  12  13
ENDBRANCH   4  12
TORSDOF 4
ENDMDL
MODEL 6
REMARK VINA RESULT:    -6.239      4.585      6.609
REMARK INTER + INTRA:          -8.307
REMARK INTER:                  -7.980
REMARK INTRA:                  -0.327
REMARK UNBOUND:                -0.610
REMARK  Name = 
REMARK  4 active torsions:
REMARK  status: ('A' for Active; 'I' for Inactive)
REMARK    1  A    between atoms: C_2  and  C_4
REMARK    2  A    between atoms: C_7  and  O_8
REMARK    3  A    between atoms: O_8  and  C_9
REMARK    4  A    between atoms: C_9  and  C_10
REMARK                            x       y       z     vdW  Elec       q    Type
REMARK                         _______ _______ _______ _____ _____    ______ ____
ROOT
ATOM      1  C   UNL     1      44.805   5.061  12.083  0.00  0.00    +0.000 A 
ATOM      2  C   UNL     1      45.631   5.785  12.945  0.00  0.00    +0.000 A 
ATOM      3  C   UNL     1      46.528   5.098  13.768  0.00  0.00    +0.000 A 
ATOM      4  C   UNL     1      46.595   3.711  13.677  0.00  0.00    +0.000 A 
ATOM      5  N   UNL     1      45.800   2.990  12.852  0.00  0.00    +0.000 NA
ATOM      6  C   UNL     1      44.918   3.681  12.089  0.00  0.00    +0.000 A 
ENDROOT
BRANCH   1   8
ATOM      7  N   UNL     1      43.553   7.017  11.352  0.00  0.00    +0.000 N 
ATOM      8  C   UNL     1      43.806   5.682  11.190  0.00  0.00    +0.000 C 
ATOM      9  O   UNL     1      43.246   5.040  10.309  0.00  0.00    +0.000 OA
ATOM     10  H   UNL     1      42.947   7.443  10.661  0.00  0.00    +0.000 HD
ATOM     11  H   UNL     1      44.168   7.627  11.872  0.00  0.00    +0.000 HD
ENDBRANCH   1   8
BRANCH   4  12
ATOM     12  O   UNL     1      47.490   3.037  14.480  0.00  0.00    +0.000 OA
BRANCH  12  13
ATOM     13  C   UNL     1      47.459   3.518  15.836  0.00  0.00    +0.000 C 
BRANCH  13  14
ATOM     14  C   UNL     1      48.786   3.288  16.536  0.00  0.00    +0.000 A 
ATOM     15  N   UNL     1      49.406   2.090  16.304  0.00  0.00    +0.000 NA
ATOM     16  C   UNL     1      50.586   1.860  16.928  0.00  0.00    +0.000 A 
ATOM     17  C   UNL     1      51.193   2.762  17.783  0.00  0.00    +0.000 A 
ATOM     18  C   UNL     1      50.545   3.968  18.028  0.00  0.00    +0.000 A 
ATOM     19  C   UNL     1      49.325   4.237  17.407  0.00  0.00    +0.000 A 
ATOM     20 CL   UNL     1      48.542   5.731  17.768  0.00  0.00    +0.000 Cl
ENDBRANCH  13  14
ENDBRANCH  12  13
ENDBRANCH   4  12
TORSDOF 4
ENDMDL
MODEL 7
REMARK VINA RESULT:    -5.745      4.103      5.979
REMARK INTER + INTRA:          -7.698
REMARK INTER:                  -7.348
REMARK INTRA:                  -0.349
REMARK UNBOUND:                -0.610
REMARK  Name = 
REMARK  4 active torsions:
REMARK  status: ('A' for Active; 'I' for Inactive)
REMARK    1  A    between atoms: C_2  and  C_4
REMARK    2  A    between atoms: C_7  and  O_8
REMARK    3  A    between atoms: O_8  and  C_9
REMARK    4  A    between atoms: C_9  and  C_10
REMARK                            x       y       z     vdW  Elec       q    Type
REMARK                         _______ _______ _______ _____ _____    ______ ____
ROOT
ATOM      1  C   UNL     1      44.792   4.848  11.730  0.00  0.00    +0.000 A 
ATOM      2  C   UNL     1      45.658   5.814  12.246  0.00  0.00    +0.000 A 
ATOM      3  C   UNL     1      46.594   5.443  13.217  0.00  0.00    +0.000 A 
ATOM      4  C   UNL     1      46.656   4.112  13.615  0.00  0.00    +0.000 A 
ATOM      5  N   UNL     1      45.823   3.161  13.132  0.00  0.00    +0.000 NA
ATOM      6  C   UNL     1      44.905   3.556  12.215  0.00  0.00    +0.000 A 
ENDROOT
BRANCH   1   8
ATOM      7  N   UNL     1      43.990   4.736   9.435  0.00  0.00    +0.000 N 
ATOM      8  C   UNL     1      43.752   5.134  10.722  0.00  0.00    +0.000 C 
ATOM      9  O   UNL     1      42.694   5.674  11.026  0.00  0.00    +0.000 OA
ATOM     10  H   UNL     1      43.222   4.845   8.784  0.00  0.00    +0.000 HD
ATOM     11  H   UNL     1      44.710   4.068   9.197  0.00  0.00    +0.000 HD
ENDBRANCH   1   8
BRANCH   4  12
ATOM     12  O   UNL     1      47.588   3.747  14.562  0.00  0.00    +0.000 OA
BRANCH  12  13
ATOM     13  C   UNL     1      47.268   4.280  15.861  0.00  0.00    +0.000 C 
BRANCH  13  14
ATOM     14  C   UNL     1      48.473   4.950  16.497  0.00  0.00    +0.000 A 
ATOM     15  N   UNL     1      49.020   6.006  15.820  0.00  0.00    +0.000 NA
ATOM     16  C   UNL     1      50.103   6.611  16.363  0.00  0.00    +0.000 A 
ATOM     17  C   UNL     1      50.685   6.219  17.556  0.00  0.00    +0.000 A 
ATOM     18  C   UNL     1      50.134   5.132  18.226  0.00  0.00    +0.000 A 
ATOM     19  C   UNL     1      49.020   4.481  17.692  0.00  0.00    +0.000 A 
ATOM     20 CL   UNL     1      48.393   3.116  18.540  0.00  0.00    +0.000 Cl
ENDBRANCH  13  14
ENDBRANCH  12  13
ENDBRANCH   4  12
TORSDOF 4
ENDMDL
MODEL 8
REMARK VINA RESULT:    -5.699      3.681      4.914
REMARK INTER + INTRA:          -7.642
REMARK INTER:                  -7.283
REMARK INTRA:                  -0.359
REMARK UNBOUND:                -0.610
REMARK  Name = 
REMARK  4 active torsions:
REMARK  status: ('A' for Active; 'I' for Inactive)
REMARK    1  A    between atoms: C_2  and  C_4
REMARK    2  A    between atoms: C_7  and  O_8
REMARK    3  A    between atoms: O_8  and  C_9
REMARK    4  A    between atoms: C_9  and  C_10
REMARK                            x       y       z     vdW  Elec       q    Type
REMARK                         _______ _______ _______ _____ _____    ______ ____
ROOT
ATOM      1  C   UNL     1      44.907   3.681  10.361  0.00  0.00    +0.000 A 
ATOM      2  C   UNL     1      45.164   5.049  10.459  0.00  0.00    +0.000 A 
ATOM      3  C   UNL     1      45.496   5.595  11.704  0.00  0.00    +0.000 A 
ATOM      4  C   UNL     1      45.595   4.747  12.802  0.00  0.00    +0.000 A 
ATOM      5  N   UNL     1      45.346   3.419  12.730  0.00  0.00    +0.000 NA
ATOM      6  C   UNL     1      44.995   2.924  11.518  0.00  0.00    +0.000 A 
ENDROOT
BRANCH   1   8
ATOM      7  N   UNL     1      44.269   3.792   8.015  0.00  0.00    +0.000 N 
ATOM      8  C   UNL     1      44.525   3.006   9.105  0.00  0.00    +0.000 C 
ATOM      9  O   UNL     1      44.474   1.783   9.023  0.00  0.00    +0.000 OA
ATOM     10  H   UNL     1      44.114   3.305   7.140  0.00  0.00    +0.000 HD
ATOM     11  H   UNL     1      44.551   4.761   7.965  0.00  0.00    +0.000 HD
ENDBRANCH   1   8
BRANCH   4  12
ATOM     12  O   UNL     1      45.935   5.285  14.025  0.00  0.00    +0.000 OA
BRANCH  12  13
ATOM     13  C   UNL     1      47.349   5.192  14.276  0.00  0.00    +0.000 C 
BRANCH  13  14
ATOM     14  C   UNL     1      47.631   4.704  15.685  0.00  0.00    +0.000 A 
ATOM     15  N   UNL     1      47.043   3.526  16.059  0.00  0.00    +0.000 NA
ATOM     16  C   UNL     1      47.271   3.078  17.316  0.00  0.00    +0.000 A 
ATOM     17  C   UNL     1      48.059   3.744  18.239  0.00  0.00    +0.000 A 
ATOM     18  C   UNL     1      48.635   4.950  17.857  0.00  0.00    +0.000 A 
ATOM     19  C   UNL     1      48.417   5.445  16.569  0.00  0.00    +0.000 A 
ATOM     20 CL   UNL     1      49.125   6.962  16.152  0.00  0.00    +0.000 Cl
ENDBRANCH  13  14
ENDBRANCH  12  13
ENDBRANCH   4  12
TORSDOF 4
ENDMDL
MODEL 9
REMARK VINA RESULT:    -5.631      5.449      8.237
REMARK INTER + INTRA:          -7.558
REMARK INTER:                  -7.256
REMARK INTRA:                  -0.302
REMARK UNBOUND:                -0.610
REMARK  Name = 
REMARK  4 active torsions:
REMARK  status: ('A' for Active; 'I' for Inactive)
REMARK    1  A    between atoms: C_2  and  C_4
REMARK    2  A    between atoms: C_7  and  O_8
REMARK    3  A    between atoms: O_8  and  C_9
REMARK    4  A    between atoms: C_9  and  C_10
REMARK                            x       y       z     vdW  Elec       q    Type
REMARK                         _______ _______ _______ _____ _____    ______ ____
ROOT
ATOM      1  C   UNL     1      49.053   4.724  18.142  0.00  0.00    +0.000 A 
ATOM      2  C   UNL     1      48.282   3.562  18.206  0.00  0.00    +0.000 A 
ATOM      3  C   UNL     1      47.487   3.208  17.112  0.00  0.00    +0.000 A 
ATOM      4  C   UNL     1      47.517   4.010  15.975  0.00  0.00    +0.000 A 
ATOM      5  N   UNL     1      48.253   5.142  15.894  0.00  0.00    +0.000 NA
ATOM      6  C   UNL     1      48.989   5.477  16.982  0.00  0.00    +0.000 A 
ENDROOT
BRANCH   1   8
ATOM      7  N   UNL     1      50.043   4.394  20.341  0.00  0.00    +0.000 N 
ATOM      8  C   UNL     1      49.908   5.203  19.247  0.00  0.00    +0.000 C 
ATOM      9  O   UNL     1      50.508   6.270  19.177  0.00  0.00    +0.000 OA
ATOM     10  H   UNL     1      50.716   4.692  21.037  0.00  0.00    +0.000 HD
ATOM     11  H   UNL     1      49.790   3.416  20.329  0.00  0.00    +0.000 HD
ENDBRANCH   1   8
BRANCH   4  12
ATOM     12  O   UNL     1      46.742   3.652  14.893  0.00  0.00    +0.000 OA
BRANCH  12  13
ATOM     13  C   UNL     1      46.633   4.722  13.935  0.00  0.00    +0.000 C 
BRANCH  13  14
ATOM     14  C   UNL     1      45.342   4.627  13.144  0.00  0.00    +0.000 A 
ATOM     15  N   UNL     1      44.849   3.371  12.915  0.00  0.00    +0.000 NA
ATOM     16  C   UNL     1      43.704   3.262  12.201  0.00  0.00    +0.000 A 
ATOM     17  C   UNL     1      43.011   4.346  11.690  0.00  0.00    +0.000 A 
ATOM     18  C   UNL     1      43.530   5.617  11.910  0.00  0.00    +0.000 A 
ATOM     19  C   UNL     1      44.712   5.766  12.638  0.00  0.00    +0.000 A 
ATOM     20 CL   UNL     1      45.336   7.359  12.856  0.00  0.00    +0.000 Cl
ENDBRANCH  13  14
ENDBRANCH  12  13
ENDBRANCH   4  12
TORSDOF 4
ENDMDL
