MODEL 1
REMARK VINA RESULT:    -7.538      0.000      0.000
REMARK INTER + INTRA:          -9.797
REMARK INTER:                  -9.521
REMARK INTRA:                  -0.275
REMARK UNBOUND:                -0.275
REMARK  Name = 
REMARK  5 active torsions:
REMARK  status: ('A' for Active; 'I' for Inactive)
REMARK    1  A    between atoms: N_1  and  C_2
REMARK    2  A    between atoms: C_2  and  C_3
REMARK    3  A    between atoms: C_6  and  C_7
REMARK    4  A    between atoms: C_7  and  N_8
REMARK    5  A    between atoms: C_13  and  C_14
REMARK                            x       y       z     vdW  Elec       q    Type
REMARK                         _______ _______ _______ _____ _____    ______ ____
ROOT
ATOM      1  N   UNL     1      44.301   4.368  10.290  0.00  0.00    +0.000 N 
ATOM      2  C   UNL     1      43.772   3.237  10.864  0.00  0.00    +0.000 A 
ATOM      3  C   UNL     1      44.247   2.148  10.170  0.00  0.00    +0.000 A 
ATOM      4  C   UNL     1      45.130   2.631   9.168  0.00  0.00    +0.000 A 
ATOM      5  C   UNL     1      45.892   2.037   8.145  0.00  0.00    +0.000 A 
ATOM      6  C   UNL     1      46.660   2.877   7.336  0.00  0.00    +0.000 A 
ATOM      7  C   UNL     1      46.657   4.246   7.608  0.00  0.00    +0.000 A 
ATOM      8  N   UNL     1      45.931   4.870   8.572  0.00  0.00    +0.000 NA
ATOM      9  C   UNL     1      45.183   4.017   9.301  0.00  0.00    +0.000 A 
ENDROOT
BRANCH   6  10
ATOM     10  C   UNL     1      47.456   2.398   6.178  0.00  0.00    +0.000 C 
ATOM     11  N   UNL     1      47.376   3.080   4.997  0.00  0.00    +0.000 N 
ATOM     12  O   UNL     1      48.191   1.421   6.271  0.00  0.00    +0.000 OA
ATOM     13  H   UNL     1      46.824   3.907   4.834  0.00  0.00    +0.000 HD
ATOM     14  H   UNL     1      47.965   2.753   4.241  0.00  0.00    +0.000 HD
ENDBRANCH   6  10
BRANCH   1  15
ATOM     15  C   UNL     1      43.948   5.728  10.662  0.00  0.00    +0.000 C 
BRANCH  15  19
ATOM     16  C   UNL     1      47.118   7.268  13.246  0.00  0.00    +0.000 C 
ATOM     17  C   UNL     1      45.915   8.180  12.960  0.00  0.00    +0.000 C 
ATOM     18  C   UNL     1      45.052   7.671  11.807  0.00  0.00    +0.000 C 
ATOM     19  C   UNL     1      44.592   6.211  11.983  0.00  0.00    +0.000 C 
ATOM     20  C   UNL     1      45.739   5.285  12.434  0.00  0.00    +0.000 C 
ATOM     21  C   UNL     1      46.588   5.862  13.565  0.00  0.00    +0.000 C 
BRANCH  16  22
ATOM     22  C   UNL     1      48.157   7.217  12.106  0.00  0.00    +0.000 C 
BRANCH  22  23
ATOM     23  N   UNL     1      49.446   6.697  12.546  0.00  0.00    +0.000 NA
ATOM     24  H   UNL     1      50.193   7.271  12.156  0.00  0.00    +0.000 HD
ATOM     25  H   UNL     1      49.585   5.759  12.169  0.00  0.00    +0.000 HD
ENDBRANCH  22  23
ENDBRANCH  16  22
ENDBRANCH  15  19
ENDBRANCH   1  15
TORSDOF 5
ENDMDL
MODEL 2
REMARK VINA RESULT:    -6.204      4.554      8.251
REMARK INTER + INTRA:          -8.112
REMARK INTER:                  -7.568
REMARK INTRA:                  -0.543
REMARK UNBOUND:                -0.275
REMARK  Name = 
REMARK  5 active torsions:
REMARK  status: ('A' for Active; 'I' for Inactive)
REMARK    1  A    between atoms: N_1  and  C_2
REMARK    2  A    between atoms: C_2  and  C_3
REMARK    3  A    between atoms: C_6  and  C_7
REMARK    4  A    between atoms: C_7  and  N_8
REMARK    5  A    between atoms: C_13  and  C_14
REMARK                            x       y       z     vdW  Elec       q    Type
REMARK                         _______ _______ _______ _____ _____    ______ ____
ROOT
ATOM      1  N   UNL     1      47.888   6.262  14.036  0.00  0.00    +0.000 N 
ATOM      2  C   UNL     1      48.274   7.580  14.097  0.00  0.00    +0.000 A 
ATOM      3  C   UNL     1      48.684   7.843  15.383  0.00  0.00    +0.000 A 
ATOM      4  C   UNL     1      48.585   6.632  16.120  0.00  0.00    +0.000 A 
ATOM      5  C   UNL     1      48.823   6.260  17.455  0.00  0.00    +0.000 A 
ATOM      6  C   UNL     1      48.601   4.926  17.808  0.00  0.00    +0.000 A 
ATOM      7  C   UNL     1      48.192   4.036  16.813  0.00  0.00    +0.000 A 
ATOM      8  N   UNL     1      47.935   4.347  15.516  0.00  0.00    +0.000 NA
ATOM      9  C   UNL     1      48.134   5.652  15.239  0.00  0.00    +0.000 A 
ENDROOT
BRANCH   6  10
ATOM     10  C   UNL     1      48.743   4.409  19.192  0.00  0.00    +0.000 C 
ATOM     11  N   UNL     1      48.347   3.129  19.460  0.00  0.00    +0.000 N 
ATOM     12  O   UNL     1      49.224   5.100  20.083  0.00  0.00    +0.000 OA
ATOM     13  H   UNL     1      47.969   2.479  18.788  0.00  0.00    +0.000 HD
ATOM     14  H   UNL     1      48.499   2.794  20.403  0.00  0.00    +0.000 HD
ENDBRANCH   6  10
BRANCH   1  15
ATOM     15  C   UNL     1      47.282   5.629  12.877  0.00  0.00    +0.000 C 
BRANCH  15  19
ATOM     16  C   UNL     1      43.166   4.699  11.742  0.00  0.00    +0.000 C 
ATOM     17  C   UNL     1      43.512   4.723  13.239  0.00  0.00    +0.000 C 
ATOM     18  C   UNL     1      45.018   4.735  13.493  0.00  0.00    +0.000 C 
ATOM     19  C   UNL     1      45.758   5.863  12.751  0.00  0.00    +0.000 C 
ATOM     20  C   UNL     1      45.317   5.984  11.278  0.00  0.00    +0.000 C 
ATOM     21  C   UNL     1      43.803   5.931  11.083  0.00  0.00    +0.000 C 
BRANCH  16  22
ATOM     22  C   UNL     1      43.593   3.406  11.015  0.00  0.00    +0.000 C 
BRANCH  22  23
ATOM     23  N   UNL     1      43.044   2.206  11.637  0.00  0.00    +0.000 NA
ATOM     24  H   UNL     1      42.776   1.542  10.911  0.00  0.00    +0.000 HD
ATOM     25  H   UNL     1      42.187   2.440  12.138  0.00  0.00    +0.000 HD
ENDBRANCH  22  23
ENDBRANCH  16  22
ENDBRANCH  15  19
ENDBRANCH   1  15
TORSDOF 5
ENDMDL
MODEL 3
REMARK VINA RESULT:    -6.019      4.334      6.233
REMARK INTER + INTRA:          -7.878
REMARK INTER:                  -7.497
REMARK INTRA:                  -0.382
REMARK UNBOUND:                -0.275
REMARK  Name = 
REMARK  5 active torsions:
REMARK  status: ('A' for Active; 'I' for Inactive)
REMARK    1  A    between atoms: N_1  and  C_2
REMARK    2  A    between atoms: C_2  and  C_3
REMARK    3  A    between atoms: C_6  and  C_7
REMARK    4  A    between atoms: C_7  and  N_8
REMARK    5  A    between atoms: C_13  and  C_14
REMARK                            x       y       z     vdW  Elec       q    Type
REMARK                         _______ _______ _______ _____ _____    ______ ____
ROOT
ATOM      1  N   UNL     1      47.518   5.511  14.500  0.00  0.00    +0.000 N 
ATOM      2  C   UNL     1      48.072   6.683  14.043  0.00  0.00    +0.000 A 
ATOM      3  C   UNL     1      47.569   6.928  12.786  0.00  0.00    +0.000 A 
ATOM      4  C   UNL     1      46.645   5.892  12.485  0.00  0.00    +0.000 A 
ATOM      5  C   UNL     1      45.843   5.567  11.376  0.00  0.00    +0.000 A 
ATOM      6  C   UNL     1      45.041   4.427  11.465  0.00  0.00    +0.000 A 
ATOM      7  C   UNL     1      45.054   3.698  12.655  0.00  0.00    +0.000 A 
ATOM      8  N   UNL     1      45.819   3.960  13.748  0.00  0.00    +0.000 NA
ATOM      9  C   UNL     1      46.597   5.050  13.595  0.00  0.00    +0.000 A 
ENDROOT
BRANCH   6  10
ATOM     10  C   UNL     1      44.199   3.927  10.350  0.00  0.00    +0.000 C 
ATOM     11  N   UNL     1      44.164   4.635   9.182  0.00  0.00    +0.000 N 
ATOM     12  O   UNL     1      43.557   2.887  10.454  0.00  0.00    +0.000 OA
ATOM     13  H   UNL     1      44.678   5.481   8.994  0.00  0.00    +0.000 HD
ATOM     14  H   UNL     1      43.615   4.242   8.428  0.00  0.00    +0.000 HD
ENDBRANCH   6  10
BRANCH   1  15
ATOM     15  C   UNL     1      47.885   4.850  15.741  0.00  0.00    +0.000 C 
BRANCH  15  19
ATOM     16  C   UNL     1      49.189   6.021  19.743  0.00  0.00    +0.000 C 
ATOM     17  C   UNL     1      50.016   6.511  18.545  0.00  0.00    +0.000 C 
ATOM     18  C   UNL     1      49.662   5.783  17.250  0.00  0.00    +0.000 C 
ATOM     19  C   UNL     1      48.158   5.817  16.917  0.00  0.00    +0.000 C 
ATOM     20  C   UNL     1      47.280   5.491  18.142  0.00  0.00    +0.000 C 
ATOM     21  C   UNL     1      47.703   6.222  19.415  0.00  0.00    +0.000 C 
BRANCH  16  22
ATOM     22  C   UNL     1      49.469   4.559  20.148  0.00  0.00    +0.000 C 
BRANCH  22  23
ATOM     23  N   UNL     1      48.460   4.024  21.055  0.00  0.00    +0.000 NA
ATOM     24  H   UNL     1      47.532   4.204  20.672  0.00  0.00    +0.000 HD
ATOM     25  H   UNL     1      48.500   4.522  21.945  0.00  0.00    +0.000 HD
ENDBRANCH  22  23
ENDBRANCH  16  22
ENDBRANCH  15  19
ENDBRANCH   1  15
TORSDOF 5
ENDMDL
MODEL 4
REMARK VINA RESULT:    -5.754      4.044      6.274
REMARK INTER + INTRA:          -7.543
REMARK INTER:                  -7.020
REMARK INTRA:                  -0.523
REMARK UNBOUND:                -0.275
REMARK  Name = 
REMARK  5 active torsions:
REMARK  status: ('A' for Active; 'I' for Inactive)
REMARK    1  A    between atoms: N_1  and  C_2
REMARK    2  A    between atoms: C_2  and  C_3
REMARK    3  A    between atoms: C_6  and  C_7
REMARK    4  A    between atoms: C_7  and  N_8
REMARK    5  A    between atoms: C_13  and  C_14
REMARK                            x       y       z     vdW  Elec       q    Type
REMARK                         _______ _______ _______ _____ _____    ______ ____
ROOT
ATOM      1  N   UNL     1      47.642   7.186  13.621  0.00  0.00    +0.000 N 
ATOM      2  C   UNL     1      47.065   8.422  13.450  0.00  0.00    +0.000 A 
ATOM      3  C   UNL     1      45.792   8.231  12.964  0.00  0.00    +0.000 A 
ATOM      4  C   UNL     1      45.572   6.830  12.879  0.00  0.00    +0.000 A 
ATOM      5  C   UNL     1      44.510   6.016  12.443  0.00  0.00    +0.000 A 
ATOM      6  C   UNL     1      44.680   4.631  12.516  0.00  0.00    +0.000 A 
ATOM      7  C   UNL     1      45.873   4.136  13.047  0.00  0.00    +0.000 A 
ATOM      8  N   UNL     1      46.932   4.877  13.467  0.00  0.00    +0.000 NA
ATOM      9  C   UNL     1      46.726   6.204  13.343  0.00  0.00    +0.000 A 
ENDROOT
BRANCH   6  10
ATOM     10  C   UNL     1      43.675   3.654  12.028  0.00  0.00    +0.000 C 
ATOM     11  N   UNL     1      43.756   2.359  12.455  0.00  0.00    +0.000 N 
ATOM     12  O   UNL     1      42.772   3.994  11.272  0.00  0.00    +0.000 OA
ATOM     13  H   UNL     1      44.442   1.994  13.096  0.00  0.00    +0.000 HD
ATOM     14  H   UNL     1      43.029   1.729  12.138  0.00  0.00    +0.000 HD
ENDBRANCH   6  10
BRANCH   1  15
ATOM     15  C   UNL     1      49.026   6.965  14.007  0.00  0.00    +0.000 C 
BRANCH  15  19
ATOM     16  C   UNL     1      50.631   6.031  17.962  0.00  0.00    +0.000 C 
ATOM     17  C   UNL     1      51.238   7.220  17.201  0.00  0.00    +0.000 C 
ATOM     18  C   UNL     1      50.831   7.245  15.729  0.00  0.00    +0.000 C 
ATOM     19  C   UNL     1      49.308   7.187  15.512  0.00  0.00    +0.000 C 
ATOM     20  C   UNL     1      48.631   6.111  16.386  0.00  0.00    +0.000 C 
ATOM     21  C   UNL     1      49.103   6.112  17.838  0.00  0.00    +0.000 C 
BRANCH  16  22
ATOM     22  C   UNL     1      51.147   4.654  17.496  0.00  0.00    +0.000 C 
BRANCH  22  23
ATOM     23  N   UNL     1      50.574   3.552  18.260  0.00  0.00    +0.000 NA
ATOM     24  H   UNL     1      50.119   3.921  19.095  0.00  0.00    +0.000 HD
ATOM     25  H   UNL     1      51.321   2.940  18.593  0.00  0.00    +0.000 HD
ENDBRANCH  22  23
ENDBRANCH  16  22
ENDBRANCH  15  19
ENDBRANCH   1  15
TORSDOF 5
ENDMDL
MODEL 5
REMARK VINA RESULT:    -5.669      3.749      6.701
REMARK INTER + INTRA:          -7.436
REMARK INTER:                  -6.952
REMARK INTRA:                  -0.484
REMARK UNBOUND:                -0.275
REMARK  Name = 
REMARK  5 active torsions:
REMARK  status: ('A' for Active; 'I' for Inactive)
REMARK    1  A    between atoms: N_1  and  C_2
REMARK    2  A    between atoms: C_2  and  C_3
REMARK    3  A    between atoms: C_6  and  C_7
REMARK    4  A    between atoms: C_7  and  N_8
REMARK    5  A    between atoms: C_13  and  C_14
REMARK                            x       y       z     vdW  Elec       q    Type
REMARK                         _______ _______ _______ _____ _____    ______ ____
ROOT
ATOM      1  N   UNL     1      46.260   8.371  12.378  0.00  0.00    +0.000 N 
ATOM      2  C   UNL     1      45.819   9.641  12.089  0.00  0.00    +0.000 A 
ATOM      3  C   UNL     1      46.917  10.414  11.794  0.00  0.00    +0.000 A 
ATOM      4  C   UNL     1      48.062   9.577  11.862  0.00  0.00    +0.000 A 
ATOM      5  C   UNL     1      49.446   9.770  11.698  0.00  0.00    +0.000 A 
ATOM      6  C   UNL     1      50.281   8.660  11.853  0.00  0.00    +0.000 A 
ATOM      7  C   UNL     1      49.695   7.423  12.125  0.00  0.00    +0.000 A 
ATOM      8  N   UNL     1      48.369   7.186  12.307  0.00  0.00    +0.000 NA
ATOM      9  C   UNL     1      47.615   8.296  12.179  0.00  0.00    +0.000 A 
ENDROOT
BRANCH   6  10
ATOM     10  C   UNL     1      51.761   8.730  11.777  0.00  0.00    +0.000 C 
ATOM     11  N   UNL     1      52.500   8.108  12.744  0.00  0.00    +0.000 N 
ATOM     12  O   UNL     1      52.325   9.313  10.857  0.00  0.00    +0.000 OA
ATOM     13  H   UNL     1      52.127   7.583  13.519  0.00  0.00    +0.000 HD
ATOM     14  H   UNL     1      53.506   8.138  12.638  0.00  0.00    +0.000 HD
ENDBRANCH   6  10
BRANCH   1  15
ATOM     15  C   UNL     1      45.415   7.289  12.853  0.00  0.00    +0.000 C 
BRANCH  15  19
ATOM     16  C   UNL     1      43.731   3.898  10.672  0.00  0.00    +0.000 C 
ATOM     17  C   UNL     1      42.761   4.831  11.414  0.00  0.00    +0.000 C 
ATOM     18  C   UNL     1      43.474   5.766  12.388  0.00  0.00    +0.000 C 
ATOM     19  C   UNL     1      44.612   6.577  11.739  0.00  0.00    +0.000 C 
ATOM     20  C   UNL     1      45.518   5.705  10.847  0.00  0.00    +0.000 C 
ATOM     21  C   UNL     1      44.749   4.766   9.920  0.00  0.00    +0.000 C 
BRANCH  16  22
ATOM     22  C   UNL     1      44.446   2.877  11.583  0.00  0.00    +0.000 C 
BRANCH  22  23
ATOM     23  N   UNL     1      43.520   2.141  12.435  0.00  0.00    +0.000 NA
ATOM     24  H   UNL     1      42.651   2.667  12.524  0.00  0.00    +0.000 HD
ATOM     25  H   UNL     1      43.905   2.068  13.378  0.00  0.00    +0.000 HD
ENDBRANCH  22  23
ENDBRANCH  16  22
ENDBRANCH  15  19
ENDBRANCH   1  15
TORSDOF 5
ENDMDL
MODEL 6
REMARK VINA RESULT:    -5.656      3.164      5.124
REMARK INTER + INTRA:          -7.419
REMARK INTER:                  -7.157
REMARK INTRA:                  -0.262
REMARK UNBOUND:                -0.275
REMARK  Name = 
REMARK  5 active torsions:
REMARK  status: ('A' for Active; 'I' for Inactive)
REMARK    1  A    between atoms: N_1  and  C_2
REMARK    2  A    between atoms: C_2  and  C_3
REMARK    3  A    between atoms: C_6  and  C_7
REMARK    4  A    between atoms: C_7  and  N_8
REMARK    5  A    between atoms: C_13  and  C_14
REMARK                            x       y       z     vdW  Elec       q    Type
REMARK                         _______ _______ _______ _____ _____    ______ ____
ROOT
ATOM      1  N   UNL     1      47.188   6.799  13.216  0.00  0.00    +0.000 N 
ATOM      2  C   UNL     1      47.696   6.183  14.335  0.00  0.00    +0.000 A 
ATOM      3  C   UNL     1      47.205   4.899  14.371  0.00  0.00    +0.000 A 
ATOM      4  C   UNL     1      46.406   4.712  13.212  0.00  0.00    +0.000 A 
ATOM      5  C   UNL     1      45.629   3.657  12.700  0.00  0.00    +0.000 A 
ATOM      6  C   UNL     1      44.966   3.866  11.488  0.00  0.00    +0.000 A 
ATOM      7  C   UNL     1      45.140   5.090  10.840  0.00  0.00    +0.000 A 
ATOM      8  N   UNL     1      45.866   6.144  11.297  0.00  0.00    +0.000 NA
ATOM      9  C   UNL     1      46.455   5.899  12.484  0.00  0.00    +0.000 A 
ENDROOT
BRANCH   6  10
ATOM     10  C   UNL     1      44.059   2.870  10.867  0.00  0.00    +0.000 C 
ATOM     11  N   UNL     1      44.487   2.187   9.763  0.00  0.00    +0.000 N 
ATOM     12  O   UNL     1      42.949   2.639  11.337  0.00  0.00    +0.000 OA
ATOM     13  H   UNL     1      45.389   2.287   9.326  0.00  0.00    +0.000 HD
ATOM     14  H   UNL     1      43.860   1.484   9.392  0.00  0.00    +0.000 HD
ENDBRANCH   6  10
BRANCH   1  15
ATOM     15  C   UNL     1      47.377   8.201  12.884  0.00  0.00    +0.000 C 
BRANCH  15  19
ATOM     16  C   UNL     1      51.330   9.255  11.350  0.00  0.00    +0.000 C 
ATOM     17  C   UNL     1      50.860   7.801  11.191  0.00  0.00    +0.000 C 
ATOM     18  C   UNL     1      49.630   7.484  12.039  0.00  0.00    +0.000 C 
ATOM     19  C   UNL     1      48.459   8.458  11.809  0.00  0.00    +0.000 C 
ATOM     20  C   UNL     1      48.915   9.931  11.795  0.00  0.00    +0.000 C 
ATOM     21  C   UNL     1      50.169  10.179  10.959  0.00  0.00    +0.000 C 
BRANCH  16  22
ATOM     22  C   UNL     1      51.855   9.598  12.760  0.00  0.00    +0.000 C 
BRANCH  22  23
ATOM     23  N   UNL     1      52.287  10.986  12.876  0.00  0.00    +0.000 NA
ATOM     24  H   UNL     1      53.264  11.060  12.596  0.00  0.00    +0.000 HD
ATOM     25  H   UNL     1      52.250  11.277  13.853  0.00  0.00    +0.000 HD
ENDBRANCH  22  23
ENDBRANCH  16  22
ENDBRANCH  15  19
ENDBRANCH   1  15
TORSDOF 5
ENDMDL
MODEL 7
REMARK VINA RESULT:    -5.572      4.867      6.691
REMARK INTER + INTRA:          -7.313
REMARK INTER:                  -6.784
REMARK INTRA:                  -0.529
REMARK UNBOUND:                -0.275
REMARK  Name = 
REMARK  5 active torsions:
REMARK  status: ('A' for Active; 'I' for Inactive)
REMARK    1  A    between atoms: N_1  and  C_2
REMARK    2  A    between atoms: C_2  and  C_3
REMARK    3  A    between atoms: C_6  and  C_7
REMARK    4  A    between atoms: C_7  and  N_8
REMARK    5  A    between atoms: C_13  and  C_14
REMARK                            x       y       z     vdW  Elec       q    Type
REMARK                         _______ _______ _______ _____ _____    ______ ____
ROOT
ATOM      1  N   UNL     1      46.376   5.210  13.551  0.00  0.00    +0.000 N 
ATOM      2  C   UNL     1      45.066   4.835  13.370  0.00  0.00    +0.000 A 
ATOM      3  C   UNL     1      44.382   5.917  12.867  0.00  0.00    +0.000 A 
ATOM      4  C   UNL     1      45.316   6.973  12.695  0.00  0.00    +0.000 A 
ATOM      5  C   UNL     1      45.238   8.307  12.257  0.00  0.00    +0.000 A 
ATOM      6  C   UNL     1      46.419   9.053  12.230  0.00  0.00    +0.000 A 
ATOM      7  C   UNL     1      47.609   8.426  12.602  0.00  0.00    +0.000 A 
ATOM      8  N   UNL     1      47.736   7.147  13.045  0.00  0.00    +0.000 NA
ATOM      9  C   UNL     1      46.563   6.485  13.083  0.00  0.00    +0.000 A 
ENDROOT
BRANCH   6  10
ATOM     10  C   UNL     1      46.474  10.489  11.858  0.00  0.00    +0.000 C 
ATOM     11  N   UNL     1      45.417  11.294  12.178  0.00  0.00    +0.000 N 
ATOM     12  O   UNL     1      47.454  10.962  11.292  0.00  0.00    +0.000 OA
ATOM     13  H   UNL     1      44.586  11.002  12.667  0.00  0.00    +0.000 HD
ATOM     14  H   UNL     1      45.507  12.276  11.950  0.00  0.00    +0.000 HD
ENDBRANCH   6  10
BRANCH   1  15
ATOM     15  C   UNL     1      47.396   4.383  14.175  0.00  0.00    +0.000 C 
BRANCH  15  19
ATOM     16  C   UNL     1      49.079   4.185  18.202  0.00  0.00    +0.000 C 
ATOM     17  C   UNL     1      48.554   5.542  17.707  0.00  0.00    +0.000 C 
ATOM     18  C   UNL     1      48.298   5.559  16.202  0.00  0.00    +0.000 C 
ATOM     19  C   UNL     1      47.381   4.418  15.722  0.00  0.00    +0.000 C 
ATOM     20  C   UNL     1      47.773   3.056  16.329  0.00  0.00    +0.000 C 
ATOM     21  C   UNL     1      48.050   3.108  17.830  0.00  0.00    +0.000 C 
BRANCH  16  22
ATOM     22  C   UNL     1      50.478   3.816  17.666  0.00  0.00    +0.000 C 
BRANCH  22  23
ATOM     23  N   UNL     1      50.889   2.470  18.050  0.00  0.00    +0.000 NA
ATOM     24  H   UNL     1      50.096   1.981  18.464  0.00  0.00    +0.000 HD
ATOM     25  H   UNL     1      51.601   2.523  18.779  0.00  0.00    +0.000 HD
ENDBRANCH  22  23
ENDBRANCH  16  22
ENDBRANCH  15  19
ENDBRANCH   1  15
TORSDOF 5
ENDMDL
MODEL 8
REMARK VINA RESULT:    -5.535      3.093      6.628
REMARK INTER + INTRA:          -7.267
REMARK INTER:                  -7.491
REMARK INTRA:                   0.224
REMARK UNBOUND:                -0.275
REMARK  Name = 
REMARK  5 active torsions:
REMARK  status: ('A' for Active; 'I' for Inactive)
REMARK    1  A    between atoms: N_1  and  C_2
REMARK    2  A    between atoms: C_2  and  C_3
REMARK    3  A    between atoms: C_6  and  C_7
REMARK    4  A    between atoms: C_7  and  N_8
REMARK    5  A    between atoms: C_13  and  C_14
REMARK                            x       y       z     vdW  Elec       q    Type
REMARK                         _______ _______ _______ _____ _____    ______ ____
ROOT
ATOM      1  N   UNL     1      45.524   4.559  12.272  0.00  0.00    +0.000 N 
ATOM      2  C   UNL     1      46.540   4.392  13.182  0.00  0.00    +0.000 A 
ATOM      3  C   UNL     1      46.955   5.640  13.587  0.00  0.00    +0.000 A 
ATOM      4  C   UNL     1      46.134   6.597  12.934  0.00  0.00    +0.000 A 
ATOM      5  C   UNL     1      46.075   8.003  12.908  0.00  0.00    +0.000 A 
ATOM      6  C   UNL     1      45.092   8.598  12.114  0.00  0.00    +0.000 A 
ATOM      7  C   UNL     1      44.206   7.770  11.423  0.00  0.00    +0.000 A 
ATOM      8  N   UNL     1      44.229   6.411  11.403  0.00  0.00    +0.000 NA
ATOM      9  C   UNL     1      45.217   5.891  12.159  0.00  0.00    +0.000 A 
ENDROOT
BRANCH   6  10
ATOM     10  C   UNL     1      44.957  10.065  11.937  0.00  0.00    +0.000 C 
ATOM     11  N   UNL     1      43.748  10.650  12.187  0.00  0.00    +0.000 N 
ATOM     12  O   UNL     1      45.912  10.755  11.593  0.00  0.00    +0.000 OA
ATOM     13  H   UNL     1      42.919  10.172  12.500  0.00  0.00    +0.000 HD
ATOM     14  H   UNL     1      43.703  11.658  12.098  0.00  0.00    +0.000 HD
ENDBRANCH   6  10
BRANCH   1  15
ATOM     15  C   UNL     1      44.897   3.483  11.523  0.00  0.00    +0.000 C 
BRANCH  15  19
ATOM     16  C   UNL     1      45.885   3.156   7.279  0.00  0.00    +0.000 C 
ATOM     17  C   UNL     1      44.560   2.544   7.759  0.00  0.00    +0.000 C 
ATOM     18  C   UNL     1      44.480   2.433   9.281  0.00  0.00    +0.000 C 
ATOM     19  C   UNL     1      44.755   3.763  10.008  0.00  0.00    +0.000 C 
ATOM     20  C   UNL     1      45.989   4.496   9.443  0.00  0.00    +0.000 C 
ATOM     21  C   UNL     1      46.030   4.545   7.918  0.00  0.00    +0.000 C 
BRANCH  16  22
ATOM     22  C   UNL     1      47.125   2.285   7.571  0.00  0.00    +0.000 C 
BRANCH  22  23
ATOM     23  N   UNL     1      47.201   1.110   6.710  0.00  0.00    +0.000 NA
ATOM     24  H   UNL     1      47.415   0.290   7.276  0.00  0.00    +0.000 HD
ATOM     25  H   UNL     1      47.977   1.214   6.056  0.00  0.00    +0.000 HD
ENDBRANCH  22  23
ENDBRANCH  16  22
ENDBRANCH  15  19
ENDBRANCH   1  15
TORSDOF 5
ENDMDL
MODEL 9
REMARK VINA RESULT:    -5.529      3.781      5.623
REMARK INTER + INTRA:          -7.259
REMARK INTER:                  -6.738
REMARK INTRA:                  -0.521
REMARK UNBOUND:                -0.275
REMARK  Name = 
REMARK  5 active torsions:
REMARK  status: ('A' for Active; 'I' for Inactive)
REMARK    1  A    between atoms: N_1  and  C_2
REMARK    2  A    between atoms: C_2  and  C_3
REMARK    3  A    between atoms: C_6  and  C_7
REMARK    4  A    between atoms: C_7  and  N_8
REMARK    5  A    between atoms: C_13  and  C_14
REMARK                            x       y       z     vdW  Elec       q    Type
REMARK                         _______ _______ _______ _____ _____    ______ ____
ROOT
ATOM      1  N   UNL     1      46.409   8.122  12.803  0.00  0.00    +0.000 N 
ATOM      2  C   UNL     1      45.662   9.050  12.117  0.00  0.00    +0.000 A 
ATOM      3  C   UNL     1      44.655   8.382  11.461  0.00  0.00    +0.000 A 
ATOM      4  C   UNL     1      44.766   7.005  11.795  0.00  0.00    +0.000 A 
ATOM      5  C   UNL     1      44.071   5.836  11.434  0.00  0.00    +0.000 A 
ATOM      6  C   UNL     1      44.498   4.628  11.991  0.00  0.00    +0.000 A 
ATOM      7  C   UNL     1      45.560   4.654  12.896  0.00  0.00    +0.000 A 
ATOM      8  N   UNL     1      46.272   5.751  13.266  0.00  0.00    +0.000 NA
ATOM      9  C   UNL     1      45.839   6.881  12.674  0.00  0.00    +0.000 A 
ENDROOT
BRANCH   6  10
ATOM     10  C   UNL     1      43.905   3.312  11.648  0.00  0.00    +0.000 C 
ATOM     11  N   UNL     1      43.784   2.368  12.629  0.00  0.00    +0.000 N 
ATOM     12  O   UNL     1      43.508   3.069  10.513  0.00  0.00    +0.000 OA
ATOM     13  H   UNL     1      44.054   2.486  13.592  0.00  0.00    +0.000 HD
ATOM     14  H   UNL     1      43.336   1.498  12.370  0.00  0.00    +0.000 HD
ENDBRANCH   6  10
BRANCH   1  15
ATOM     15  C   UNL     1      47.635   8.417  13.526  0.00  0.00    +0.000 C 
BRANCH  15  19
ATOM     16  C   UNL     1      51.788   9.005  12.305  0.00  0.00    +0.000 C 
ATOM     17  C   UNL     1      50.906   8.093  11.439  0.00  0.00    +0.000 C 
ATOM     18  C   UNL     1      49.599   7.710  12.132  0.00  0.00    +0.000 C 
ATOM     19  C   UNL     1      48.792   8.922  12.633  0.00  0.00    +0.000 C 
ATOM     20  C   UNL     1      49.675   9.951  13.368  0.00  0.00    +0.000 C 
ATOM     21  C   UNL     1      50.983  10.267  12.646  0.00  0.00    +0.000 C 
BRANCH  16  22
ATOM     22  C   UNL     1      52.326   8.334  13.586  0.00  0.00    +0.000 C 
BRANCH  22  23
ATOM     23  N   UNL     1      53.594   7.647  13.370  0.00  0.00    +0.000 NA
ATOM     24  H   UNL     1      53.529   7.076  12.528  0.00  0.00    +0.000 HD
ATOM     25  H   UNL     1      53.768   7.000  14.139  0.00  0.00    +0.000 HD
ENDBRANCH  22  23
ENDBRANCH  16  22
ENDBRANCH  15  19
ENDBRANCH   1  15
TORSDOF 5
ENDMDL
