MODEL 1
REMARK VINA RESULT:    -7.503      0.000      0.000
REMARK INTER + INTRA:         -11.782
REMARK INTER:                 -10.793
REMARK INTRA:                  -0.989
REMARK UNBOUND:                -0.989
REMARK  Name = 
REMARK  12 active torsions:
REMARK  status: ('A' for Active; 'I' for Inactive)
REMARK    1  A    between atoms: C_1  and  C_2
REMARK    2  A    between atoms: C_2  and  C_3
REMARK    3  A    between atoms: C_2  and  C_4
REMARK    4  A    between atoms: C_2  and  O_5
REMARK    5  A    between atoms: O_5  and  C_6
REMARK    6  A    between atoms: C_6  and  C_7
REMARK    7  A    between atoms: C_7  and  C_8
REMARK    8  A    between atoms: C_7  and  O_9
REMARK    9  A    between atoms: C_7  and  C_10
REMARK   10  A    between atoms: N_16  and  C_17
REMARK   11  A    between atoms: C_17  and  C_18
REMARK   12  A    between atoms: C_21  and  C_22
REMARK                            x       y       z     vdW  Elec       q    Type
REMARK                         _______ _______ _______ _____ _____    ______ ____
ROOT
ATOM      1  C   UNL     1      47.119   5.954  12.960  0.00  0.00    +0.000 A 
ATOM      2  C   UNL     1      46.904   5.262  14.161  0.00  0.00    +0.000 A 
ATOM      3  N   UNL     1      45.844   4.457  14.422  0.00  0.00    +0.000 NA
ATOM      4  C   UNL     1      44.992   4.359  13.376  0.00  0.00    +0.000 A 
ATOM      5  C   UNL     1      43.803   3.610  13.239  0.00  0.00    +0.000 A 
ATOM      6  C   UNL     1      43.325   3.827  11.964  0.00  0.00    +0.000 A 
ATOM      7  N   UNL     1      44.191   4.687  11.326  0.00  0.00    +0.000 N 
ATOM      8  C   UNL     1      45.203   5.046  12.182  0.00  0.00    +0.000 A 
ATOM      9  N   UNL     1      46.232   5.886  11.925  0.00  0.00    +0.000 NA
ENDROOT
BRANCH   1  10
ATOM     10  C   UNL     1      48.317   6.907  12.821  0.00  0.00    +0.000 C 
ATOM     11  C   UNL     1      48.582   7.575  14.180  0.00  0.00    +0.000 C 
BRANCH  10  12
ATOM     12  O   UNL     1      49.541   6.253  12.427  0.00  0.00    +0.000 OA
ATOM     13  H   UNL     1      49.365   5.338  12.165  0.00  0.00    +0.000 HD
ENDBRANCH  10  12
BRANCH  10  14
ATOM     14  C   UNL     1      48.059   8.026  11.778  0.00  0.00    +0.000 C 
BRANCH  14  15
ATOM     15  O   UNL     1      49.082   9.034  11.804  0.00  0.00    +0.000 OA
BRANCH  15  17
ATOM     16  C   UNL     1      49.008  11.173  10.601  0.00  0.00    +0.000 C 
ATOM     17  C   UNL     1      48.630  10.396  11.868  0.00  0.00    +0.000 C 
ATOM     18  C   UNL     1      49.153  11.098  13.127  0.00  0.00    +0.000 C 
ATOM     19  C   UNL     1      47.098  10.327  11.949  0.00  0.00    +0.000 C 
ENDBRANCH  15  17
ENDBRANCH  14  15
ENDBRANCH  10  14
ENDBRANCH   1  10
BRANCH   7  20
ATOM     20  C   UNL     1      44.109   5.061   9.920  0.00  0.00    +0.000 C 
BRANCH  20  21
ATOM     21  C   UNL     1      44.961   4.173   9.057  0.00  0.00    +0.000 A 
ATOM     22  C   UNL     1      45.896   4.699   8.159  0.00  0.00    +0.000 A 
ATOM     23  C   UNL     1      46.697   3.840   7.412  0.00  0.00    +0.000 A 
ATOM     24  C   UNL     1      46.534   2.473   7.588  0.00  0.00    +0.000 A 
ATOM     25  N   UNL     1      45.620   1.920   8.435  0.00  0.00    +0.000 NA
ATOM     26  C   UNL     1      44.866   2.786   9.150  0.00  0.00    +0.000 A 
BRANCH  24  27
ATOM     27  C   UNL     1      47.418   1.522   6.840  0.00  0.00    +0.000 C 
ATOM     28  N   UNL     1      48.584   2.055   6.359  0.00  0.00    +0.000 N 
ATOM     29  O   UNL     1      47.122   0.349   6.655  0.00  0.00    +0.000 OA
ATOM     30  H   UNL     1      48.775   3.042   6.499  0.00  0.00    +0.000 HD
ATOM     31  H   UNL     1      49.201   1.484   5.803  0.00  0.00    +0.000 HD
ENDBRANCH  24  27
ENDBRANCH  20  21
ENDBRANCH   7  20
TORSDOF 8
ENDMDL
MODEL 2
REMARK VINA RESULT:    -7.177      1.753      2.377
REMARK INTER + INTRA:         -11.313
REMARK INTER:                 -10.281
REMARK INTRA:                  -1.032
REMARK UNBOUND:                -0.989
REMARK  Name = 
REMARK  12 active torsions:
REMARK  status: ('A' for Active; 'I' for Inactive)
REMARK    1  A    between atoms: C_1  and  C_2
REMARK    2  A    between atoms: C_2  and  C_3
REMARK    3  A    between atoms: C_2  and  C_4
REMARK    4  A    between atoms: C_2  and  O_5
REMARK    5  A    between atoms: O_5  and  C_6
REMARK    6  A    between atoms: C_6  and  C_7
REMARK    7  A    between atoms: C_7  and  C_8
REMARK    8  A    between atoms: C_7  and  O_9
REMARK    9  A    between atoms: C_7  and  C_10
REMARK   10  A    between atoms: N_16  and  C_17
REMARK   11  A    between atoms: C_17  and  C_18
REMARK   12  A    between atoms: C_21  and  C_22
REMARK                            x       y       z     vdW  Elec       q    Type
REMARK                         _______ _______ _______ _____ _____    ______ ____
ROOT
ATOM      1  C   UNL     1      47.075   7.450  12.977  0.00  0.00    +0.000 A 
ATOM      2  C   UNL     1      47.801   6.846  14.014  0.00  0.00    +0.000 A 
ATOM      3  N   UNL     1      47.708   5.543  14.380  0.00  0.00    +0.000 NA
ATOM      4  C   UNL     1      46.837   4.847  13.616  0.00  0.00    +0.000 A 
ATOM      5  C   UNL     1      46.481   3.480  13.658  0.00  0.00    +0.000 A 
ATOM      6  C   UNL     1      45.575   3.261  12.642  0.00  0.00    +0.000 A 
ATOM      7  N   UNL     1      45.370   4.455  11.988  0.00  0.00    +0.000 N 
ATOM      8  C   UNL     1      46.113   5.444  12.586  0.00  0.00    +0.000 A 
ATOM      9  N   UNL     1      46.165   6.751  12.238  0.00  0.00    +0.000 NA
ENDROOT
BRANCH   1  10
ATOM     10  C   UNL     1      47.208   8.959  12.718  0.00  0.00    +0.000 C 
ATOM     11  C   UNL     1      45.846   9.507  12.260  0.00  0.00    +0.000 C 
BRANCH  10  12
ATOM     12  O   UNL     1      47.600   9.718  13.879  0.00  0.00    +0.000 OA
ATOM     13  H   UNL     1      47.433   9.211  14.686  0.00  0.00    +0.000 HD
ENDBRANCH  10  12
BRANCH  10  14
ATOM     14  C   UNL     1      48.249   9.276  11.611  0.00  0.00    +0.000 C 
BRANCH  14  15
ATOM     15  O   UNL     1      49.196   8.210  11.441  0.00  0.00    +0.000 OA
BRANCH  15  17
ATOM     16  C   UNL     1      51.493   7.712  10.729  0.00  0.00    +0.000 C 
ATOM     17  C   UNL     1      50.578   8.553  11.628  0.00  0.00    +0.000 C 
ATOM     18  C   UNL     1      50.987   8.435  13.102  0.00  0.00    +0.000 C 
ATOM     19  C   UNL     1      50.708  10.023  11.203  0.00  0.00    +0.000 C 
ENDBRANCH  15  17
ENDBRANCH  14  15
ENDBRANCH  10  14
ENDBRANCH   1  10
BRANCH   7  20
ATOM     20  C   UNL     1      44.582   4.616  10.774  0.00  0.00    +0.000 C 
BRANCH  20  21
ATOM     21  C   UNL     1      45.298   4.073   9.569  0.00  0.00    +0.000 A 
ATOM     22  C   UNL     1      45.271   2.711   9.250  0.00  0.00    +0.000 A 
ATOM     23  C   UNL     1      45.910   2.257   8.099  0.00  0.00    +0.000 A 
ATOM     24  C   UNL     1      46.562   3.187   7.302  0.00  0.00    +0.000 A 
ATOM     25  N   UNL     1      46.631   4.518   7.588  0.00  0.00    +0.000 NA
ATOM     26  C   UNL     1      45.991   4.923   8.710  0.00  0.00    +0.000 A 
BRANCH  24  27
ATOM     27  C   UNL     1      47.212   2.739   6.028  0.00  0.00    +0.000 C 
ATOM     28  N   UNL     1      48.520   2.351   6.138  0.00  0.00    +0.000 N 
ATOM     29  O   UNL     1      46.625   2.729   4.953  0.00  0.00    +0.000 OA
ATOM     30  H   UNL     1      48.983   2.411   7.038  0.00  0.00    +0.000 HD
ATOM     31  H   UNL     1      49.033   2.088   5.311  0.00  0.00    +0.000 HD
ENDBRANCH  24  27
ENDBRANCH  20  21
ENDBRANCH   7  20
TORSDOF 8
ENDMDL
MODEL 3
REMARK VINA RESULT:    -6.731      3.323      6.128
REMARK INTER + INTRA:         -10.671
REMARK INTER:                  -9.284
REMARK INTRA:                  -1.387
REMARK UNBOUND:                -0.989
REMARK  Name = 
REMARK  12 active torsions:
REMARK  status: ('A' for Active; 'I' for Inactive)
REMARK    1  A    between atoms: C_1  and  C_2
REMARK    2  A    between atoms: C_2  and  C_3
REMARK    3  A    between atoms: C_2  and  C_4
REMARK    4  A    between atoms: C_2  and  O_5
REMARK    5  A    between atoms: O_5  and  C_6
REMARK    6  A    between atoms: C_6  and  C_7
REMARK    7  A    between atoms: C_7  and  C_8
REMARK    8  A    between atoms: C_7  and  O_9
REMARK    9  A    between atoms: C_7  and  C_10
REMARK   10  A    between atoms: N_16  and  C_17
REMARK   11  A    between atoms: C_17  and  C_18
REMARK   12  A    between atoms: C_21  and  C_22
REMARK                            x       y       z     vdW  Elec       q    Type
REMARK                         _______ _______ _______ _____ _____    ______ ____
ROOT
ATOM      1  C   UNL     1      49.462   7.235  15.985  0.00  0.00    +0.000 A 
ATOM      2  C   UNL     1      50.754   7.483  15.499  0.00  0.00    +0.000 A 
ATOM      3  N   UNL     1      51.067   7.755  14.208  0.00  0.00    +0.000 NA
ATOM      4  C   UNL     1      49.980   7.788  13.403  0.00  0.00    +0.000 A 
ATOM      5  C   UNL     1      49.881   8.060  12.020  0.00  0.00    +0.000 A 
ATOM      6  C   UNL     1      48.545   8.003  11.686  0.00  0.00    +0.000 A 
ATOM      7  N   UNL     1      47.832   7.703  12.826  0.00  0.00    +0.000 N 
ATOM      8  C   UNL     1      48.695   7.541  13.882  0.00  0.00    +0.000 A 
ATOM      9  N   UNL     1      48.375   7.226  15.159  0.00  0.00    +0.000 NA
ENDROOT
BRANCH   1  10
ATOM     10  C   UNL     1      49.250   6.851  17.458  0.00  0.00    +0.000 C 
ATOM     11  C   UNL     1      49.925   7.908  18.350  0.00  0.00    +0.000 C 
BRANCH  10  12
ATOM     12  O   UNL     1      47.864   6.789  17.852  0.00  0.00    +0.000 OA
ATOM     13  H   UNL     1      47.723   7.288  18.669  0.00  0.00    +0.000 HD
ENDBRANCH  10  12
BRANCH  10  14
ATOM     14  C   UNL     1      49.869   5.470  17.800  0.00  0.00    +0.000 C 
BRANCH  14  15
ATOM     15  O   UNL     1      49.619   4.498  16.772  0.00  0.00    +0.000 OA
BRANCH  15  17
ATOM     16  C   UNL     1      47.368   3.638  16.299  0.00  0.00    +0.000 C 
ATOM     17  C   UNL     1      48.671   3.467  17.089  0.00  0.00    +0.000 C 
ATOM     18  C   UNL     1      48.401   3.405  18.598  0.00  0.00    +0.000 C 
ATOM     19  C   UNL     1      49.325   2.146  16.657  0.00  0.00    +0.000 C 
ENDBRANCH  15  17
ENDBRANCH  14  15
ENDBRANCH  10  14
ENDBRANCH   1  10
BRANCH   7  20
ATOM     20  C   UNL     1      46.379   7.683  12.920  0.00  0.00    +0.000 C 
BRANCH  20  21
ATOM     21  C   UNL     1      45.809   6.372  12.456  0.00  0.00    +0.000 A 
ATOM     22  C   UNL     1      45.804   5.241  13.279  0.00  0.00    +0.000 A 
ATOM     23  C   UNL     1      45.225   4.058  12.826  0.00  0.00    +0.000 A 
ATOM     24  C   UNL     1      44.669   4.046  11.555  0.00  0.00    +0.000 A 
ATOM     25  N   UNL     1      44.673   5.119  10.713  0.00  0.00    +0.000 NA
ATOM     26  C   UNL     1      45.237   6.252  11.191  0.00  0.00    +0.000 A 
BRANCH  24  27
ATOM     27  C   UNL     1      43.989   2.806  11.059  0.00  0.00    +0.000 C 
ATOM     28  N   UNL     1      44.548   2.230   9.951  0.00  0.00    +0.000 N 
ATOM     29  O   UNL     1      42.992   2.338  11.595  0.00  0.00    +0.000 OA
ATOM     30  H   UNL     1      45.350   2.670   9.512  0.00  0.00    +0.000 HD
ATOM     31  H   UNL     1      44.111   1.423   9.534  0.00  0.00    +0.000 HD
ENDBRANCH  24  27
ENDBRANCH  20  21
ENDBRANCH   7  20
TORSDOF 8
ENDMDL
MODEL 4
REMARK VINA RESULT:    -6.515      4.066      6.755
REMARK INTER + INTRA:         -10.361
REMARK INTER:                  -9.292
REMARK INTRA:                  -1.069
REMARK UNBOUND:                -0.989
REMARK  Name = 
REMARK  12 active torsions:
REMARK  status: ('A' for Active; 'I' for Inactive)
REMARK    1  A    between atoms: C_1  and  C_2
REMARK    2  A    between atoms: C_2  and  C_3
REMARK    3  A    between atoms: C_2  and  C_4
REMARK    4  A    between atoms: C_2  and  O_5
REMARK    5  A    between atoms: O_5  and  C_6
REMARK    6  A    between atoms: C_6  and  C_7
REMARK    7  A    between atoms: C_7  and  C_8
REMARK    8  A    between atoms: C_7  and  O_9
REMARK    9  A    between atoms: C_7  and  C_10
REMARK   10  A    between atoms: N_16  and  C_17
REMARK   11  A    between atoms: C_17  and  C_18
REMARK   12  A    between atoms: C_21  and  C_22
REMARK                            x       y       z     vdW  Elec       q    Type
REMARK                         _______ _______ _______ _____ _____    ______ ____
ROOT
ATOM      1  C   UNL     1      48.515   4.892  16.745  0.00  0.00    +0.000 A 
ATOM      2  C   UNL     1      48.486   5.790  17.822  0.00  0.00    +0.000 A 
ATOM      3  N   UNL     1      48.493   7.143  17.715  0.00  0.00    +0.000 NA
ATOM      4  C   UNL     1      48.509   7.564  16.430  0.00  0.00    +0.000 A 
ATOM      5  C   UNL     1      48.495   8.875  15.904  0.00  0.00    +0.000 A 
ATOM      6  C   UNL     1      48.487   8.765  14.529  0.00  0.00    +0.000 A 
ATOM      7  N   UNL     1      48.498   7.426  14.209  0.00  0.00    +0.000 N 
ATOM      8  C   UNL     1      48.540   6.675  15.358  0.00  0.00    +0.000 A 
ATOM      9  N   UNL     1      48.576   5.326  15.452  0.00  0.00    +0.000 NA
ENDROOT
BRANCH   1  10
ATOM     10  C   UNL     1      48.592   3.379  17.002  0.00  0.00    +0.000 C 
ATOM     11  C   UNL     1      47.347   2.944  17.793  0.00  0.00    +0.000 C 
BRANCH  10  12
ATOM     12  O   UNL     1      48.628   2.583  15.800  0.00  0.00    +0.000 OA
ATOM     13  H   UNL     1      48.797   3.144  15.030  0.00  0.00    +0.000 HD
ENDBRANCH  10  12
BRANCH  10  14
ATOM     14  C   UNL     1      49.846   2.988  17.828  0.00  0.00    +0.000 C 
BRANCH  14  15
ATOM     15  O   UNL     1      51.066   3.297  17.137  0.00  0.00    +0.000 OA
BRANCH  15  17
ATOM     16  C   UNL     1      51.535   4.428  19.265  0.00  0.00    +0.000 C 
ATOM     17  C   UNL     1      51.982   4.166  17.821  0.00  0.00    +0.000 C 
ATOM     18  C   UNL     1      52.181   5.479  17.055  0.00  0.00    +0.000 C 
ATOM     19  C   UNL     1      53.322   3.417  17.862  0.00  0.00    +0.000 C 
ENDBRANCH  15  17
ENDBRANCH  14  15
ENDBRANCH  10  14
ENDBRANCH   1  10
BRANCH   7  20
ATOM     20  C   UNL     1      48.363   6.890  12.861  0.00  0.00    +0.000 C 
BRANCH  20  21
ATOM     21  C   UNL     1      46.942   6.508  12.553  0.00  0.00    +0.000 A 
ATOM     22  C   UNL     1      46.092   7.355  11.835  0.00  0.00    +0.000 A 
ATOM     23  C   UNL     1      44.797   6.942  11.533  0.00  0.00    +0.000 A 
ATOM     24  C   UNL     1      44.393   5.686  11.965  0.00  0.00    +0.000 A 
ATOM     25  N   UNL     1      45.182   4.840  12.686  0.00  0.00    +0.000 NA
ATOM     26  C   UNL     1      46.436   5.272  12.953  0.00  0.00    +0.000 A 
BRANCH  24  27
ATOM     27  C   UNL     1      43.025   5.189  11.608  0.00  0.00    +0.000 C 
ATOM     28  N   UNL     1      42.008   6.091  11.772  0.00  0.00    +0.000 N 
ATOM     29  O   UNL     1      42.817   4.051  11.207  0.00  0.00    +0.000 OA
ATOM     30  H   UNL     1      42.215   7.012  12.144  0.00  0.00    +0.000 HD
ATOM     31  H   UNL     1      41.056   5.806  11.600  0.00  0.00    +0.000 HD
ENDBRANCH  24  27
ENDBRANCH  20  21
ENDBRANCH   7  20
TORSDOF 8
ENDMDL
MODEL 5
REMARK VINA RESULT:    -6.464      1.971      2.525
REMARK INTER + INTRA:         -10.287
REMARK INTER:                  -9.562
REMARK INTRA:                  -0.725
REMARK UNBOUND:                -0.989
REMARK  Name = 
REMARK  12 active torsions:
REMARK  status: ('A' for Active; 'I' for Inactive)
REMARK    1  A    between atoms: C_1  and  C_2
REMARK    2  A    between atoms: C_2  and  C_3
REMARK    3  A    between atoms: C_2  and  C_4
REMARK    4  A    between atoms: C_2  and  O_5
REMARK    5  A    between atoms: O_5  and  C_6
REMARK    6  A    between atoms: C_6  and  C_7
REMARK    7  A    between atoms: C_7  and  C_8
REMARK    8  A    between atoms: C_7  and  O_9
REMARK    9  A    between atoms: C_7  and  C_10
REMARK   10  A    between atoms: N_16  and  C_17
REMARK   11  A    between atoms: C_17  and  C_18
REMARK   12  A    between atoms: C_21  and  C_22
REMARK                            x       y       z     vdW  Elec       q    Type
REMARK                         _______ _______ _______ _____ _____    ______ ____
ROOT
ATOM      1  C   UNL     1      46.929   7.207  12.401  0.00  0.00    +0.000 A 
ATOM      2  C   UNL     1      46.187   8.395  12.481  0.00  0.00    +0.000 A 
ATOM      3  N   UNL     1      44.886   8.533  12.121  0.00  0.00    +0.000 NA
ATOM      4  C   UNL     1      44.341   7.376  11.681  0.00  0.00    +0.000 A 
ATOM      5  C   UNL     1      43.026   7.098  11.246  0.00  0.00    +0.000 A 
ATOM      6  C   UNL     1      42.971   5.756  10.934  0.00  0.00    +0.000 A 
ATOM      7  N   UNL     1      44.216   5.214  11.167  0.00  0.00    +0.000 N 
ATOM      8  C   UNL     1      45.076   6.195  11.598  0.00  0.00    +0.000 A 
ATOM      9  N   UNL     1      46.384   6.054  11.913  0.00  0.00    +0.000 NA
ENDROOT
BRANCH   1  10
ATOM     10  C   UNL     1      48.423   7.204  12.758  0.00  0.00    +0.000 C 
ATOM     11  C   UNL     1      48.614   7.914  14.109  0.00  0.00    +0.000 C 
BRANCH  10  12
ATOM     12  O   UNL     1      48.989   5.884  12.891  0.00  0.00    +0.000 OA
ATOM     13  H   UNL     1      48.307   5.250  13.155  0.00  0.00    +0.000 HD
ENDBRANCH  10  12
BRANCH  10  14
ATOM     14  C   UNL     1      49.281   7.947  11.700  0.00  0.00    +0.000 C 
BRANCH  14  15
ATOM     15  O   UNL     1      50.496   8.468  12.261  0.00  0.00    +0.000 OA
BRANCH  15  17
ATOM     16  C   UNL     1      51.635   9.888  10.613  0.00  0.00    +0.000 C 
ATOM     17  C   UNL     1      51.620   8.555  11.371  0.00  0.00    +0.000 C 
ATOM     18  C   UNL     1      51.658   7.366  10.404  0.00  0.00    +0.000 C 
ATOM     19  C   UNL     1      52.869   8.497  12.264  0.00  0.00    +0.000 C 
ENDBRANCH  15  17
ENDBRANCH  14  15
ENDBRANCH  10  14
ENDBRANCH   1  10
BRANCH   7  20
ATOM     20  C   UNL     1      44.535   3.795  11.085  0.00  0.00    +0.000 C 
BRANCH  20  21
ATOM     21  C   UNL     1      45.203   3.450   9.783  0.00  0.00    +0.000 A 
ATOM     22  C   UNL     1      45.619   4.439   8.885  0.00  0.00    +0.000 A 
ATOM     23  C   UNL     1      46.274   4.075   7.711  0.00  0.00    +0.000 A 
ATOM     24  C   UNL     1      46.490   2.726   7.472  0.00  0.00    +0.000 A 
ATOM     25  N   UNL     1      46.080   1.730   8.309  0.00  0.00    +0.000 NA
ATOM     26  C   UNL     1      45.455   2.122   9.443  0.00  0.00    +0.000 A 
BRANCH  24  27
ATOM     27  C   UNL     1      47.240   2.305   6.245  0.00  0.00    +0.000 C 
ATOM     28  N   UNL     1      47.069   3.103   5.146  0.00  0.00    +0.000 N 
ATOM     29  O   UNL     1      47.953   1.310   6.214  0.00  0.00    +0.000 OA
ATOM     30  H   UNL     1      46.440   3.896   5.201  0.00  0.00    +0.000 HD
ATOM     31  H   UNL     1      47.504   2.849   4.273  0.00  0.00    +0.000 HD
ENDBRANCH  24  27
ENDBRANCH  20  21
ENDBRANCH   7  20
TORSDOF 8
ENDMDL
MODEL 6
REMARK VINA RESULT:    -6.269      2.935      7.229
REMARK INTER + INTRA:         -10.007
REMARK INTER:                  -9.093
REMARK INTRA:                  -0.914
REMARK UNBOUND:                -0.989
REMARK  Name = 
REMARK  12 active torsions:
REMARK  status: ('A' for Active; 'I' for Inactive)
REMARK    1  A    between atoms: C_1  and  C_2
REMARK    2  A    between atoms: C_2  and  C_3
REMARK    3  A    between atoms: C_2  and  C_4
REMARK    4  A    between atoms: C_2  and  O_5
REMARK    5  A    between atoms: O_5  and  C_6
REMARK    6  A    between atoms: C_6  and  C_7
REMARK    7  A    between atoms: C_7  and  C_8
REMARK    8  A    between atoms: C_7  and  O_9
REMARK    9  A    between atoms: C_7  and  C_10
REMARK   10  A    between atoms: N_16  and  C_17
REMARK   11  A    between atoms: C_17  and  C_18
REMARK   12  A    between atoms: C_21  and  C_22
REMARK                            x       y       z     vdW  Elec       q    Type
REMARK                         _______ _______ _______ _____ _____    ______ ____
ROOT
ATOM      1  C   UNL     1      45.250   4.365  11.024  0.00  0.00    +0.000 A 
ATOM      2  C   UNL     1      45.276   3.422  12.063  0.00  0.00    +0.000 A 
ATOM      3  N   UNL     1      45.916   3.579  13.249  0.00  0.00    +0.000 NA
ATOM      4  C   UNL     1      46.533   4.778  13.354  0.00  0.00    +0.000 A 
ATOM      5  C   UNL     1      47.273   5.328  14.424  0.00  0.00    +0.000 A 
ATOM      6  C   UNL     1      47.663   6.595  14.044  0.00  0.00    +0.000 A 
ATOM      7  N   UNL     1      47.182   6.826  12.774  0.00  0.00    +0.000 N 
ATOM      8  C   UNL     1      46.511   5.716  12.323  0.00  0.00    +0.000 A 
ATOM      9  N   UNL     1      45.913   5.554  11.121  0.00  0.00    +0.000 NA
ENDROOT
BRANCH   1  10
ATOM     10  C   UNL     1      44.561   4.029   9.693  0.00  0.00    +0.000 C 
ATOM     11  C   UNL     1      44.220   2.529   9.673  0.00  0.00    +0.000 C 
BRANCH  10  12
ATOM     12  O   UNL     1      43.328   4.745   9.477  0.00  0.00    +0.000 OA
ATOM     13  H   UNL     1      42.731   4.228   8.918  0.00  0.00    +0.000 HD
ENDBRANCH  10  12
BRANCH  10  14
ATOM     14  C   UNL     1      45.467   4.331   8.470  0.00  0.00    +0.000 C 
BRANCH  14  15
ATOM     15  O   UNL     1      45.358   3.321   7.455  0.00  0.00    +0.000 OA
BRANCH  15  17
ATOM     16  C   UNL     1      46.444   2.732   5.333  0.00  0.00    +0.000 C 
ATOM     17  C   UNL     1      46.588   2.892   6.852  0.00  0.00    +0.000 C 
ATOM     18  C   UNL     1      47.106   1.601   7.499  0.00  0.00    +0.000 C 
ATOM     19  C   UNL     1      47.603   4.013   7.122  0.00  0.00    +0.000 C 
ENDBRANCH  15  17
ENDBRANCH  14  15
ENDBRANCH  10  14
ENDBRANCH   1  10
BRANCH   7  20
ATOM     20  C   UNL     1      47.269   8.098  12.069  0.00  0.00    +0.000 C 
BRANCH  20  21
ATOM     21  C   UNL     1      48.691   8.456  11.739  0.00  0.00    +0.000 A 
ATOM     22  C   UNL     1      49.641   7.479  11.424  0.00  0.00    +0.000 A 
ATOM     23  C   UNL     1      50.936   7.859  11.081  0.00  0.00    +0.000 A 
ATOM     24  C   UNL     1      51.240   9.213  11.067  0.00  0.00    +0.000 A 
ATOM     25  N   UNL     1      50.350  10.194  11.390  0.00  0.00    +0.000 NA
ATOM     26  C   UNL     1      49.100   9.788  11.710  0.00  0.00    +0.000 A 
BRANCH  24  27
ATOM     27  C   UNL     1      52.608   9.657  10.648  0.00  0.00    +0.000 C 
ATOM     28  N   UNL     1      53.376  10.212  11.636  0.00  0.00    +0.000 N 
ATOM     29  O   UNL     1      53.018   9.547   9.499  0.00  0.00    +0.000 OA
ATOM     30  H   UNL     1      52.987  10.322  12.566  0.00  0.00    +0.000 HD
ATOM     31  H   UNL     1      54.288  10.579  11.412  0.00  0.00    +0.000 HD
ENDBRANCH  24  27
ENDBRANCH  20  21
ENDBRANCH   7  20
TORSDOF 8
ENDMDL
MODEL 7
REMARK VINA RESULT:    -6.154      4.218      8.226
REMARK INTER + INTRA:          -9.842
REMARK INTER:                  -9.316
REMARK INTRA:                  -0.526
REMARK UNBOUND:                -0.989
REMARK  Name = 
REMARK  12 active torsions:
REMARK  status: ('A' for Active; 'I' for Inactive)
REMARK    1  A    between atoms: C_1  and  C_2
REMARK    2  A    between atoms: C_2  and  C_3
REMARK    3  A    between atoms: C_2  and  C_4
REMARK    4  A    between atoms: C_2  and  O_5
REMARK    5  A    between atoms: O_5  and  C_6
REMARK    6  A    between atoms: C_6  and  C_7
REMARK    7  A    between atoms: C_7  and  C_8
REMARK    8  A    between atoms: C_7  and  O_9
REMARK    9  A    between atoms: C_7  and  C_10
REMARK   10  A    between atoms: N_16  and  C_17
REMARK   11  A    between atoms: C_17  and  C_18
REMARK   12  A    between atoms: C_21  and  C_22
REMARK                            x       y       z     vdW  Elec       q    Type
REMARK                         _______ _______ _______ _____ _____    ______ ____
ROOT
ATOM      1  C   UNL     1      47.726   6.893  12.988  0.00  0.00    +0.000 A 
ATOM      2  C   UNL     1      48.682   7.608  12.252  0.00  0.00    +0.000 A 
ATOM      3  N   UNL     1      49.874   8.044  12.730  0.00  0.00    +0.000 NA
ATOM      4  C   UNL     1      50.077   7.698  14.022  0.00  0.00    +0.000 A 
ATOM      5  C   UNL     1      51.186   7.936  14.863  0.00  0.00    +0.000 A 
ATOM      6  C   UNL     1      50.912   7.348  16.080  0.00  0.00    +0.000 A 
ATOM      7  N   UNL     1      49.667   6.763  15.999  0.00  0.00    +0.000 N 
ATOM      8  C   UNL     1      49.128   6.990  14.757  0.00  0.00    +0.000 A 
ATOM      9  N   UNL     1      47.919   6.587  14.305  0.00  0.00    +0.000 NA
ENDROOT
BRANCH   1  10
ATOM     10  C   UNL     1      46.374   6.533  12.354  0.00  0.00    +0.000 C 
ATOM     11  C   UNL     1      45.430   7.742  12.471  0.00  0.00    +0.000 C 
BRANCH  10  12
ATOM     12  O   UNL     1      46.457   6.195  10.955  0.00  0.00    +0.000 OA
ATOM     13  H   UNL     1      45.693   6.548  10.477  0.00  0.00    +0.000 HD
ENDBRANCH  10  12
BRANCH  10  14
ATOM     14  C   UNL     1      45.698   5.327  13.060  0.00  0.00    +0.000 C 
BRANCH  14  15
ATOM     15  O   UNL     1      45.263   4.329  12.123  0.00  0.00    +0.000 OA
BRANCH  15  17
ATOM     16  C   UNL     1      43.082   4.928  13.080  0.00  0.00    +0.000 C 
ATOM     17  C   UNL     1      43.843   4.150  12.000  0.00  0.00    +0.000 C 
ATOM     18  C   UNL     1      43.466   2.663  12.017  0.00  0.00    +0.000 C 
ATOM     19  C   UNL     1      43.463   4.733  10.630  0.00  0.00    +0.000 C 
ENDBRANCH  15  17
ENDBRANCH  14  15
ENDBRANCH  10  14
ENDBRANCH   1  10
BRANCH   7  20
ATOM     20  C   UNL     1      49.071   5.929  17.033  0.00  0.00    +0.000 C 
BRANCH  20  21
ATOM     21  C   UNL     1      49.847   4.659  17.242  0.00  0.00    +0.000 A 
ATOM     22  C   UNL     1      49.238   3.402  17.156  0.00  0.00    +0.000 A 
ATOM     23  C   UNL     1      50.004   2.250  17.311  0.00  0.00    +0.000 A 
ATOM     24  C   UNL     1      51.362   2.395  17.551  0.00  0.00    +0.000 A 
ATOM     25  N   UNL     1      51.991   3.600  17.665  0.00  0.00    +0.000 NA
ATOM     26  C   UNL     1      51.216   4.696  17.500  0.00  0.00    +0.000 A 
BRANCH  24  27
ATOM     27  C   UNL     1      52.224   1.174  17.668  0.00  0.00    +0.000 C 
ATOM     28  N   UNL     1      51.614   0.069  18.198  0.00  0.00    +0.000 N 
ATOM     29  O   UNL     1      53.400   1.159  17.326  0.00  0.00    +0.000 OA
ATOM     30  H   UNL     1      50.650   0.134  18.506  0.00  0.00    +0.000 HD
ATOM     31  H   UNL     1      52.150  -0.770  18.353  0.00  0.00    +0.000 HD
ENDBRANCH  24  27
ENDBRANCH  20  21
ENDBRANCH   7  20
TORSDOF 8
ENDMDL
MODEL 8
REMARK VINA RESULT:    -5.957      3.346      5.478
REMARK INTER + INTRA:          -9.558
REMARK INTER:                  -8.398
REMARK INTRA:                  -1.159
REMARK UNBOUND:                -0.989
REMARK  Name = 
REMARK  12 active torsions:
REMARK  status: ('A' for Active; 'I' for Inactive)
REMARK    1  A    between atoms: C_1  and  C_2
REMARK    2  A    between atoms: C_2  and  C_3
REMARK    3  A    between atoms: C_2  and  C_4
REMARK    4  A    between atoms: C_2  and  O_5
REMARK    5  A    between atoms: O_5  and  C_6
REMARK    6  A    between atoms: C_6  and  C_7
REMARK    7  A    between atoms: C_7  and  C_8
REMARK    8  A    between atoms: C_7  and  O_9
REMARK    9  A    between atoms: C_7  and  C_10
REMARK   10  A    between atoms: N_16  and  C_17
REMARK   11  A    between atoms: C_17  and  C_18
REMARK   12  A    between atoms: C_21  and  C_22
REMARK                            x       y       z     vdW  Elec       q    Type
REMARK                         _______ _______ _______ _____ _____    ______ ____
ROOT
ATOM      1  C   UNL     1      49.301   6.860  15.393  0.00  0.00    +0.000 A 
ATOM      2  C   UNL     1      50.519   7.382  14.931  0.00  0.00    +0.000 A 
ATOM      3  N   UNL     1      50.678   8.121  13.805  0.00  0.00    +0.000 NA
ATOM      4  C   UNL     1      49.514   8.336  13.153  0.00  0.00    +0.000 A 
ATOM      5  C   UNL     1      49.254   9.069  11.973  0.00  0.00    +0.000 A 
ATOM      6  C   UNL     1      47.896   9.011  11.744  0.00  0.00    +0.000 A 
ATOM      7  N   UNL     1      47.326   8.263  12.750  0.00  0.00    +0.000 N 
ATOM      8  C   UNL     1      48.303   7.818  13.607  0.00  0.00    +0.000 A 
ATOM      9  N   UNL     1      48.137   7.044  14.704  0.00  0.00    +0.000 NA
ENDROOT
BRANCH   1  10
ATOM     10  C   UNL     1      49.268   5.963  16.639  0.00  0.00    +0.000 C 
ATOM     11  C   UNL     1      47.977   5.126  16.617  0.00  0.00    +0.000 C 
BRANCH  10  12
ATOM     12  O   UNL     1      50.370   5.036  16.721  0.00  0.00    +0.000 OA
ATOM     13  H   UNL     1      50.258   4.446  17.480  0.00  0.00    +0.000 HD
ENDBRANCH  10  12
BRANCH  10  14
ATOM     14  C   UNL     1      49.284   6.785  17.955  0.00  0.00    +0.000 C 
BRANCH  14  15
ATOM     15  O   UNL     1      48.061   7.512  18.152  0.00  0.00    +0.000 OA
BRANCH  15  17
ATOM     16  C   UNL     1      49.610   9.198  19.041  0.00  0.00    +0.000 C 
ATOM     17  C   UNL     1      48.197   8.891  18.529  0.00  0.00    +0.000 C 
ATOM     18  C   UNL     1      47.134   9.294  19.560  0.00  0.00    +0.000 C 
ATOM     19  C   UNL     1      47.964   9.704  17.247  0.00  0.00    +0.000 C 
ENDBRANCH  15  17
ENDBRANCH  14  15
ENDBRANCH  10  14
ENDBRANCH   1  10
BRANCH   7  20
ATOM     20  C   UNL     1      45.894   8.077  12.941  0.00  0.00    +0.000 C 
BRANCH  20  21
ATOM     21  C   UNL     1      45.417   6.780  12.350  0.00  0.00    +0.000 A 
ATOM     22  C   UNL     1      45.792   6.377  11.063  0.00  0.00    +0.000 A 
ATOM     23  C   UNL     1      45.363   5.147  10.572  0.00  0.00    +0.000 A 
ATOM     24  C   UNL     1      44.567   4.357  11.388  0.00  0.00    +0.000 A 
ATOM     25  N   UNL     1      44.161   4.722  12.638  0.00  0.00    +0.000 NA
ATOM     26  C   UNL     1      44.603   5.920  13.084  0.00  0.00    +0.000 A 
BRANCH  24  27
ATOM     27  C   UNL     1      44.135   3.004  10.910  0.00  0.00    +0.000 C 
ATOM     28  N   UNL     1      44.937   2.430   9.960  0.00  0.00    +0.000 N 
ATOM     29  O   UNL     1      43.129   2.444  11.327  0.00  0.00    +0.000 OA
ATOM     30  H   UNL     1      45.740   2.943   9.612  0.00  0.00    +0.000 HD
ATOM     31  H   UNL     1      44.676   1.544   9.557  0.00  0.00    +0.000 HD
ENDBRANCH  24  27
ENDBRANCH  20  21
ENDBRANCH   7  20
TORSDOF 8
ENDMDL
MODEL 9
REMARK VINA RESULT:    -5.944      3.462      5.459
REMARK INTER + INTRA:          -9.540
REMARK INTER:                  -8.534
REMARK INTRA:                  -1.006
REMARK UNBOUND:                -0.989
REMARK  Name = 
REMARK  12 active torsions:
REMARK  status: ('A' for Active; 'I' for Inactive)
REMARK    1  A    between atoms: C_1  and  C_2
REMARK    2  A    between atoms: C_2  and  C_3
REMARK    3  A    between atoms: C_2  and  C_4
REMARK    4  A    between atoms: C_2  and  O_5
REMARK    5  A    between atoms: O_5  and  C_6
REMARK    6  A    between atoms: C_6  and  C_7
REMARK    7  A    between atoms: C_7  and  C_8
REMARK    8  A    between atoms: C_7  and  O_9
REMARK    9  A    between atoms: C_7  and  C_10
REMARK   10  A    between atoms: N_16  and  C_17
REMARK   11  A    between atoms: C_17  and  C_18
REMARK   12  A    between atoms: C_21  and  C_22
REMARK                            x       y       z     vdW  Elec       q    Type
REMARK                         _______ _______ _______ _____ _____    ______ ____
ROOT
ATOM      1  C   UNL     1      48.666   5.367  16.112  0.00  0.00    +0.000 A 
ATOM      2  C   UNL     1      49.848   6.114  16.000  0.00  0.00    +0.000 A 
ATOM      3  N   UNL     1      50.111   7.025  15.029  0.00  0.00    +0.000 NA
ATOM      4  C   UNL     1      49.086   7.169  14.158  0.00  0.00    +0.000 A 
ATOM      5  C   UNL     1      48.957   8.023  13.040  0.00  0.00    +0.000 A 
ATOM      6  C   UNL     1      47.704   7.812  12.505  0.00  0.00    +0.000 A 
ATOM      7  N   UNL     1      47.072   6.853  13.265  0.00  0.00    +0.000 N 
ATOM      8  C   UNL     1      47.912   6.427  14.266  0.00  0.00    +0.000 A 
ATOM      9  N   UNL     1      47.655   5.486  15.203  0.00  0.00    +0.000 NA
ENDROOT
BRANCH   1  10
ATOM     10  C   UNL     1      48.527   4.301  17.210  0.00  0.00    +0.000 C 
ATOM     11  C   UNL     1      47.136   3.655  17.104  0.00  0.00    +0.000 C 
BRANCH  10  12
ATOM     12  O   UNL     1      49.495   3.237  17.117  0.00  0.00    +0.000 OA
ATOM     13  H   UNL     1      49.649   2.843  17.987  0.00  0.00    +0.000 HD
ENDBRANCH  10  12
BRANCH  10  14
ATOM     14  C   UNL     1      48.669   4.903  18.634  0.00  0.00    +0.000 C 
BRANCH  14  15
ATOM     15  O   UNL     1      47.659   5.887  18.906  0.00  0.00    +0.000 OA
BRANCH  15  17
ATOM     16  C   UNL     1      47.568   8.338  18.776  0.00  0.00    +0.000 C 
ATOM     17  C   UNL     1      48.109   7.107  19.515  0.00  0.00    +0.000 C 
ATOM     18  C   UNL     1      49.639   7.148  19.614  0.00  0.00    +0.000 C 
ATOM     19  C   UNL     1      47.529   7.108  20.937  0.00  0.00    +0.000 C 
ENDBRANCH  15  17
ENDBRANCH  14  15
ENDBRANCH  10  14
ENDBRANCH   1  10
BRANCH   7  20
ATOM     20  C   UNL     1      45.684   6.444  13.105  0.00  0.00    +0.000 C 
BRANCH  20  21
ATOM     21  C   UNL     1      45.528   5.415  12.020  0.00  0.00    +0.000 A 
ATOM     22  C   UNL     1      45.247   4.076  12.313  0.00  0.00    +0.000 A 
ATOM     23  C   UNL     1      45.065   3.165  11.276  0.00  0.00    +0.000 A 
ATOM     24  C   UNL     1      45.174   3.627   9.972  0.00  0.00    +0.000 A 
ATOM     25  N   UNL     1      45.469   4.917   9.645  0.00  0.00    +0.000 NA
ATOM     26  C   UNL     1      45.630   5.775  10.678  0.00  0.00    +0.000 A 
BRANCH  24  27
ATOM     27  C   UNL     1      44.930   2.683   8.833  0.00  0.00    +0.000 C 
ATOM     28  N   UNL     1      44.328   3.231   7.732  0.00  0.00    +0.000 N 
ATOM     29  O   UNL     1      45.233   1.498   8.879  0.00  0.00    +0.000 OA
ATOM     30  H   UNL     1      44.057   4.208   7.748  0.00  0.00    +0.000 HD
ATOM     31  H   UNL     1      44.088   2.642   6.951  0.00  0.00    +0.000 HD
ENDBRANCH  24  27
ENDBRANCH  20  21
ENDBRANCH   7  20
TORSDOF 8
ENDMDL
