MODEL 1
REMARK VINA RESULT:    -8.323      0.000      0.000
REMARK INTER + INTRA:         -10.640
REMARK INTER:                 -10.270
REMARK INTRA:                  -0.371
REMARK UNBOUND:                -0.371
REMARK  Name = 
REMARK  4 active torsions:
REMARK  status: ('A' for Active; 'I' for Inactive)
REMARK    1  A    between atoms: C_2  and  C_4
REMARK    2  A    between atoms: C_7  and  C_8
REMARK    3  A    between atoms: C_8  and  C_9
REMARK    4  A    between atoms: C_9  and  C_10
REMARK                            x       y       z     vdW  Elec       q    Type
REMARK                         _______ _______ _______ _____ _____    ______ ____
ROOT
ATOM      1  C   UNL     1      46.454   2.519   7.701  0.00  0.00    +0.000 A 
ATOM      2  C   UNL     1      46.341   3.912   7.625  0.00  0.00    +0.000 A 
ATOM      3  C   UNL     1      45.449   4.581   8.464  0.00  0.00    +0.000 A 
ATOM      4  C   UNL     1      44.645   3.869   9.365  0.00  0.00    +0.000 A 
ATOM      5  C   UNL     1      44.727   2.469   9.394  0.00  0.00    +0.000 A 
ATOM      6  C   UNL     1      45.627   1.798   8.566  0.00  0.00    +0.000 A 
ENDROOT
BRANCH   1   8
ATOM      7  N   UNL     1      48.539   2.491   6.452  0.00  0.00    +0.000 N 
ATOM      8  C   UNL     1      47.455   1.782   6.890  0.00  0.00    +0.000 C 
ATOM      9  O   UNL     1      47.348   0.582   6.670  0.00  0.00    +0.000 OA
ATOM     10  H   UNL     1      49.276   1.951   6.021  0.00  0.00    +0.000 HD
ATOM     11  H   UNL     1      48.784   3.385   6.847  0.00  0.00    +0.000 HD
ENDBRANCH   1   8
BRANCH   4  12
ATOM     12  C   UNL     1      43.809   4.603  10.384  0.00  0.00    +0.000 C 
BRANCH  12  13
ATOM     13  C   UNL     1      44.151   4.454  11.866  0.00  0.00    +0.000 C 
ATOM     14  C   UNL     1      43.523   3.317  12.661  0.00  0.00    +0.000 C 
ATOM     15  C   UNL     1      43.134   4.734  12.963  0.00  0.00    +0.000 C 
BRANCH  13  16
ATOM     16  C   UNL     1      45.584   4.908  12.217  0.00  0.00    +0.000 C 
ATOM     17  C   UNL     1      45.855   4.844  13.728  0.00  0.00    +0.000 C 
ATOM     18  C   UNL     1      47.269   5.300  14.046  0.00  0.00    +0.000 C 
ATOM     19  O   UNL     1      47.488   6.616  13.541  0.00  0.00    +0.000 OA
ATOM     20  C   UNL     1      47.338   6.688  12.122  0.00  0.00    +0.000 C 
ATOM     21  C   UNL     1      45.920   6.312  11.700  0.00  0.00    +0.000 C 
ENDBRANCH  13  16
ENDBRANCH  12  13
ENDBRANCH   4  12
TORSDOF 4
ENDMDL
MODEL 2
REMARK VINA RESULT:    -8.203      1.112      1.647
REMARK INTER + INTRA:         -10.492
REMARK INTER:                  -9.865
REMARK INTRA:                  -0.626
REMARK UNBOUND:                -0.371
REMARK  Name = 
REMARK  4 active torsions:
REMARK  status: ('A' for Active; 'I' for Inactive)
REMARK    1  A    between atoms: C_2  and  C_4
REMARK    2  A    between atoms: C_7  and  C_8
REMARK    3  A    between atoms: C_8  and  C_9
REMARK    4  A    between atoms: C_9  and  C_10
REMARK                            x       y       z     vdW  Elec       q    Type
REMARK                         _______ _______ _______ _____ _____    ______ ____
ROOT
ATOM      1  C   UNL     1      46.417   2.700   7.563  0.00  0.00    +0.000 A 
ATOM      2  C   UNL     1      45.992   3.992   7.892  0.00  0.00    +0.000 A 
ATOM      3  C   UNL     1      45.097   4.178   8.947  0.00  0.00    +0.000 A 
ATOM      4  C   UNL     1      44.599   3.081   9.664  0.00  0.00    +0.000 A 
ATOM      5  C   UNL     1      44.990   1.787   9.289  0.00  0.00    +0.000 A 
ATOM      6  C   UNL     1      45.895   1.598   8.245  0.00  0.00    +0.000 A 
ENDROOT
BRANCH   1   8
ATOM      7  N   UNL     1      47.370   3.267   5.400  0.00  0.00    +0.000 N 
ATOM      8  C   UNL     1      47.437   2.470   6.508  0.00  0.00    +0.000 C 
ATOM      9  O   UNL     1      48.331   1.645   6.647  0.00  0.00    +0.000 OA
ATOM     10  H   UNL     1      48.146   3.195   4.756  0.00  0.00    +0.000 HD
ATOM     11  H   UNL     1      46.832   4.119   5.389  0.00  0.00    +0.000 HD
ENDBRANCH   1   8
BRANCH   4  12
ATOM     12  C   UNL     1      43.769   3.295  10.905  0.00  0.00    +0.000 C 
BRANCH  12  13
ATOM     13  C   UNL     1      43.779   4.670  11.572  0.00  0.00    +0.000 C 
ATOM     14  C   UNL     1      42.453   5.358  11.870  0.00  0.00    +0.000 C 
ATOM     15  C   UNL     1      43.367   5.933  10.829  0.00  0.00    +0.000 C 
BRANCH  13  16
ATOM     16  C   UNL     1      44.962   4.877  12.542  0.00  0.00    +0.000 C 
ATOM     17  C   UNL     1      45.950   5.935  12.026  0.00  0.00    +0.000 C 
ATOM     18  C   UNL     1      47.106   6.115  12.996  0.00  0.00    +0.000 C 
ATOM     19  O   UNL     1      47.760   4.868  13.222  0.00  0.00    +0.000 OA
ATOM     20  C   UNL     1      46.889   3.891  13.793  0.00  0.00    +0.000 C 
ATOM     21  C   UNL     1      45.721   3.584  12.859  0.00  0.00    +0.000 C 
ENDBRANCH  13  16
ENDBRANCH  12  13
ENDBRANCH   4  12
TORSDOF 4
ENDMDL
MODEL 3
REMARK VINA RESULT:    -6.748      3.057      6.266
REMARK INTER + INTRA:          -8.696
REMARK INTER:                  -8.118
REMARK INTRA:                  -0.578
REMARK UNBOUND:                -0.371
REMARK  Name = 
REMARK  4 active torsions:
REMARK  status: ('A' for Active; 'I' for Inactive)
REMARK    1  A    between atoms: C_2  and  C_4
REMARK    2  A    between atoms: C_7  and  C_8
REMARK    3  A    between atoms: C_8  and  C_9
REMARK    4  A    between atoms: C_9  and  C_10
REMARK                            x       y       z     vdW  Elec       q    Type
REMARK                         _______ _______ _______ _____ _____    ______ ____
ROOT
ATOM      1  C   UNL     1      47.543   5.108  15.072  0.00  0.00    +0.000 A 
ATOM      2  C   UNL     1      47.829   6.316  14.428  0.00  0.00    +0.000 A 
ATOM      3  C   UNL     1      47.237   6.601  13.197  0.00  0.00    +0.000 A 
ATOM      4  C   UNL     1      46.377   5.677  12.586  0.00  0.00    +0.000 A 
ATOM      5  C   UNL     1      46.141   4.446  13.216  0.00  0.00    +0.000 A 
ATOM      6  C   UNL     1      46.721   4.164  14.453  0.00  0.00    +0.000 A 
ENDROOT
BRANCH   1   8
ATOM      7  N   UNL     1      47.237   4.996  17.481  0.00  0.00    +0.000 N 
ATOM      8  C   UNL     1      48.082   4.810  16.423  0.00  0.00    +0.000 C 
ATOM      9  O   UNL     1      49.211   4.362  16.582  0.00  0.00    +0.000 OA
ATOM     10  H   UNL     1      47.567   4.662  18.376  0.00  0.00    +0.000 HD
ATOM     11  H   UNL     1      46.241   5.091  17.356  0.00  0.00    +0.000 HD
ENDBRANCH   1   8
BRANCH   4  12
ATOM     12  C   UNL     1      45.610   6.056  11.345  0.00  0.00    +0.000 C 
BRANCH  12  13
ATOM     13  C   UNL     1      44.306   5.323  11.030  0.00  0.00    +0.000 C 
ATOM     14  C   UNL     1      42.980   6.034  11.265  0.00  0.00    +0.000 C 
ATOM     15  C   UNL     1      43.353   4.861  12.123  0.00  0.00    +0.000 C 
BRANCH  13  16
ATOM     16  C   UNL     1      44.424   4.334   9.850  0.00  0.00    +0.000 C 
ATOM     17  C   UNL     1      44.551   2.879  10.329  0.00  0.00    +0.000 C 
ATOM     18  C   UNL     1      44.670   1.929   9.149  0.00  0.00    +0.000 C 
ATOM     19  O   UNL     1      45.776   2.297   8.328  0.00  0.00    +0.000 OA
ATOM     20  C   UNL     1      45.640   3.613   7.788  0.00  0.00    +0.000 C 
ATOM     21  C   UNL     1      45.581   4.659   8.898  0.00  0.00    +0.000 C 
ENDBRANCH  13  16
ENDBRANCH  12  13
ENDBRANCH   4  12
TORSDOF 4
ENDMDL
MODEL 4
REMARK VINA RESULT:    -6.347      2.752      6.275
REMARK INTER + INTRA:          -8.201
REMARK INTER:                  -7.408
REMARK INTRA:                  -0.793
REMARK UNBOUND:                -0.371
REMARK  Name = 
REMARK  4 active torsions:
REMARK  status: ('A' for Active; 'I' for Inactive)
REMARK    1  A    between atoms: C_2  and  C_4
REMARK    2  A    between atoms: C_7  and  C_8
REMARK    3  A    between atoms: C_8  and  C_9
REMARK    4  A    between atoms: C_9  and  C_10
REMARK                            x       y       z     vdW  Elec       q    Type
REMARK                         _______ _______ _______ _____ _____    ______ ____
ROOT
ATOM      1  C   UNL     1      47.999   7.552  13.699  0.00  0.00    +0.000 A 
ATOM      2  C   UNL     1      47.982   6.338  13.005  0.00  0.00    +0.000 A 
ATOM      3  C   UNL     1      46.908   6.035  12.166  0.00  0.00    +0.000 A 
ATOM      4  C   UNL     1      45.832   6.923  12.033  0.00  0.00    +0.000 A 
ATOM      5  C   UNL     1      45.834   8.113  12.777  0.00  0.00    +0.000 A 
ATOM      6  C   UNL     1      46.912   8.425  13.605  0.00  0.00    +0.000 A 
ENDROOT
BRANCH   1   8
ATOM      7  N   UNL     1      50.371   7.394  14.204  0.00  0.00    +0.000 N 
ATOM      8  C   UNL     1      49.165   7.950  14.527  0.00  0.00    +0.000 C 
ATOM      9  O   UNL     1      49.066   8.780  15.422  0.00  0.00    +0.000 OA
ATOM     10  H   UNL     1      51.176   7.773  14.684  0.00  0.00    +0.000 HD
ATOM     11  H   UNL     1      50.526   6.938  13.319  0.00  0.00    +0.000 HD
ENDBRANCH   1   8
BRANCH   4  12
ATOM     12  C   UNL     1      44.760   6.673  11.003  0.00  0.00    +0.000 C 
BRANCH  12  13
ATOM     13  C   UNL     1      43.918   5.401  11.107  0.00  0.00    +0.000 C 
ATOM     14  C   UNL     1      42.527   5.480  11.722  0.00  0.00    +0.000 C 
ATOM     15  C   UNL     1      43.613   4.739  12.444  0.00  0.00    +0.000 C 
BRANCH  13  16
ATOM     16  C   UNL     1      44.171   4.398   9.961  0.00  0.00    +0.000 C 
ATOM     17  C   UNL     1      44.345   2.962  10.480  0.00  0.00    +0.000 C 
ATOM     18  C   UNL     1      44.598   1.998   9.332  0.00  0.00    +0.000 C 
ATOM     19  O   UNL     1      45.736   2.413   8.580  0.00  0.00    +0.000 OA
ATOM     20  C   UNL     1      45.566   3.708   8.003  0.00  0.00    +0.000 C 
ATOM     21  C   UNL     1      45.372   4.770   9.083  0.00  0.00    +0.000 C 
ENDBRANCH  13  16
ENDBRANCH  12  13
ENDBRANCH   4  12
TORSDOF 4
ENDMDL
MODEL 5
REMARK VINA RESULT:    -6.332      4.116      6.966
REMARK INTER + INTRA:          -8.183
REMARK INTER:                  -7.022
REMARK INTRA:                  -1.162
REMARK UNBOUND:                -0.371
REMARK  Name = 
REMARK  4 active torsions:
REMARK  status: ('A' for Active; 'I' for Inactive)
REMARK    1  A    between atoms: C_2  and  C_4
REMARK    2  A    between atoms: C_7  and  C_8
REMARK    3  A    between atoms: C_8  and  C_9
REMARK    4  A    between atoms: C_9  and  C_10
REMARK                            x       y       z     vdW  Elec       q    Type
REMARK                         _______ _______ _______ _____ _____    ______ ____
ROOT
ATOM      1  C   UNL     1      47.879   5.129  16.235  0.00  0.00    +0.000 A 
ATOM      2  C   UNL     1      48.533   6.254  15.722  0.00  0.00    +0.000 A 
ATOM      3  C   UNL     1      48.339   6.620  14.389  0.00  0.00    +0.000 A 
ATOM      4  C   UNL     1      47.516   5.855  13.551  0.00  0.00    +0.000 A 
ATOM      5  C   UNL     1      46.909   4.698  14.061  0.00  0.00    +0.000 A 
ATOM      6  C   UNL     1      47.090   4.338  15.397  0.00  0.00    +0.000 A 
ENDROOT
BRANCH   1   8
ATOM      7  N   UNL     1      46.942   5.107  18.477  0.00  0.00    +0.000 N 
ATOM      8  C   UNL     1      47.989   4.762  17.669  0.00  0.00    +0.000 C 
ATOM      9  O   UNL     1      48.944   4.129  18.101  0.00  0.00    +0.000 OA
ATOM     10  H   UNL     1      46.966   4.734  19.416  0.00  0.00    +0.000 HD
ATOM     11  H   UNL     1      46.044   5.370  18.102  0.00  0.00    +0.000 HD
ENDBRANCH   1   8
BRANCH   4  12
ATOM     12  C   UNL     1      47.175   6.344  12.165  0.00  0.00    +0.000 C 
BRANCH  12  13
ATOM     13  C   UNL     1      45.902   7.164  11.963  0.00  0.00    +0.000 C 
ATOM     14  C   UNL     1      46.019   8.649  11.644  0.00  0.00    +0.000 C 
ATOM     15  C   UNL     1      45.452   8.219  12.964  0.00  0.00    +0.000 C 
BRANCH  13  16
ATOM     16  C   UNL     1      44.739   6.358  11.346  0.00  0.00    +0.000 C 
ATOM     17  C   UNL     1      43.752   5.861  12.414  0.00  0.00    +0.000 C 
ATOM     18  C   UNL     1      42.622   5.067  11.780  0.00  0.00    +0.000 C 
ATOM     19  O   UNL     1      43.148   3.980  11.023  0.00  0.00    +0.000 OA
ATOM     20  C   UNL     1      43.995   4.415   9.958  0.00  0.00    +0.000 C 
ATOM     21  C   UNL     1      45.207   5.171  10.496  0.00  0.00    +0.000 C 
ENDBRANCH  13  16
ENDBRANCH  12  13
ENDBRANCH   4  12
TORSDOF 4
ENDMDL
MODEL 6
REMARK VINA RESULT:    -6.024      3.131      5.098
REMARK INTER + INTRA:          -7.803
REMARK INTER:                  -6.845
REMARK INTRA:                  -0.959
REMARK UNBOUND:                -0.371
REMARK  Name = 
REMARK  4 active torsions:
REMARK  status: ('A' for Active; 'I' for Inactive)
REMARK    1  A    between atoms: C_2  and  C_4
REMARK    2  A    between atoms: C_7  and  C_8
REMARK    3  A    between atoms: C_8  and  C_9
REMARK    4  A    between atoms: C_9  and  C_10
REMARK                            x       y       z     vdW  Elec       q    Type
REMARK                         _______ _______ _______ _____ _____    ______ ____
ROOT
ATOM      1  C   UNL     1      44.760   4.091  11.467  0.00  0.00    +0.000 A 
ATOM      2  C   UNL     1      45.180   4.208  12.796  0.00  0.00    +0.000 A 
ATOM      3  C   UNL     1      45.807   5.379  13.224  0.00  0.00    +0.000 A 
ATOM      4  C   UNL     1      46.045   6.430  12.328  0.00  0.00    +0.000 A 
ATOM      5  C   UNL     1      45.669   6.280  10.984  0.00  0.00    +0.000 A 
ATOM      6  C   UNL     1      45.029   5.117  10.557  0.00  0.00    +0.000 A 
ENDROOT
BRANCH   1   8
ATOM      7  N   UNL     1      44.533   2.215   9.938  0.00  0.00    +0.000 N 
ATOM      8  C   UNL     1      44.008   2.900  10.998  0.00  0.00    +0.000 C 
ATOM      9  O   UNL     1      42.996   2.512  11.568  0.00  0.00    +0.000 OA
ATOM     10  H   UNL     1      44.090   1.335   9.717  0.00  0.00    +0.000 HD
ATOM     11  H   UNL     1      45.487   2.346   9.640  0.00  0.00    +0.000 HD
ENDBRANCH   1   8
BRANCH   4  12
ATOM     12  C   UNL     1      46.567   7.754  12.827  0.00  0.00    +0.000 C 
BRANCH  12  13
ATOM     13  C   UNL     1      48.076   7.997  12.837  0.00  0.00    +0.000 C 
ATOM     14  C   UNL     1      48.700   8.831  11.726  0.00  0.00    +0.000 C 
ATOM     15  C   UNL     1      49.004   7.364  11.810  0.00  0.00    +0.000 C 
BRANCH  13  16
ATOM     16  C   UNL     1      48.679   8.072  14.256  0.00  0.00    +0.000 C 
ATOM     17  C   UNL     1      48.819   6.682  14.897  0.00  0.00    +0.000 C 
ATOM     18  C   UNL     1      49.410   6.786  16.293  0.00  0.00    +0.000 C 
ATOM     19  O   UNL     1      48.613   7.647  17.104  0.00  0.00    +0.000 OA
ATOM     20  C   UNL     1      48.544   8.975  16.584  0.00  0.00    +0.000 C 
ATOM     21  C   UNL     1      47.897   8.991  15.201  0.00  0.00    +0.000 C 
ENDBRANCH  13  16
ENDBRANCH  12  13
ENDBRANCH   4  12
TORSDOF 4
ENDMDL
MODEL 7
REMARK VINA RESULT:    -5.553      3.771      5.831
REMARK INTER + INTRA:          -7.222
REMARK INTER:                  -6.250
REMARK INTRA:                  -0.973
REMARK UNBOUND:                -0.371
REMARK  Name = 
REMARK  4 active torsions:
REMARK  status: ('A' for Active; 'I' for Inactive)
REMARK    1  A    between atoms: C_2  and  C_4
REMARK    2  A    between atoms: C_7  and  C_8
REMARK    3  A    between atoms: C_8  and  C_9
REMARK    4  A    between atoms: C_9  and  C_10
REMARK                            x       y       z     vdW  Elec       q    Type
REMARK                         _______ _______ _______ _____ _____    ______ ____
ROOT
ATOM      1  C   UNL     1      45.057   4.648  12.015  0.00  0.00    +0.000 A 
ATOM      2  C   UNL     1      45.228   5.732  11.148  0.00  0.00    +0.000 A 
ATOM      3  C   UNL     1      46.329   6.576  11.304  0.00  0.00    +0.000 A 
ATOM      4  C   UNL     1      47.251   6.364  12.338  0.00  0.00    +0.000 A 
ATOM      5  C   UNL     1      47.039   5.306  13.235  0.00  0.00    +0.000 A 
ATOM      6  C   UNL     1      45.947   4.452  13.073  0.00  0.00    +0.000 A 
ENDROOT
BRANCH   1   8
ATOM      7  N   UNL     1      44.012   2.519  12.548  0.00  0.00    +0.000 N 
ATOM      8  C   UNL     1      43.950   3.676  11.825  0.00  0.00    +0.000 C 
ATOM      9  O   UNL     1      42.995   3.922  11.098  0.00  0.00    +0.000 OA
ATOM     10  H   UNL     1      43.191   1.931  12.514  0.00  0.00    +0.000 HD
ATOM     11  H   UNL     1      44.625   2.420  13.342  0.00  0.00    +0.000 HD
ENDBRANCH   1   8
BRANCH   4  12
ATOM     12  C   UNL     1      48.523   7.170  12.401  0.00  0.00    +0.000 C 
BRANCH  12  13
ATOM     13  C   UNL     1      48.583   8.385  13.327  0.00  0.00    +0.000 C 
ATOM     14  C   UNL     1      49.331   8.273  14.649  0.00  0.00    +0.000 C 
ATOM     15  C   UNL     1      47.839   8.428  14.655  0.00  0.00    +0.000 C 
BRANCH  13  16
ATOM     16  C   UNL     1      48.592   9.733  12.576  0.00  0.00    +0.000 C 
ATOM     17  C   UNL     1      47.182  10.156  12.134  0.00  0.00    +0.000 C 
ATOM     18  C   UNL     1      47.220  11.482  11.394  0.00  0.00    +0.000 C 
ATOM     19  O   UNL     1      48.104  11.399  10.278  0.00  0.00    +0.000 OA
ATOM     20  C   UNL     1      49.446  11.103  10.666  0.00  0.00    +0.000 C 
ATOM     21  C   UNL     1      49.530   9.747  11.363  0.00  0.00    +0.000 C 
ENDBRANCH  13  16
ENDBRANCH  12  13
ENDBRANCH   4  12
TORSDOF 4
ENDMDL
MODEL 8
REMARK VINA RESULT:    -5.339      4.410      6.294
REMARK INTER + INTRA:          -6.958
REMARK INTER:                  -6.003
REMARK INTRA:                  -0.955
REMARK UNBOUND:                -0.371
REMARK  Name = 
REMARK  4 active torsions:
REMARK  status: ('A' for Active; 'I' for Inactive)
REMARK    1  A    between atoms: C_2  and  C_4
REMARK    2  A    between atoms: C_7  and  C_8
REMARK    3  A    between atoms: C_8  and  C_9
REMARK    4  A    between atoms: C_9  and  C_10
REMARK                            x       y       z     vdW  Elec       q    Type
REMARK                         _______ _______ _______ _____ _____    ______ ____
ROOT
ATOM      1  C   UNL     1      44.522   5.996  11.967  0.00  0.00    +0.000 A 
ATOM      2  C   UNL     1      44.972   5.373  13.137  0.00  0.00    +0.000 A 
ATOM      3  C   UNL     1      46.310   5.492  13.513  0.00  0.00    +0.000 A 
ATOM      4  C   UNL     1      47.216   6.207  12.718  0.00  0.00    +0.000 A 
ATOM      5  C   UNL     1      46.766   6.781  11.520  0.00  0.00    +0.000 A 
ATOM      6  C   UNL     1      45.426   6.676  11.147  0.00  0.00    +0.000 A 
ENDROOT
BRANCH   1   8
ATOM      7  N   UNL     1      42.545   7.143  11.143  0.00  0.00    +0.000 N 
ATOM      8  C   UNL     1      43.089   5.969  11.582  0.00  0.00    +0.000 C 
ATOM      9  O   UNL     1      42.436   4.933  11.602  0.00  0.00    +0.000 OA
ATOM     10  H   UNL     1      41.613   7.082  10.757  0.00  0.00    +0.000 HD
ATOM     11  H   UNL     1      43.118   7.921  10.858  0.00  0.00    +0.000 HD
ENDBRANCH   1   8
BRANCH   4  12
ATOM     12  C   UNL     1      48.616   6.475  13.210  0.00  0.00    +0.000 C 
BRANCH  12  13
ATOM     13  C   UNL     1      48.940   7.844  13.808  0.00  0.00    +0.000 C 
ATOM     14  C   UNL     1      48.871   8.029  15.318  0.00  0.00    +0.000 C 
ATOM     15  C   UNL     1      47.871   8.724  14.441  0.00  0.00    +0.000 C 
BRANCH  13  16
ATOM     16  C   UNL     1      49.999   8.632  13.007  0.00  0.00    +0.000 C 
ATOM     17  C   UNL     1      49.523  10.053  12.667  0.00  0.00    +0.000 C 
ATOM     18  C   UNL     1      50.582  10.804  11.875  0.00  0.00    +0.000 C 
ATOM     19  O   UNL     1      50.920  10.079  10.694  0.00  0.00    +0.000 OA
ATOM     20  C   UNL     1      51.457   8.787  10.982  0.00  0.00    +0.000 C 
ATOM     21  C   UNL     1      50.440   7.922  11.722  0.00  0.00    +0.000 C 
ENDBRANCH  13  16
ENDBRANCH  12  13
ENDBRANCH   4  12
TORSDOF 4
ENDMDL
