MODEL 1
REMARK VINA RESULT:    -7.249      0.000      0.000
REMARK INTER + INTRA:         -10.609
REMARK INTER:                  -9.580
REMARK INTRA:                  -1.029
REMARK UNBOUND:                -1.029
REMARK  Name = 
REMARK  6 active torsions:
REMARK  status: ('A' for Active; 'I' for Inactive)
REMARK    1  A    between atoms: C_2  and  C_18
REMARK    2  A    between atoms: N_3  and  C_4
REMARK    3  A    between atoms: C_4  and  C_5
REMARK    4  A    between atoms: C_8  and  C_9
REMARK    5  A    between atoms: C_9  and  C_10
REMARK    6  A    between atoms: C_13  and  O_14
REMARK                            x       y       z     vdW  Elec       q    Type
REMARK                         _______ _______ _______ _____ _____    ______ ____
ROOT
ATOM      1  O   UNL     1      49.599   6.718  14.678  0.00  0.00    +0.000 OA
ATOM      2  C   UNL     1      48.465   6.313  14.914  0.00  0.00    +0.000 C 
ATOM      3  N   UNL     1      48.048   5.965  16.171  0.00  0.00    +0.000 N 
ATOM      4  H   UNL     1      47.178   5.455  16.281  0.00  0.00    +0.000 HD
ENDROOT
BRANCH   2   5
ATOM      5  C   UNL     1      47.446   6.233  13.860  0.00  0.00    +0.000 A 
ATOM      6  C   UNL     1      47.053   7.382  13.188  0.00  0.00    +0.000 A 
ATOM      7  S   UNL     1      45.856   7.104  12.005  0.00  0.00    +0.000 S 
ATOM      8  C   UNL     1      45.852   5.432  12.323  0.00  0.00    +0.000 A 
ATOM      9  N   UNL     1      45.054   4.587  11.614  0.00  0.00    +0.000 NA
ATOM     10  C   UNL     1      45.179   3.342  11.936  0.00  0.00    +0.000 A 
ATOM     11  N   UNL     1      46.018   2.866  12.910  0.00  0.00    +0.000 N 
ATOM     12  C   UNL     1      46.785   3.689  13.700  0.00  0.00    +0.000 A 
ATOM     13  O   UNL     1      47.413   3.241  14.649  0.00  0.00    +0.000 OA
ATOM     14  C   UNL     1      46.724   5.095  13.342  0.00  0.00    +0.000 A 
ATOM     15  H   UNL     1      46.043   1.884  13.139  0.00  0.00    +0.000 HD
ENDBRANCH   2   5
BRANCH   3  16
ATOM     16  C   UNL     1      48.925   5.954  17.311  0.00  0.00    +0.000 C 
BRANCH  16  17
ATOM     17  C   UNL     1      49.727   4.682  17.381  0.00  0.00    +0.000 A 
ATOM     18  C   UNL     1      49.074   3.444  17.346  0.00  0.00    +0.000 A 
ATOM     19  C   UNL     1      49.802   2.254  17.378  0.00  0.00    +0.000 A 
ATOM     20  C   UNL     1      51.199   2.278  17.450  0.00  0.00    +0.000 A 
ATOM     21  C   UNL     1      51.850   3.517  17.534  0.00  0.00    +0.000 A 
ATOM     22  C   UNL     1      51.121   4.709  17.506  0.00  0.00    +0.000 A 
BRANCH  20  23
ATOM     23  C   UNL     1      51.995   0.995  17.464  0.00  0.00    +0.000 C 
BRANCH  23  24
ATOM     24  C   UNL     1      53.523   1.187  17.367  0.00  0.00    +0.000 C 
ATOM     25  C   UNL     1      54.231   1.210  18.737  0.00  0.00    +0.000 C 
ATOM     26  C   UNL     1      55.329   0.149  18.674  0.00  0.00    +0.000 C 
ATOM     27  C   UNL     1      54.828  -0.852  17.647  0.00  0.00    +0.000 C 
ATOM     28  C   UNL     1      54.181   0.032  16.589  0.00  0.00    +0.000 C 
BRANCH  27  29
ATOM     29  O   UNL     1      53.872  -1.740  18.210  0.00  0.00    +0.000 OA
ATOM     30  H   UNL     1      53.258  -1.233  18.765  0.00  0.00    +0.000 HD
ENDBRANCH  27  29
ENDBRANCH  23  24
ENDBRANCH  20  23
ENDBRANCH  16  17
ENDBRANCH   3  16
TORSDOF 6
ENDMDL
MODEL 2
REMARK VINA RESULT:    -6.956      2.209      3.069
REMARK INTER + INTRA:         -10.222
REMARK INTER:                  -9.346
REMARK INTRA:                  -0.877
REMARK UNBOUND:                -1.029
REMARK  Name = 
REMARK  6 active torsions:
REMARK  status: ('A' for Active; 'I' for Inactive)
REMARK    1  A    between atoms: C_2  and  C_18
REMARK    2  A    between atoms: N_3  and  C_4
REMARK    3  A    between atoms: C_4  and  C_5
REMARK    4  A    between atoms: C_8  and  C_9
REMARK    5  A    between atoms: C_9  and  C_10
REMARK    6  A    between atoms: C_13  and  O_14
REMARK                            x       y       z     vdW  Elec       q    Type
REMARK                         _______ _______ _______ _____ _____    ______ ____
ROOT
ATOM      1  O   UNL     1      47.303   3.142  14.031  0.00  0.00    +0.000 OA
ATOM      2  C   UNL     1      46.840   4.180  14.496  0.00  0.00    +0.000 C 
ATOM      3  N   UNL     1      46.787   4.432  15.840  0.00  0.00    +0.000 N 
ATOM      4  H   UNL     1      46.222   5.204  16.178  0.00  0.00    +0.000 HD
ENDROOT
BRANCH   2   5
ATOM      5  C   UNL     1      46.360   5.260  13.625  0.00  0.00    +0.000 A 
ATOM      6  C   UNL     1      47.172   6.358  13.373  0.00  0.00    +0.000 A 
ATOM      7  S   UNL     1      46.451   7.518  12.351  0.00  0.00    +0.000 S 
ATOM      8  C   UNL     1      45.046   6.573  12.178  0.00  0.00    +0.000 A 
ATOM      9  N   UNL     1      44.018   6.986  11.386  0.00  0.00    +0.000 NA
ATOM     10  C   UNL     1      43.031   6.154  11.320  0.00  0.00    +0.000 A 
ATOM     11  N   UNL     1      42.971   4.957  11.982  0.00  0.00    +0.000 N 
ATOM     12  C   UNL     1      43.950   4.536  12.851  0.00  0.00    +0.000 A 
ATOM     13  O   UNL     1      43.797   3.530  13.530  0.00  0.00    +0.000 OA
ATOM     14  C   UNL     1      45.110   5.407  12.919  0.00  0.00    +0.000 A 
ATOM     15  H   UNL     1      42.155   4.368  11.917  0.00  0.00    +0.000 HD
ENDBRANCH   2   5
BRANCH   3  16
ATOM     16  C   UNL     1      47.185   3.470  16.833  0.00  0.00    +0.000 C 
BRANCH  16  17
ATOM     17  C   UNL     1      48.670   3.505  17.074  0.00  0.00    +0.000 A 
ATOM     18  C   UNL     1      49.309   4.728  17.306  0.00  0.00    +0.000 A 
ATOM     19  C   UNL     1      50.680   4.778  17.563  0.00  0.00    +0.000 A 
ATOM     20  C   UNL     1      51.441   3.604  17.588  0.00  0.00    +0.000 A 
ATOM     21  C   UNL     1      50.810   2.384  17.307  0.00  0.00    +0.000 A 
ATOM     22  C   UNL     1      49.438   2.335  17.047  0.00  0.00    +0.000 A 
BRANCH  20  23
ATOM     23  C   UNL     1      52.921   3.647  17.885  0.00  0.00    +0.000 C 
BRANCH  23  24
ATOM     24  C   UNL     1      53.364   2.756  19.064  0.00  0.00    +0.000 C 
ATOM     25  C   UNL     1      54.682   1.998  18.805  0.00  0.00    +0.000 C 
ATOM     26  C   UNL     1      55.613   2.339  19.969  0.00  0.00    +0.000 C 
ATOM     27  C   UNL     1      55.134   3.700  20.448  0.00  0.00    +0.000 C 
ATOM     28  C   UNL     1      53.620   3.597  20.331  0.00  0.00    +0.000 C 
BRANCH  27  29
ATOM     29  O   UNL     1      55.629   4.745  19.622  0.00  0.00    +0.000 OA
ATOM     30  H   UNL     1      55.998   4.359  18.811  0.00  0.00    +0.000 HD
ENDBRANCH  27  29
ENDBRANCH  23  24
ENDBRANCH  20  23
ENDBRANCH  16  17
ENDBRANCH   3  16
TORSDOF 6
ENDMDL
MODEL 3
REMARK VINA RESULT:    -6.762      3.624      8.664
REMARK INTER + INTRA:          -9.966
REMARK INTER:                  -8.791
REMARK INTRA:                  -1.175
REMARK UNBOUND:                -1.029
REMARK  Name = 
REMARK  6 active torsions:
REMARK  status: ('A' for Active; 'I' for Inactive)
REMARK    1  A    between atoms: C_2  and  C_18
REMARK    2  A    between atoms: N_3  and  C_4
REMARK    3  A    between atoms: C_4  and  C_5
REMARK    4  A    between atoms: C_8  and  C_9
REMARK    5  A    between atoms: C_9  and  C_10
REMARK    6  A    between atoms: C_13  and  O_14
REMARK                            x       y       z     vdW  Elec       q    Type
REMARK                         _______ _______ _______ _____ _____    ______ ____
ROOT
ATOM      1  O   UNL     1      51.806   6.192  16.483  0.00  0.00    +0.000 OA
ATOM      2  C   UNL     1      51.461   5.354  17.311  0.00  0.00    +0.000 C 
ATOM      3  N   UNL     1      50.191   5.292  17.820  0.00  0.00    +0.000 N 
ATOM      4  H   UNL     1      50.012   4.718  18.637  0.00  0.00    +0.000 HD
ENDROOT
BRANCH   2   5
ATOM      5  C   UNL     1      52.383   4.308  17.771  0.00  0.00    +0.000 A 
ATOM      6  C   UNL     1      53.611   4.659  18.316  0.00  0.00    +0.000 A 
ATOM      7  S   UNL     1      54.556   3.319  18.786  0.00  0.00    +0.000 S 
ATOM      8  C   UNL     1      53.339   2.226  18.315  0.00  0.00    +0.000 A 
ATOM      9  N   UNL     1      53.500   0.884  18.483  0.00  0.00    +0.000 NA
ATOM     10  C   UNL     1      52.483   0.176  18.115  0.00  0.00    +0.000 A 
ATOM     11  N   UNL     1      51.328   0.685  17.583  0.00  0.00    +0.000 N 
ATOM     12  C   UNL     1      51.152   2.024  17.325  0.00  0.00    +0.000 A 
ATOM     13  O   UNL     1      50.165   2.423  16.722  0.00  0.00    +0.000 OA
ATOM     14  C   UNL     1      52.243   2.871  17.773  0.00  0.00    +0.000 A 
ATOM     15  H   UNL     1      50.583   0.075  17.281  0.00  0.00    +0.000 HD
ENDBRANCH   2   5
BRANCH   3  16
ATOM     16  C   UNL     1      49.173   6.257  17.501  0.00  0.00    +0.000 C 
BRANCH  16  17
ATOM     17  C   UNL     1      48.402   5.862  16.271  0.00  0.00    +0.000 A 
ATOM     18  C   UNL     1      48.459   6.665  15.126  0.00  0.00    +0.000 A 
ATOM     19  C   UNL     1      47.776   6.299  13.965  0.00  0.00    +0.000 A 
ATOM     20  C   UNL     1      47.017   5.125  13.928  0.00  0.00    +0.000 A 
ATOM     21  C   UNL     1      46.921   4.346  15.090  0.00  0.00    +0.000 A 
ATOM     22  C   UNL     1      47.602   4.714  16.253  0.00  0.00    +0.000 A 
BRANCH  20  23
ATOM     23  C   UNL     1      46.293   4.711  12.670  0.00  0.00    +0.000 C 
BRANCH  23  24
ATOM     24  C   UNL     1      44.811   4.334  12.877  0.00  0.00    +0.000 C 
ATOM     25  C   UNL     1      43.868   5.552  12.947  0.00  0.00    +0.000 C 
ATOM     26  C   UNL     1      42.780   5.319  11.898  0.00  0.00    +0.000 C 
ATOM     27  C   UNL     1      43.443   4.425  10.862  0.00  0.00    +0.000 C 
ATOM     28  C   UNL     1      44.285   3.479  11.707  0.00  0.00    +0.000 C 
BRANCH  27  29
ATOM     29  O   UNL     1      44.266   5.175   9.979  0.00  0.00    +0.000 OA
ATOM     30  H   UNL     1      43.939   6.089   9.942  0.00  0.00    +0.000 HD
ENDBRANCH  27  29
ENDBRANCH  23  24
ENDBRANCH  20  23
ENDBRANCH  16  17
ENDBRANCH   3  16
TORSDOF 6
ENDMDL
MODEL 4
REMARK VINA RESULT:    -6.529      6.851      7.623
REMARK INTER + INTRA:          -9.657
REMARK INTER:                  -8.659
REMARK INTRA:                  -0.998
REMARK UNBOUND:                -1.029
REMARK  Name = 
REMARK  6 active torsions:
REMARK  status: ('A' for Active; 'I' for Inactive)
REMARK    1  A    between atoms: C_2  and  C_18
REMARK    2  A    between atoms: N_3  and  C_4
REMARK    3  A    between atoms: C_4  and  C_5
REMARK    4  A    between atoms: C_8  and  C_9
REMARK    5  A    between atoms: C_9  and  C_10
REMARK    6  A    between atoms: C_13  and  O_14
REMARK                            x       y       z     vdW  Elec       q    Type
REMARK                         _______ _______ _______ _____ _____    ______ ____
ROOT
ATOM      1  O   UNL     1      44.446   7.571  11.116  0.00  0.00    +0.000 OA
ATOM      2  C   UNL     1      44.942   6.650  11.757  0.00  0.00    +0.000 C 
ATOM      3  N   UNL     1      45.856   6.850  12.757  0.00  0.00    +0.000 N 
ATOM      4  H   UNL     1      46.378   6.058  13.116  0.00  0.00    +0.000 HD
ENDROOT
BRANCH   2   5
ATOM      5  C   UNL     1      44.537   5.256  11.533  0.00  0.00    +0.000 A 
ATOM      6  C   UNL     1      43.803   4.584  12.501  0.00  0.00    +0.000 A 
ATOM      7  S   UNL     1      43.430   2.975  12.077  0.00  0.00    +0.000 S 
ATOM      8  C   UNL     1      44.201   3.135  10.568  0.00  0.00    +0.000 A 
ATOM      9  N   UNL     1      44.219   2.105   9.678  0.00  0.00    +0.000 NA
ATOM     10  C   UNL     1      44.808   2.377   8.560  0.00  0.00    +0.000 A 
ATOM     11  N   UNL     1      45.392   3.579   8.257  0.00  0.00    +0.000 N 
ATOM     12  C   UNL     1      45.465   4.619   9.152  0.00  0.00    +0.000 A 
ATOM     13  O   UNL     1      46.115   5.624   8.897  0.00  0.00    +0.000 OA
ATOM     14  C   UNL     1      44.768   4.386  10.405  0.00  0.00    +0.000 A 
ATOM     15  H   UNL     1      45.868   3.717   7.379  0.00  0.00    +0.000 HD
ENDBRANCH   2   5
BRANCH   3  16
ATOM     16  C   UNL     1      46.385   8.146  13.086  0.00  0.00    +0.000 C 
BRANCH  16  17
ATOM     17  C   UNL     1      47.762   8.343  12.513  0.00  0.00    +0.000 A 
ATOM     18  C   UNL     1      48.625   7.248  12.380  0.00  0.00    +0.000 A 
ATOM     19  C   UNL     1      49.894   7.405  11.822  0.00  0.00    +0.000 A 
ATOM     20  C   UNL     1      50.330   8.662  11.390  0.00  0.00    +0.000 A 
ATOM     21  C   UNL     1      49.485   9.768  11.567  0.00  0.00    +0.000 A 
ATOM     22  C   UNL     1      48.215   9.611  12.129  0.00  0.00    +0.000 A 
BRANCH  20  23
ATOM     23  C   UNL     1      51.693   8.837  10.766  0.00  0.00    +0.000 C 
BRANCH  23  24
ATOM     24  C   UNL     1      52.433   7.518  10.460  0.00  0.00    +0.000 C 
ATOM     25  C   UNL     1      52.420   7.134   8.967  0.00  0.00    +0.000 C 
ATOM     26  C   UNL     1      53.879   6.922   8.562  0.00  0.00    +0.000 C 
ATOM     27  C   UNL     1      54.667   7.792   9.527  0.00  0.00    +0.000 C 
ATOM     28  C   UNL     1      53.922   7.614  10.843  0.00  0.00    +0.000 C 
BRANCH  27  29
ATOM     29  O   UNL     1      54.655   9.156   9.127  0.00  0.00    +0.000 OA
ATOM     30  H   UNL     1      54.759   9.717   9.912  0.00  0.00    +0.000 HD
ENDBRANCH  27  29
ENDBRANCH  23  24
ENDBRANCH  20  23
ENDBRANCH  16  17
ENDBRANCH   3  16
TORSDOF 6
ENDMDL
MODEL 5
REMARK VINA RESULT:    -6.507      4.348      5.527
REMARK INTER + INTRA:          -9.628
REMARK INTER:                  -8.606
REMARK INTRA:                  -1.022
REMARK UNBOUND:                -1.029
REMARK  Name = 
REMARK  6 active torsions:
REMARK  status: ('A' for Active; 'I' for Inactive)
REMARK    1  A    between atoms: C_2  and  C_18
REMARK    2  A    between atoms: N_3  and  C_4
REMARK    3  A    between atoms: C_4  and  C_5
REMARK    4  A    between atoms: C_8  and  C_9
REMARK    5  A    between atoms: C_9  and  C_10
REMARK    6  A    between atoms: C_13  and  O_14
REMARK                            x       y       z     vdW  Elec       q    Type
REMARK                         _______ _______ _______ _____ _____    ______ ____
ROOT
ATOM      1  O   UNL     1      45.799   7.847  11.743  0.00  0.00    +0.000 OA
ATOM      2  C   UNL     1      46.353   6.763  11.583  0.00  0.00    +0.000 C 
ATOM      3  N   UNL     1      47.591   6.481  12.095  0.00  0.00    +0.000 N 
ATOM      4  H   UNL     1      48.084   5.655  11.771  0.00  0.00    +0.000 HD
ENDROOT
BRANCH   2   5
ATOM      5  C   UNL     1      45.689   5.662  10.874  0.00  0.00    +0.000 A 
ATOM      6  C   UNL     1      45.848   5.527   9.502  0.00  0.00    +0.000 A 
ATOM      7  S   UNL     1      44.999   4.200   8.846  0.00  0.00    +0.000 S 
ATOM      8  C   UNL     1      44.425   3.738  10.380  0.00  0.00    +0.000 A 
ATOM      9  N   UNL     1      43.646   2.631  10.532  0.00  0.00    +0.000 NA
ATOM     10  C   UNL     1      43.312   2.380  11.754  0.00  0.00    +0.000 A 
ATOM     11  N   UNL     1      43.673   3.139  12.836  0.00  0.00    +0.000 N 
ATOM     12  C   UNL     1      44.394   4.304  12.721  0.00  0.00    +0.000 A 
ATOM     13  O   UNL     1      44.577   5.027  13.691  0.00  0.00    +0.000 OA
ATOM     14  C   UNL     1      44.843   4.604  11.374  0.00  0.00    +0.000 A 
ATOM     15  H   UNL     1      43.349   2.909  13.763  0.00  0.00    +0.000 HD
ENDBRANCH   2   5
BRANCH   3  16
ATOM     16  C   UNL     1      48.393   7.454  12.786  0.00  0.00    +0.000 C 
BRANCH  16  17
ATOM     17  C   UNL     1      48.787   6.974  14.157  0.00  0.00    +0.000 A 
ATOM     18  C   UNL     1      47.978   6.052  14.831  0.00  0.00    +0.000 A 
ATOM     19  C   UNL     1      48.343   5.570  16.089  0.00  0.00    +0.000 A 
ATOM     20  C   UNL     1      49.523   6.005  16.701  0.00  0.00    +0.000 A 
ATOM     21  C   UNL     1      50.309   6.965  16.047  0.00  0.00    +0.000 A 
ATOM     22  C   UNL     1      49.942   7.450  14.789  0.00  0.00    +0.000 A 
BRANCH  20  23
ATOM     23  C   UNL     1      49.936   5.473  18.052  0.00  0.00    +0.000 C 
BRANCH  23  24
ATOM     24  C   UNL     1      49.543   6.372  19.243  0.00  0.00    +0.000 C 
ATOM     25  C   UNL     1      48.655   7.569  18.848  0.00  0.00    +0.000 C 
ATOM     26  C   UNL     1      47.413   7.498  19.735  0.00  0.00    +0.000 C 
ATOM     27  C   UNL     1      47.282   6.024  20.082  0.00  0.00    +0.000 C 
ATOM     28  C   UNL     1      48.726   5.586  20.286  0.00  0.00    +0.000 C 
BRANCH  27  29
ATOM     29  O   UNL     1      46.682   5.292  19.022  0.00  0.00    +0.000 OA
ATOM     30  H   UNL     1      46.787   4.342  19.195  0.00  0.00    +0.000 HD
ENDBRANCH  27  29
ENDBRANCH  23  24
ENDBRANCH  20  23
ENDBRANCH  16  17
ENDBRANCH   3  16
TORSDOF 6
ENDMDL
MODEL 6
REMARK VINA RESULT:    -6.469      4.711      8.735
REMARK INTER + INTRA:          -9.578
REMARK INTER:                  -8.359
REMARK INTRA:                  -1.219
REMARK UNBOUND:                -1.029
REMARK  Name = 
REMARK  6 active torsions:
REMARK  status: ('A' for Active; 'I' for Inactive)
REMARK    1  A    between atoms: C_2  and  C_18
REMARK    2  A    between atoms: N_3  and  C_4
REMARK    3  A    between atoms: C_4  and  C_5
REMARK    4  A    between atoms: C_8  and  C_9
REMARK    5  A    between atoms: C_9  and  C_10
REMARK    6  A    between atoms: C_13  and  O_14
REMARK                            x       y       z     vdW  Elec       q    Type
REMARK                         _______ _______ _______ _____ _____    ______ ____
ROOT
ATOM      1  O   UNL     1      50.464   8.910  15.944  0.00  0.00    +0.000 OA
ATOM      2  C   UNL     1      49.451   8.472  16.481  0.00  0.00    +0.000 C 
ATOM      3  N   UNL     1      48.203   8.612  15.936  0.00  0.00    +0.000 N 
ATOM      4  H   UNL     1      47.388   8.411  16.506  0.00  0.00    +0.000 HD
ENDROOT
BRANCH   2   5
ATOM      5  C   UNL     1      49.519   7.704  17.730  0.00  0.00    +0.000 A 
ATOM      6  C   UNL     1      49.953   8.318  18.897  0.00  0.00    +0.000 A 
ATOM      7  S   UNL     1      49.978   7.275  20.247  0.00  0.00    +0.000 S 
ATOM      8  C   UNL     1      49.372   5.979  19.326  0.00  0.00    +0.000 A 
ATOM      9  N   UNL     1      49.123   4.769  19.899  0.00  0.00    +0.000 NA
ATOM     10  C   UNL     1      48.632   3.888  19.091  0.00  0.00    +0.000 A 
ATOM     11  N   UNL     1      48.380   4.101  17.761  0.00  0.00    +0.000 N 
ATOM     12  C   UNL     1      48.685   5.281  17.125  0.00  0.00    +0.000 A 
ATOM     13  O   UNL     1      48.576   5.386  15.910  0.00  0.00    +0.000 OA
ATOM     14  C   UNL     1      49.187   6.325  18.000  0.00  0.00    +0.000 A 
ATOM     15  H   UNL     1      48.029   3.360  17.174  0.00  0.00    +0.000 HD
ENDBRANCH   2   5
BRANCH   3  16
ATOM     16  C   UNL     1      47.953   9.362  14.734  0.00  0.00    +0.000 C 
BRANCH  16  17
ATOM     17  C   UNL     1      47.353   8.498  13.657  0.00  0.00    +0.000 A 
ATOM     18  C   UNL     1      48.082   7.417  13.145  0.00  0.00    +0.000 A 
ATOM     19  C   UNL     1      47.531   6.586  12.169  0.00  0.00    +0.000 A 
ATOM     20  C   UNL     1      46.241   6.822  11.681  0.00  0.00    +0.000 A 
ATOM     21  C   UNL     1      45.530   7.933  12.158  0.00  0.00    +0.000 A 
ATOM     22  C   UNL     1      46.084   8.767  13.133  0.00  0.00    +0.000 A 
BRANCH  20  23
ATOM     23  C   UNL     1      45.630   5.915  10.640  0.00  0.00    +0.000 C 
BRANCH  23  24
ATOM     24  C   UNL     1      44.824   4.731  11.214  0.00  0.00    +0.000 C 
ATOM     25  C   UNL     1      44.575   4.831  12.732  0.00  0.00    +0.000 C 
ATOM     26  C   UNL     1      43.064   4.705  12.932  0.00  0.00    +0.000 C 
ATOM     27  C   UNL     1      42.469   5.203  11.626  0.00  0.00    +0.000 C 
ATOM     28  C   UNL     1      43.424   4.650  10.576  0.00  0.00    +0.000 C 
BRANCH  27  29
ATOM     29  O   UNL     1      42.439   6.623  11.576  0.00  0.00    +0.000 OA
ATOM     30  H   UNL     1      42.657   6.912  10.675  0.00  0.00    +0.000 HD
ENDBRANCH  27  29
ENDBRANCH  23  24
ENDBRANCH  20  23
ENDBRANCH  16  17
ENDBRANCH   3  16
TORSDOF 6
ENDMDL
MODEL 7
REMARK VINA RESULT:    -6.446      3.536      8.285
REMARK INTER + INTRA:          -9.548
REMARK INTER:                  -8.493
REMARK INTRA:                  -1.054
REMARK UNBOUND:                -1.029
REMARK  Name = 
REMARK  6 active torsions:
REMARK  status: ('A' for Active; 'I' for Inactive)
REMARK    1  A    between atoms: C_2  and  C_18
REMARK    2  A    between atoms: N_3  and  C_4
REMARK    3  A    between atoms: C_4  and  C_5
REMARK    4  A    between atoms: C_8  and  C_9
REMARK    5  A    between atoms: C_9  and  C_10
REMARK    6  A    between atoms: C_13  and  O_14
REMARK                            x       y       z     vdW  Elec       q    Type
REMARK                         _______ _______ _______ _____ _____    ______ ____
ROOT
ATOM      1  O   UNL     1      48.667   6.588  17.997  0.00  0.00    +0.000 OA
ATOM      2  C   UNL     1      49.609   6.418  17.229  0.00  0.00    +0.000 C 
ATOM      3  N   UNL     1      49.757   7.130  16.068  0.00  0.00    +0.000 N 
ATOM      4  H   UNL     1      50.432   6.818  15.379  0.00  0.00    +0.000 HD
ENDROOT
BRANCH   2   5
ATOM      5  C   UNL     1      50.687   5.471  17.537  0.00  0.00    +0.000 A 
ATOM      6  C   UNL     1      51.885   5.934  18.065  0.00  0.00    +0.000 A 
ATOM      7  S   UNL     1      53.025   4.697  18.352  0.00  0.00    +0.000 S 
ATOM      8  C   UNL     1      51.942   3.498  17.818  0.00  0.00    +0.000 A 
ATOM      9  N   UNL     1      52.290   2.182  17.836  0.00  0.00    +0.000 NA
ATOM     10  C   UNL     1      51.359   1.380  17.437  0.00  0.00    +0.000 A 
ATOM     11  N   UNL     1      50.118   1.773  17.009  0.00  0.00    +0.000 N 
ATOM     12  C   UNL     1      49.750   3.093  16.903  0.00  0.00    +0.000 A 
ATOM     13  O   UNL     1      48.688   3.410  16.385  0.00  0.00    +0.000 OA
ATOM     14  C   UNL     1      50.741   4.035  17.392  0.00  0.00    +0.000 A 
ATOM     15  H   UNL     1      49.446   1.099  16.675  0.00  0.00    +0.000 HD
ENDBRANCH   2   5
BRANCH   3  16
ATOM     16  C   UNL     1      48.778   8.074  15.599  0.00  0.00    +0.000 C 
BRANCH  16  17
ATOM     17  C   UNL     1      48.035   7.551  14.399  0.00  0.00    +0.000 A 
ATOM     18  C   UNL     1      48.225   6.227  13.985  0.00  0.00    +0.000 A 
ATOM     19  C   UNL     1      47.522   5.714  12.894  0.00  0.00    +0.000 A 
ATOM     20  C   UNL     1      46.617   6.517  12.191  0.00  0.00    +0.000 A 
ATOM     21  C   UNL     1      46.463   7.857  12.576  0.00  0.00    +0.000 A 
ATOM     22  C   UNL     1      47.170   8.371  13.666  0.00  0.00    +0.000 A 
BRANCH  20  23
ATOM     23  C   UNL     1      45.837   5.964  11.023  0.00  0.00    +0.000 C 
BRANCH  23  24
ATOM     24  C   UNL     1      44.384   5.565  11.353  0.00  0.00    +0.000 C 
ATOM     25  C   UNL     1      43.827   4.451  10.444  0.00  0.00    +0.000 C 
ATOM     26  C   UNL     1      43.321   3.347  11.372  0.00  0.00    +0.000 C 
ATOM     27  C   UNL     1      44.156   3.503  12.632  0.00  0.00    +0.000 C 
ATOM     28  C   UNL     1      44.270   5.013  12.788  0.00  0.00    +0.000 C 
BRANCH  27  29
ATOM     29  O   UNL     1      45.442   2.917  12.480  0.00  0.00    +0.000 OA
ATOM     30  H   UNL     1      45.957   3.445  11.848  0.00  0.00    +0.000 HD
ENDBRANCH  27  29
ENDBRANCH  23  24
ENDBRANCH  20  23
ENDBRANCH  16  17
ENDBRANCH   3  16
TORSDOF 6
ENDMDL
MODEL 8
REMARK VINA RESULT:    -6.376      5.150      6.266
REMARK INTER + INTRA:          -9.455
REMARK INTER:                  -8.329
REMARK INTRA:                  -1.126
REMARK UNBOUND:                -1.029
REMARK  Name = 
REMARK  6 active torsions:
REMARK  status: ('A' for Active; 'I' for Inactive)
REMARK    1  A    between atoms: C_2  and  C_18
REMARK    2  A    between atoms: N_3  and  C_4
REMARK    3  A    between atoms: C_4  and  C_5
REMARK    4  A    between atoms: C_8  and  C_9
REMARK    5  A    between atoms: C_9  and  C_10
REMARK    6  A    between atoms: C_13  and  O_14
REMARK                            x       y       z     vdW  Elec       q    Type
REMARK                         _______ _______ _______ _____ _____    ______ ____
ROOT
ATOM      1  O   UNL     1      44.776   7.508  12.056  0.00  0.00    +0.000 OA
ATOM      2  C   UNL     1      45.487   6.556  11.747  0.00  0.00    +0.000 C 
ATOM      3  N   UNL     1      46.850   6.648  11.654  0.00  0.00    +0.000 N 
ATOM      4  H   UNL     1      47.367   5.898  11.207  0.00  0.00    +0.000 HD
ENDROOT
BRANCH   2   5
ATOM      5  C   UNL     1      44.920   5.222  11.514  0.00  0.00    +0.000 A 
ATOM      6  C   UNL     1      44.216   4.583  12.526  0.00  0.00    +0.000 A 
ATOM      7  S   UNL     1      43.638   3.040  12.083  0.00  0.00    +0.000 S 
ATOM      8  C   UNL     1      44.275   3.191  10.512  0.00  0.00    +0.000 A 
ATOM      9  N   UNL     1      44.100   2.206   9.588  0.00  0.00    +0.000 NA
ATOM     10  C   UNL     1      44.606   2.469   8.428  0.00  0.00    +0.000 A 
ATOM     11  N   UNL     1      45.280   3.619   8.111  0.00  0.00    +0.000 N 
ATOM     12  C   UNL     1      45.546   4.605   9.032  0.00  0.00    +0.000 A 
ATOM     13  O   UNL     1      46.270   5.550   8.749  0.00  0.00    +0.000 OA
ATOM     14  C   UNL     1      44.951   4.385  10.338  0.00  0.00    +0.000 A 
ATOM     15  H   UNL     1      45.682   3.749   7.196  0.00  0.00    +0.000 HD
ENDBRANCH   2   5
BRANCH   3  16
ATOM     16  C   UNL     1      47.564   7.885  11.818  0.00  0.00    +0.000 C 
BRANCH  16  17
ATOM     17  C   UNL     1      48.224   7.968  13.168  0.00  0.00    +0.000 A 
ATOM     18  C   UNL     1      47.679   8.792  14.161  0.00  0.00    +0.000 A 
ATOM     19  C   UNL     1      48.257   8.858  15.429  0.00  0.00    +0.000 A 
ATOM     20  C   UNL     1      49.397   8.104  15.729  0.00  0.00    +0.000 A 
ATOM     21  C   UNL     1      49.972   7.317  14.721  0.00  0.00    +0.000 A 
ATOM     22  C   UNL     1      49.394   7.253  13.450  0.00  0.00    +0.000 A 
BRANCH  20  23
ATOM     23  C   UNL     1      50.017   8.154  17.105  0.00  0.00    +0.000 C 
BRANCH  23  24
ATOM     24  C   UNL     1      49.883   6.849  17.917  0.00  0.00    +0.000 C 
ATOM     25  C   UNL     1      49.837   7.071  19.442  0.00  0.00    +0.000 C 
ATOM     26  C   UNL     1      48.570   6.378  19.942  0.00  0.00    +0.000 C 
ATOM     27  C   UNL     1      47.638   6.385  18.742  0.00  0.00    +0.000 C 
ATOM     28  C   UNL     1      48.574   6.112  17.573  0.00  0.00    +0.000 C 
BRANCH  27  29
ATOM     29  O   UNL     1      47.000   7.646  18.588  0.00  0.00    +0.000 OA
ATOM     30  H   UNL     1      46.039   7.523  18.647  0.00  0.00    +0.000 HD
ENDBRANCH  27  29
ENDBRANCH  23  24
ENDBRANCH  20  23
ENDBRANCH  16  17
ENDBRANCH   3  16
TORSDOF 6
ENDMDL
