MODEL 1
REMARK VINA RESULT:    -8.833      0.000      0.000
REMARK INTER + INTRA:         -13.349
REMARK INTER:                 -12.448
REMARK INTRA:                  -0.901
REMARK UNBOUND:                -0.901
REMARK  Name = 
REMARK  7 active torsions:
REMARK  status: ('A' for Active; 'I' for Inactive)
REMARK    1  A    between atoms: C_2  and  C_20
REMARK    2  A    between atoms: N_3  and  C_4
REMARK    3  A    between atoms: C_4  and  C_5
REMARK    4  A    between atoms: C_8  and  C_9
REMARK    5  A    between atoms: C_9  and  N_10
REMARK    6  A    between atoms: N_10  and  C_11
REMARK    7  A    between atoms: C_11  and  C_12
REMARK                            x       y       z     vdW  Elec       q    Type
REMARK                         _______ _______ _______ _____ _____    ______ ____
ROOT
ATOM      1  C   UNL     1      46.002   4.396  14.651  0.00  0.00    +0.000 C 
ENDROOT
BRANCH   1   2
ATOM      2  C   UNL     1      46.139   4.912  13.206  0.00  0.00    +0.000 C 
ATOM      3  C   UNL     1      46.091   3.776  12.171  0.00  0.00    +0.000 C 
ATOM      4  C   UNL     1      44.707   3.140  12.075  0.00  0.00    +0.000 C 
ATOM      5  C   UNL     1      43.614   4.175  11.764  0.00  0.00    +0.000 C 
ATOM      6  C   UNL     1      43.664   5.344  12.763  0.00  0.00    +0.000 C 
ATOM      7  C   UNL     1      45.054   5.958  12.907  0.00  0.00    +0.000 C 
BRANCH   5   8
ATOM      8  C   UNL     1      43.670   4.676  10.299  0.00  0.00    +0.000 C 
BRANCH   8   9
ATOM      9  N   UNL     1      44.144   3.692   9.323  0.00  0.00    +0.000 NA
ATOM     10  H   UNL     1      43.364   3.342   8.771  0.00  0.00    +0.000 HD
BRANCH   9  11
ATOM     11  C   UNL     1      45.164   4.240   8.429  0.00  0.00    +0.000 C 
BRANCH  11  12
ATOM     12  C   UNL     1      45.979   3.152   7.781  0.00  0.00    +0.000 A 
ATOM     13  C   UNL     1      46.729   3.419   6.631  0.00  0.00    +0.000 A 
ATOM     14  C   UNL     1      47.492   2.400   6.086  0.00  0.00    +0.000 A 
ATOM     15  N   UNL     1      47.555   1.155   6.598  0.00  0.00    +0.000 NA
ATOM     16  C   UNL     1      46.819   0.917   7.707  0.00  0.00    +0.000 A 
ATOM     17  C   UNL     1      46.027   1.868   8.327  0.00  0.00    +0.000 A 
ENDBRANCH  11  12
ENDBRANCH   9  11
ENDBRANCH   8   9
ENDBRANCH   5   8
ENDBRANCH   1   2
BRANCH   1  20
ATOM     18  O   UNL     1      46.652   3.209  17.119  0.00  0.00    +0.000 OA
ATOM     19  C   UNL     1      47.435   4.016  16.626  0.00  0.00    +0.000 C 
ATOM     20  N   UNL     1      47.183   4.648  15.438  0.00  0.00    +0.000 N 
ATOM     21  H   UNL     1      47.876   5.273  15.040  0.00  0.00    +0.000 HD
BRANCH  19  22
ATOM     22  C   UNL     1      48.686   4.381  17.299  0.00  0.00    +0.000 A 
ATOM     23  C   UNL     1      48.793   5.618  17.921  0.00  0.00    +0.000 A 
ATOM     24  S   UNL     1      50.301   5.875  18.673  0.00  0.00    +0.000 S 
ATOM     25  C   UNL     1      50.852   4.330  18.222  0.00  0.00    +0.000 A 
ATOM     26  N   UNL     1      52.083   3.892  18.595  0.00  0.00    +0.000 NA
ATOM     27  C   UNL     1      52.362   2.690  18.215  0.00  0.00    +0.000 A 
ATOM     28  N   UNL     1      51.526   1.888  17.482  0.00  0.00    +0.000 N 
ATOM     29  C   UNL     1      50.301   2.314  17.022  0.00  0.00    +0.000 A 
ATOM     30  O   UNL     1      49.639   1.618  16.258  0.00  0.00    +0.000 OA
ATOM     31  C   UNL     1      49.916   3.639  17.472  0.00  0.00    +0.000 A 
ATOM     32  H   UNL     1      51.819   0.971  17.186  0.00  0.00    +0.000 HD
ENDBRANCH  19  22
ENDBRANCH   1  20
TORSDOF 7
ENDMDL
MODEL 2
REMARK VINA RESULT:    -8.632      1.912      2.712
REMARK INTER + INTRA:         -13.065
REMARK INTER:                 -12.073
REMARK INTRA:                  -0.992
REMARK UNBOUND:                -0.901
REMARK  Name = 
REMARK  7 active torsions:
REMARK  status: ('A' for Active; 'I' for Inactive)
REMARK    1  A    between atoms: C_2  and  C_20
REMARK    2  A    between atoms: N_3  and  C_4
REMARK    3  A    between atoms: C_4  and  C_5
REMARK    4  A    between atoms: C_8  and  C_9
REMARK    5  A    between atoms: C_9  and  N_10
REMARK    6  A    between atoms: N_10  and  C_11
REMARK    7  A    between atoms: C_11  and  C_12
REMARK                            x       y       z     vdW  Elec       q    Type
REMARK                         _______ _______ _______ _____ _____    ______ ____
ROOT
ATOM      1  C   UNL     1      46.619   7.555  12.848  0.00  0.00    +0.000 C 
ENDROOT
BRANCH   1   2
ATOM      2  C   UNL     1      45.193   7.030  12.598  0.00  0.00    +0.000 C 
ATOM      3  C   UNL     1      44.834   6.998  11.102  0.00  0.00    +0.000 C 
ATOM      4  C   UNL     1      45.626   5.937  10.341  0.00  0.00    +0.000 C 
ATOM      5  C   UNL     1      45.450   4.536  10.950  0.00  0.00    +0.000 C 
ATOM      6  C   UNL     1      45.765   4.547  12.455  0.00  0.00    +0.000 C 
ATOM      7  C   UNL     1      45.019   5.636  13.222  0.00  0.00    +0.000 C 
BRANCH   5   8
ATOM      8  C   UNL     1      44.050   3.937  10.667  0.00  0.00    +0.000 C 
BRANCH   8   9
ATOM      9  N   UNL     1      43.984   3.024   9.523  0.00  0.00    +0.000 NA
ATOM     10  H   UNL     1      43.020   2.745   9.352  0.00  0.00    +0.000 HD
BRANCH   9  11
ATOM     11  C   UNL     1      44.540   3.614   8.306  0.00  0.00    +0.000 C 
BRANCH  11  12
ATOM     12  C   UNL     1      45.721   2.830   7.797  0.00  0.00    +0.000 A 
ATOM     13  C   UNL     1      45.924   1.508   8.206  0.00  0.00    +0.000 A 
ATOM     14  C   UNL     1      47.003   0.812   7.688  0.00  0.00    +0.000 A 
ATOM     15  N   UNL     1      47.880   1.335   6.807  0.00  0.00    +0.000 NA
ATOM     16  C   UNL     1      47.669   2.615   6.429  0.00  0.00    +0.000 A 
ATOM     17  C   UNL     1      46.619   3.393   6.888  0.00  0.00    +0.000 A 
ENDBRANCH  11  12
ENDBRANCH   9  11
ENDBRANCH   8   9
ENDBRANCH   5   8
ENDBRANCH   1   2
BRANCH   1  20
ATOM     18  O   UNL     1      49.000   6.170  13.426  0.00  0.00    +0.000 OA
ATOM     19  C   UNL     1      48.292   6.541  14.357  0.00  0.00    +0.000 C 
ATOM     20  N   UNL     1      47.111   7.205  14.157  0.00  0.00    +0.000 N 
ATOM     21  H   UNL     1      46.576   7.537  14.953  0.00  0.00    +0.000 HD
BRANCH  19  22
ATOM     22  C   UNL     1      48.650   6.268  15.752  0.00  0.00    +0.000 A 
ATOM     23  C   UNL     1      49.295   7.244  16.498  0.00  0.00    +0.000 A 
ATOM     24  S   UNL     1      49.619   6.774  18.104  0.00  0.00    +0.000 S 
ATOM     25  C   UNL     1      48.880   5.260  17.868  0.00  0.00    +0.000 A 
ATOM     26  N   UNL     1      48.780   4.366  18.887  0.00  0.00    +0.000 NA
ATOM     27  C   UNL     1      48.168   3.271  18.581  0.00  0.00    +0.000 A 
ATOM     28  N   UNL     1      47.656   2.982  17.343  0.00  0.00    +0.000 N 
ATOM     29  C   UNL     1      47.796   3.825  16.265  0.00  0.00    +0.000 A 
ATOM     30  O   UNL     1      47.442   3.475  15.143  0.00  0.00    +0.000 OA
ATOM     31  C   UNL     1      48.426   5.096  16.571  0.00  0.00    +0.000 A 
ATOM     32  H   UNL     1      47.220   2.092  17.160  0.00  0.00    +0.000 HD
ENDBRANCH  19  22
ENDBRANCH   1  20
TORSDOF 7
ENDMDL
MODEL 3
REMARK VINA RESULT:    -7.727      2.315      2.989
REMARK INTER + INTRA:         -11.790
REMARK INTER:                 -10.952
REMARK INTRA:                  -0.838
REMARK UNBOUND:                -0.901
REMARK  Name = 
REMARK  7 active torsions:
REMARK  status: ('A' for Active; 'I' for Inactive)
REMARK    1  A    between atoms: C_2  and  C_20
REMARK    2  A    between atoms: N_3  and  C_4
REMARK    3  A    between atoms: C_4  and  C_5
REMARK    4  A    between atoms: C_8  and  C_9
REMARK    5  A    between atoms: C_9  and  N_10
REMARK    6  A    between atoms: N_10  and  C_11
REMARK    7  A    between atoms: C_11  and  C_12
REMARK                            x       y       z     vdW  Elec       q    Type
REMARK                         _______ _______ _______ _____ _____    ______ ____
ROOT
ATOM      1  C   UNL     1      46.781   7.033  13.252  0.00  0.00    +0.000 C 
ENDROOT
BRANCH   1   2
ATOM      2  C   UNL     1      45.352   6.950  12.683  0.00  0.00    +0.000 C 
ATOM      3  C   UNL     1      45.323   7.078  11.151  0.00  0.00    +0.000 C 
ATOM      4  C   UNL     1      45.936   5.863  10.458  0.00  0.00    +0.000 C 
ATOM      5  C   UNL     1      45.259   4.550  10.885  0.00  0.00    +0.000 C 
ATOM      6  C   UNL     1      45.239   4.415  12.417  0.00  0.00    +0.000 C 
ATOM      7  C   UNL     1      44.675   5.644  13.126  0.00  0.00    +0.000 C 
BRANCH   5   8
ATOM      8  C   UNL     1      43.841   4.390  10.282  0.00  0.00    +0.000 C 
BRANCH   8   9
ATOM      9  N   UNL     1      43.750   3.478   9.139  0.00  0.00    +0.000 NA
ATOM     10  H   UNL     1      43.964   3.973   8.277  0.00  0.00    +0.000 HD
BRANCH   9  11
ATOM     11  C   UNL     1      44.643   2.328   9.272  0.00  0.00    +0.000 C 
BRANCH  11  12
ATOM     12  C   UNL     1      45.689   2.306   8.190  0.00  0.00    +0.000 A 
ATOM     13  C   UNL     1      46.482   1.170   7.992  0.00  0.00    +0.000 A 
ATOM     14  C   UNL     1      47.409   1.180   6.964  0.00  0.00    +0.000 A 
ATOM     15  N   UNL     1      47.599   2.226   6.135  0.00  0.00    +0.000 NA
ATOM     16  C   UNL     1      46.827   3.315   6.346  0.00  0.00    +0.000 A 
ATOM     17  C   UNL     1      45.872   3.403   7.345  0.00  0.00    +0.000 A 
ENDBRANCH  11  12
ENDBRANCH   9  11
ENDBRANCH   8   9
ENDBRANCH   5   8
ENDBRANCH   1   2
BRANCH   1  20
ATOM     18  O   UNL     1      49.205   6.496  14.578  0.00  0.00    +0.000 OA
ATOM     19  C   UNL     1      48.168   6.014  15.023  0.00  0.00    +0.000 C 
ATOM     20  N   UNL     1      46.953   6.214  14.426  0.00  0.00    +0.000 N 
ATOM     21  H   UNL     1      46.111   5.838  14.850  0.00  0.00    +0.000 HD
BRANCH  19  22
ATOM     22  C   UNL     1      48.168   5.158  16.215  0.00  0.00    +0.000 A 
ATOM     23  C   UNL     1      47.648   3.874  16.136  0.00  0.00    +0.000 A 
ATOM     24  S   UNL     1      47.745   3.006  17.600  0.00  0.00    +0.000 S 
ATOM     25  C   UNL     1      48.517   4.306  18.382  0.00  0.00    +0.000 A 
ATOM     26  N   UNL     1      48.917   4.202  19.676  0.00  0.00    +0.000 NA
ATOM     27  C   UNL     1      49.519   5.248  20.137  0.00  0.00    +0.000 A 
ATOM     28  N   UNL     1      49.745   6.397  19.423  0.00  0.00    +0.000 N 
ATOM     29  C   UNL     1      49.294   6.573  18.135  0.00  0.00    +0.000 A 
ATOM     30  O   UNL     1      49.399   7.661  17.576  0.00  0.00    +0.000 OA
ATOM     31  C   UNL     1      48.663   5.404  17.552  0.00  0.00    +0.000 A 
ATOM     32  H   UNL     1      50.189   7.192  19.853  0.00  0.00    +0.000 HD
ENDBRANCH  19  22
ENDBRANCH   1  20
TORSDOF 7
ENDMDL
MODEL 4
REMARK VINA RESULT:    -7.072      2.964      3.709
REMARK INTER + INTRA:         -10.867
REMARK INTER:                  -9.883
REMARK INTRA:                  -0.984
REMARK UNBOUND:                -0.901
REMARK  Name = 
REMARK  7 active torsions:
REMARK  status: ('A' for Active; 'I' for Inactive)
REMARK    1  A    between atoms: C_2  and  C_20
REMARK    2  A    between atoms: N_3  and  C_4
REMARK    3  A    between atoms: C_4  and  C_5
REMARK    4  A    between atoms: C_8  and  C_9
REMARK    5  A    between atoms: C_9  and  N_10
REMARK    6  A    between atoms: N_10  and  C_11
REMARK    7  A    between atoms: C_11  and  C_12
REMARK                            x       y       z     vdW  Elec       q    Type
REMARK                         _______ _______ _______ _____ _____    ______ ____
ROOT
ATOM      1  C   UNL     1      46.666   4.855  14.114  0.00  0.00    +0.000 C 
ENDROOT
BRANCH   1   2
ATOM      2  C   UNL     1      45.291   5.123  13.475  0.00  0.00    +0.000 C 
ATOM      3  C   UNL     1      45.334   6.271  12.453  0.00  0.00    +0.000 C 
ATOM      4  C   UNL     1      46.121   5.899  11.198  0.00  0.00    +0.000 C 
ATOM      5  C   UNL     1      45.577   4.625  10.530  0.00  0.00    +0.000 C 
ATOM      6  C   UNL     1      45.487   3.470  11.541  0.00  0.00    +0.000 C 
ATOM      7  C   UNL     1      44.746   3.843  12.823  0.00  0.00    +0.000 C 
BRANCH   5   8
ATOM      8  C   UNL     1      44.223   4.862   9.815  0.00  0.00    +0.000 C 
BRANCH   8   9
ATOM      9  N   UNL     1      44.073   4.181   8.527  0.00  0.00    +0.000 NA
ATOM     10  H   UNL     1      44.679   4.610   7.831  0.00  0.00    +0.000 HD
BRANCH   9  11
ATOM     11  C   UNL     1      44.371   2.752   8.613  0.00  0.00    +0.000 C 
BRANCH  11  12
ATOM     12  C   UNL     1      45.628   2.398   7.864  0.00  0.00    +0.000 A 
ATOM     13  C   UNL     1      46.208   3.314   6.980  0.00  0.00    +0.000 A 
ATOM     14  C   UNL     1      47.383   2.963   6.337  0.00  0.00    +0.000 A 
ATOM     15  N   UNL     1      48.007   1.781   6.510  0.00  0.00    +0.000 NA
ATOM     16  C   UNL     1      47.429   0.909   7.365  0.00  0.00    +0.000 A 
ATOM     17  C   UNL     1      46.257   1.167   8.057  0.00  0.00    +0.000 A 
ENDBRANCH  11  12
ENDBRANCH   9  11
ENDBRANCH   8   9
ENDBRANCH   5   8
ENDBRANCH   1   2
BRANCH   1  20
ATOM     18  O   UNL     1      48.950   6.266  13.269  0.00  0.00    +0.000 OA
ATOM     19  C   UNL     1      48.333   6.673  14.249  0.00  0.00    +0.000 C 
ATOM     20  N   UNL     1      47.224   6.032  14.731  0.00  0.00    +0.000 N 
ATOM     21  H   UNL     1      46.713   6.425  15.516  0.00  0.00    +0.000 HD
BRANCH  19  22
ATOM     22  C   UNL     1      48.767   7.861  14.991  0.00  0.00    +0.000 A 
ATOM     23  C   UNL     1      49.035   9.037  14.304  0.00  0.00    +0.000 A 
ATOM     24  S   UNL     1      49.505  10.327  15.316  0.00  0.00    +0.000 S 
ATOM     25  C   UNL     1      49.334   9.367  16.710  0.00  0.00    +0.000 A 
ATOM     26  N   UNL     1      49.551   9.888  17.947  0.00  0.00    +0.000 NA
ATOM     27  C   UNL     1      49.354   9.061  18.919  0.00  0.00    +0.000 A 
ATOM     28  N   UNL     1      48.972   7.754  18.767  0.00  0.00    +0.000 N 
ATOM     29  C   UNL     1      48.810   7.164  17.534  0.00  0.00    +0.000 A 
ATOM     30  O   UNL     1      48.597   5.959  17.437  0.00  0.00    +0.000 OA
ATOM     31  C   UNL     1      48.962   8.068  16.409  0.00  0.00    +0.000 A 
ATOM     32  H   UNL     1      48.869   7.149  19.567  0.00  0.00    +0.000 HD
ENDBRANCH  19  22
ENDBRANCH   1  20
TORSDOF 7
ENDMDL
MODEL 5
REMARK VINA RESULT:    -7.057      3.747      8.866
REMARK INTER + INTRA:         -10.846
REMARK INTER:                  -9.797
REMARK INTRA:                  -1.049
REMARK UNBOUND:                -0.901
REMARK  Name = 
REMARK  7 active torsions:
REMARK  status: ('A' for Active; 'I' for Inactive)
REMARK    1  A    between atoms: C_2  and  C_20
REMARK    2  A    between atoms: N_3  and  C_4
REMARK    3  A    between atoms: C_4  and  C_5
REMARK    4  A    between atoms: C_8  and  C_9
REMARK    5  A    between atoms: C_9  and  N_10
REMARK    6  A    between atoms: N_10  and  C_11
REMARK    7  A    between atoms: C_11  and  C_12
REMARK                            x       y       z     vdW  Elec       q    Type
REMARK                         _______ _______ _______ _____ _____    ______ ____
ROOT
ATOM      1  C   UNL     1      46.896   8.263  11.955  0.00  0.00    +0.000 C 
ENDROOT
BRANCH   1   2
ATOM      2  C   UNL     1      48.397   8.205  12.294  0.00  0.00    +0.000 C 
ATOM      3  C   UNL     1      48.786   9.198  13.402  0.00  0.00    +0.000 C 
ATOM      4  C   UNL     1      48.210   8.803  14.760  0.00  0.00    +0.000 C 
ATOM      5  C   UNL     1      48.619   7.379  15.170  0.00  0.00    +0.000 C 
ATOM      6  C   UNL     1      48.276   6.369  14.061  0.00  0.00    +0.000 C 
ATOM      7  C   UNL     1      48.802   6.775  12.687  0.00  0.00    +0.000 C 
BRANCH   5   8
ATOM      8  C   UNL     1      50.108   7.284  15.584  0.00  0.00    +0.000 C 
BRANCH   8   9
ATOM      9  N   UNL     1      50.342   6.999  17.002  0.00  0.00    +0.000 NA
ATOM     10  H   UNL     1      50.438   7.868  17.523  0.00  0.00    +0.000 HD
BRANCH   9  11
ATOM     11  C   UNL     1      49.273   6.195  17.593  0.00  0.00    +0.000 C 
BRANCH  11  12
ATOM     12  C   UNL     1      49.463   4.727  17.318  0.00  0.00    +0.000 A 
ATOM     13  C   UNL     1      50.696   4.114  17.563  0.00  0.00    +0.000 A 
ATOM     14  C   UNL     1      50.819   2.754  17.330  0.00  0.00    +0.000 A 
ATOM     15  N   UNL     1      49.815   1.979  16.874  0.00  0.00    +0.000 NA
ATOM     16  C   UNL     1      48.634   2.591  16.640  0.00  0.00    +0.000 A 
ATOM     17  C   UNL     1      48.410   3.943  16.843  0.00  0.00    +0.000 A 
ENDBRANCH  11  12
ENDBRANCH   9  11
ENDBRANCH   8   9
ENDBRANCH   5   8
ENDBRANCH   1   2
BRANCH   1  20
ATOM     18  O   UNL     1      44.198   7.676  11.408  0.00  0.00    +0.000 OA
ATOM     19  C   UNL     1      45.000   6.750  11.489  0.00  0.00    +0.000 C 
ATOM     20  N   UNL     1      46.324   6.952  11.768  0.00  0.00    +0.000 N 
ATOM     21  H   UNL     1      46.965   6.165  11.781  0.00  0.00    +0.000 HD
BRANCH  19  22
ATOM     22  C   UNL     1      44.581   5.354  11.322  0.00  0.00    +0.000 A 
ATOM     23  C   UNL     1      43.819   4.745  12.310  0.00  0.00    +0.000 A 
ATOM     24  S   UNL     1      43.399   3.133  11.951  0.00  0.00    +0.000 S 
ATOM     25  C   UNL     1      44.192   3.203  10.448  0.00  0.00    +0.000 A 
ATOM     26  N   UNL     1      44.180   2.139   9.602  0.00  0.00    +0.000 NA
ATOM     27  C   UNL     1      44.791   2.337   8.482  0.00  0.00    +0.000 A 
ATOM     28  N   UNL     1      45.427   3.500   8.135  0.00  0.00    +0.000 N 
ATOM     29  C   UNL     1      45.528   4.576   8.986  0.00  0.00    +0.000 A 
ATOM     30  O   UNL     1      46.217   5.548   8.693  0.00  0.00    +0.000 OA
ATOM     31  C   UNL     1      44.806   4.425  10.236  0.00  0.00    +0.000 A 
ATOM     32  H   UNL     1      45.918   3.579   7.258  0.00  0.00    +0.000 HD
ENDBRANCH  19  22
ENDBRANCH   1  20
TORSDOF 7
ENDMDL
MODEL 6
REMARK VINA RESULT:    -6.904      3.983      9.764
REMARK INTER + INTRA:         -10.630
REMARK INTER:                  -9.044
REMARK INTRA:                  -1.586
REMARK UNBOUND:                -0.901
REMARK  Name = 
REMARK  7 active torsions:
REMARK  status: ('A' for Active; 'I' for Inactive)
REMARK    1  A    between atoms: C_2  and  C_20
REMARK    2  A    between atoms: N_3  and  C_4
REMARK    3  A    between atoms: C_4  and  C_5
REMARK    4  A    between atoms: C_8  and  C_9
REMARK    5  A    between atoms: C_9  and  N_10
REMARK    6  A    between atoms: N_10  and  C_11
REMARK    7  A    between atoms: C_11  and  C_12
REMARK                            x       y       z     vdW  Elec       q    Type
REMARK                         _______ _______ _______ _____ _____    ______ ____
ROOT
ATOM      1  C   UNL     1      47.372   3.461  16.453  0.00  0.00    +0.000 C 
ENDROOT
BRANCH   1   2
ATOM      2  C   UNL     1      47.820   4.118  17.772  0.00  0.00    +0.000 C 
ATOM      3  C   UNL     1      48.901   3.300  18.497  0.00  0.00    +0.000 C 
ATOM      4  C   UNL     1      50.233   3.312  17.750  0.00  0.00    +0.000 C 
ATOM      5  C   UNL     1      50.742   4.740  17.498  0.00  0.00    +0.000 C 
ATOM      6  C   UNL     1      49.664   5.594  16.808  0.00  0.00    +0.000 C 
ATOM      7  C   UNL     1      48.313   5.551  17.515  0.00  0.00    +0.000 C 
BRANCH   5   8
ATOM      8  C   UNL     1      51.266   5.421  18.787  0.00  0.00    +0.000 C 
BRANCH   8   9
ATOM      9  N   UNL     1      51.645   6.828  18.638  0.00  0.00    +0.000 NA
ATOM     10  H   UNL     1      51.255   7.207  17.778  0.00  0.00    +0.000 HD
BRANCH   9  11
ATOM     11  C   UNL     1      51.211   7.645  19.770  0.00  0.00    +0.000 C 
BRANCH  11  12
ATOM     12  C   UNL     1      49.782   8.093  19.617  0.00  0.00    +0.000 A 
ATOM     13  C   UNL     1      48.810   7.689  20.539  0.00  0.00    +0.000 A 
ATOM     14  C   UNL     1      47.514   8.151  20.382  0.00  0.00    +0.000 A 
ATOM     15  N   UNL     1      47.126   8.972  19.386  0.00  0.00    +0.000 NA
ATOM     16  C   UNL     1      48.079   9.347  18.504  0.00  0.00    +0.000 A 
ATOM     17  C   UNL     1      49.401   8.941  18.575  0.00  0.00    +0.000 A 
ENDBRANCH  11  12
ENDBRANCH   9  11
ENDBRANCH   8   9
ENDBRANCH   5   8
ENDBRANCH   1   2
BRANCH   1  20
ATOM     18  O   UNL     1      47.329   3.292  13.644  0.00  0.00    +0.000 OA
ATOM     19  C   UNL     1      46.776   4.243  14.187  0.00  0.00    +0.000 C 
ATOM     20  N   UNL     1      46.768   4.405  15.546  0.00  0.00    +0.000 N 
ATOM     21  H   UNL     1      46.260   5.180  15.962  0.00  0.00    +0.000 HD
BRANCH  19  22
ATOM     22  C   UNL     1      46.110   5.293  13.408  0.00  0.00    +0.000 A 
ATOM     23  C   UNL     1      46.785   6.475  13.136  0.00  0.00    +0.000 A 
ATOM     24  S   UNL     1      45.880   7.578  12.203  0.00  0.00    +0.000 S 
ATOM     25  C   UNL     1      44.567   6.500  12.102  0.00  0.00    +0.000 A 
ATOM     26  N   UNL     1      43.454   6.821  11.392  0.00  0.00    +0.000 NA
ATOM     27  C   UNL     1      42.548   5.900  11.370  0.00  0.00    +0.000 A 
ATOM     28  N   UNL     1      42.648   4.691  12.006  0.00  0.00    +0.000 N 
ATOM     29  C   UNL     1      43.724   4.352  12.795  0.00  0.00    +0.000 A 
ATOM     30  O   UNL     1      43.718   3.317  13.454  0.00  0.00    +0.000 OA
ATOM     31  C   UNL     1      44.797   5.329  12.804  0.00  0.00    +0.000 A 
ATOM     32  H   UNL     1      41.889   4.029  11.979  0.00  0.00    +0.000 HD
ENDBRANCH  19  22
ENDBRANCH   1  20
TORSDOF 7
ENDMDL
MODEL 7
REMARK VINA RESULT:    -6.860      3.948      8.898
REMARK INTER + INTRA:         -10.567
REMARK INTER:                  -9.375
REMARK INTRA:                  -1.193
REMARK UNBOUND:                -0.901
REMARK  Name = 
REMARK  7 active torsions:
REMARK  status: ('A' for Active; 'I' for Inactive)
REMARK    1  A    between atoms: C_2  and  C_20
REMARK    2  A    between atoms: N_3  and  C_4
REMARK    3  A    between atoms: C_4  and  C_5
REMARK    4  A    between atoms: C_8  and  C_9
REMARK    5  A    between atoms: C_9  and  N_10
REMARK    6  A    between atoms: N_10  and  C_11
REMARK    7  A    between atoms: C_11  and  C_12
REMARK                            x       y       z     vdW  Elec       q    Type
REMARK                         _______ _______ _______ _____ _____    ______ ____
ROOT
ATOM      1  C   UNL     1      46.274   8.282  11.906  0.00  0.00    +0.000 C 
ENDROOT
BRANCH   1   2
ATOM      2  C   UNL     1      46.921   8.478  13.290  0.00  0.00    +0.000 C 
ATOM      3  C   UNL     1      47.598   7.198  13.807  0.00  0.00    +0.000 C 
ATOM      4  C   UNL     1      48.844   6.838  13.001  0.00  0.00    +0.000 C 
ATOM      5  C   UNL     1      49.863   7.989  12.965  0.00  0.00    +0.000 C 
ATOM      6  C   UNL     1      49.201   9.293  12.489  0.00  0.00    +0.000 C 
ATOM      7  C   UNL     1      47.926   9.640  13.252  0.00  0.00    +0.000 C 
BRANCH   5   8
ATOM      8  C   UNL     1      50.589   8.182  14.320  0.00  0.00    +0.000 C 
BRANCH   8   9
ATOM      9  N   UNL     1      50.855   6.948  15.064  0.00  0.00    +0.000 NA
ATOM     10  H   UNL     1      51.856   6.763  15.089  0.00  0.00    +0.000 HD
BRANCH   9  11
ATOM     11  C   UNL     1      50.337   6.998  16.430  0.00  0.00    +0.000 C 
BRANCH  11  12
ATOM     12  C   UNL     1      49.780   5.667  16.863  0.00  0.00    +0.000 A 
ATOM     13  C   UNL     1      48.424   5.374  16.686  0.00  0.00    +0.000 A 
ATOM     14  C   UNL     1      47.960   4.127  17.067  0.00  0.00    +0.000 A 
ATOM     15  N   UNL     1      48.741   3.169  17.606  0.00  0.00    +0.000 NA
ATOM     16  C   UNL     1      50.046   3.474  17.773  0.00  0.00    +0.000 A 
ATOM     17  C   UNL     1      50.607   4.691  17.423  0.00  0.00    +0.000 A 
ENDBRANCH  11  12
ENDBRANCH   9  11
ENDBRANCH   8   9
ENDBRANCH   5   8
ENDBRANCH   1   2
BRANCH   1  20
ATOM     18  O   UNL     1      43.672   7.364  11.352  0.00  0.00    +0.000 OA
ATOM     19  C   UNL     1      44.590   6.550  11.393  0.00  0.00    +0.000 C 
ATOM     20  N   UNL     1      45.879   6.916  11.673  0.00  0.00    +0.000 N 
ATOM     21  H   UNL     1      46.618   6.221  11.653  0.00  0.00    +0.000 HD
BRANCH  19  22
ATOM     22  C   UNL     1      44.357   5.118  11.176  0.00  0.00    +0.000 A 
ATOM     23  C   UNL     1      43.585   4.404  12.082  0.00  0.00    +0.000 A 
ATOM     24  S   UNL     1      43.395   2.761  11.671  0.00  0.00    +0.000 S 
ATOM     25  C   UNL     1      44.311   2.954  10.250  0.00  0.00    +0.000 A 
ATOM     26  N   UNL     1      44.503   1.913   9.398  0.00  0.00    +0.000 NA
ATOM     27  C   UNL     1      45.188   2.204   8.342  0.00  0.00    +0.000 A 
ATOM     28  N   UNL     1      45.711   3.440   8.067  0.00  0.00    +0.000 N 
ATOM     29  C   UNL     1      45.603   4.504   8.934  0.00  0.00    +0.000 A 
ATOM     30  O   UNL     1      46.196   5.556   8.715  0.00  0.00    +0.000 OA
ATOM     31  C   UNL     1      44.791   4.244  10.108  0.00  0.00    +0.000 A 
ATOM     32  H   UNL     1      46.268   3.593   7.241  0.00  0.00    +0.000 HD
ENDBRANCH  19  22
ENDBRANCH   1  20
TORSDOF 7
ENDMDL
MODEL 8
REMARK VINA RESULT:    -6.769      3.855      9.595
REMARK INTER + INTRA:         -10.439
REMARK INTER:                  -9.307
REMARK INTRA:                  -1.133
REMARK UNBOUND:                -0.901
REMARK  Name = 
REMARK  7 active torsions:
REMARK  status: ('A' for Active; 'I' for Inactive)
REMARK    1  A    between atoms: C_2  and  C_20
REMARK    2  A    between atoms: N_3  and  C_4
REMARK    3  A    between atoms: C_4  and  C_5
REMARK    4  A    between atoms: C_8  and  C_9
REMARK    5  A    between atoms: C_9  and  N_10
REMARK    6  A    between atoms: N_10  and  C_11
REMARK    7  A    between atoms: C_11  and  C_12
REMARK                            x       y       z     vdW  Elec       q    Type
REMARK                         _______ _______ _______ _____ _____    ______ ____
ROOT
ATOM      1  C   UNL     1      47.407   3.449  16.447  0.00  0.00    +0.000 C 
ENDROOT
BRANCH   1   2
ATOM      2  C   UNL     1      47.823   4.080  17.789  0.00  0.00    +0.000 C 
ATOM      3  C   UNL     1      48.838   3.214  18.554  0.00  0.00    +0.000 C 
ATOM      4  C   UNL     1      50.201   3.178  17.865  0.00  0.00    +0.000 C 
ATOM      5  C   UNL     1      50.776   4.587  17.646  0.00  0.00    +0.000 C 
ATOM      6  C   UNL     1      49.764   5.487  16.917  0.00  0.00    +0.000 C 
ATOM      7  C   UNL     1      48.382   5.494  17.566  0.00  0.00    +0.000 C 
BRANCH   5   8
ATOM      8  C   UNL     1      51.270   5.238  18.963  0.00  0.00    +0.000 C 
BRANCH   8   9
ATOM      9  N   UNL     1      51.883   4.314  19.921  0.00  0.00    +0.000 NA
ATOM     10  H   UNL     1      51.609   3.357  19.710  0.00  0.00    +0.000 HD
BRANCH   9  11
ATOM     11  C   UNL     1      53.342   4.410  19.933  0.00  0.00    +0.000 C 
BRANCH  11  12
ATOM     12  C   UNL     1      53.965   3.541  18.873  0.00  0.00    +0.000 A 
ATOM     13  C   UNL     1      53.630   2.187  18.778  0.00  0.00    +0.000 A 
ATOM     14  C   UNL     1      54.200   1.431  17.768  0.00  0.00    +0.000 A 
ATOM     15  N   UNL     1      55.069   1.924  16.863  0.00  0.00    +0.000 NA
ATOM     16  C   UNL     1      55.384   3.233  16.974  0.00  0.00    +0.000 A 
ATOM     17  C   UNL     1      54.866   4.072  17.947  0.00  0.00    +0.000 A 
ENDBRANCH  11  12
ENDBRANCH   9  11
ENDBRANCH   8   9
ENDBRANCH   5   8
ENDBRANCH   1   2
BRANCH   1  20
ATOM     18  O   UNL     1      47.306   3.293  13.639  0.00  0.00    +0.000 OA
ATOM     19  C   UNL     1      46.777   4.249  14.197  0.00  0.00    +0.000 C 
ATOM     20  N   UNL     1      46.798   4.406  15.557  0.00  0.00    +0.000 N 
ATOM     21  H   UNL     1      46.309   5.185  15.985  0.00  0.00    +0.000 HD
BRANCH  19  22
ATOM     22  C   UNL     1      46.111   5.312  13.435  0.00  0.00    +0.000 A 
ATOM     23  C   UNL     1      46.768   6.515  13.219  0.00  0.00    +0.000 A 
ATOM     24  S   UNL     1      45.866   7.630  12.299  0.00  0.00    +0.000 S 
ATOM     25  C   UNL     1      44.577   6.532  12.130  0.00  0.00    +0.000 A 
ATOM     26  N   UNL     1      43.476   6.855  11.402  0.00  0.00    +0.000 NA
ATOM     27  C   UNL     1      42.589   5.919  11.328  0.00  0.00    +0.000 A 
ATOM     28  N   UNL     1      42.697   4.692  11.927  0.00  0.00    +0.000 N 
ATOM     29  C   UNL     1      43.759   4.347  12.731  0.00  0.00    +0.000 A 
ATOM     30  O   UNL     1      43.757   3.291  13.357  0.00  0.00    +0.000 OA
ATOM     31  C   UNL     1      44.812   5.343  12.799  0.00  0.00    +0.000 A 
ATOM     32  H   UNL     1      41.951   4.017  11.859  0.00  0.00    +0.000 HD
ENDBRANCH  19  22
ENDBRANCH   1  20
TORSDOF 7
ENDMDL
MODEL 9
REMARK VINA RESULT:    -6.545      4.041      9.265
REMARK INTER + INTRA:         -10.125
REMARK INTER:                  -8.506
REMARK INTRA:                  -1.618
REMARK UNBOUND:                -0.901
REMARK  Name = 
REMARK  7 active torsions:
REMARK  status: ('A' for Active; 'I' for Inactive)
REMARK    1  A    between atoms: C_2  and  C_20
REMARK    2  A    between atoms: N_3  and  C_4
REMARK    3  A    between atoms: C_4  and  C_5
REMARK    4  A    between atoms: C_8  and  C_9
REMARK    5  A    between atoms: C_9  and  N_10
REMARK    6  A    between atoms: N_10  and  C_11
REMARK    7  A    between atoms: C_11  and  C_12
REMARK                            x       y       z     vdW  Elec       q    Type
REMARK                         _______ _______ _______ _____ _____    ______ ____
ROOT
ATOM      1  C   UNL     1      47.419   3.641  16.654  0.00  0.00    +0.000 C 
ENDROOT
BRANCH   1   2
ATOM      2  C   UNL     1      48.874   4.001  17.007  0.00  0.00    +0.000 C 
ATOM      3  C   UNL     1      49.123   5.518  16.991  0.00  0.00    +0.000 C 
ATOM      4  C   UNL     1      48.408   6.234  18.135  0.00  0.00    +0.000 C 
ATOM      5  C   UNL     1      48.791   5.657  19.507  0.00  0.00    +0.000 C 
ATOM      6  C   UNL     1      48.588   4.133  19.539  0.00  0.00    +0.000 C 
ATOM      7  C   UNL     1      49.255   3.408  18.373  0.00  0.00    +0.000 C 
BRANCH   5   8
ATOM      8  C   UNL     1      50.227   6.048  19.936  0.00  0.00    +0.000 C 
BRANCH   8   9
ATOM      9  N   UNL     1      50.475   7.488  20.038  0.00  0.00    +0.000 NA
ATOM     10  H   UNL     1      50.405   7.789  21.008  0.00  0.00    +0.000 HD
BRANCH   9  11
ATOM     11  C   UNL     1      51.783   7.868  19.506  0.00  0.00    +0.000 C 
BRANCH  11  12
ATOM     12  C   UNL     1      51.788   7.884  18.000  0.00  0.00    +0.000 A 
ATOM     13  C   UNL     1      52.585   6.983  17.285  0.00  0.00    +0.000 A 
ATOM     14  C   UNL     1      52.535   7.008  15.901  0.00  0.00    +0.000 A 
ATOM     15  N   UNL     1      51.761   7.856  15.194  0.00  0.00    +0.000 NA
ATOM     16  C   UNL     1      51.003   8.720  15.904  0.00  0.00    +0.000 A 
ATOM     17  C   UNL     1      50.981   8.773  17.288  0.00  0.00    +0.000 A 
ENDBRANCH  11  12
ENDBRANCH   9  11
ENDBRANCH   8   9
ENDBRANCH   5   8
ENDBRANCH   1   2
BRANCH   1  20
ATOM     18  O   UNL     1      47.273   3.219  13.875  0.00  0.00    +0.000 OA
ATOM     19  C   UNL     1      46.805   4.254  14.342  0.00  0.00    +0.000 C 
ATOM     20  N   UNL     1      46.852   4.540  15.679  0.00  0.00    +0.000 N 
ATOM     21  H   UNL     1      46.413   5.384  16.033  0.00  0.00    +0.000 HD
BRANCH  19  22
ATOM     22  C   UNL     1      46.189   5.273  13.485  0.00  0.00    +0.000 A 
ATOM     23  C   UNL     1      46.897   6.426  13.176  0.00  0.00    +0.000 A 
ATOM     24  S   UNL     1      46.049   7.495  12.154  0.00  0.00    +0.000 S 
ATOM     25  C   UNL     1      44.718   6.437  12.062  0.00  0.00    +0.000 A 
ATOM     26  N   UNL     1      43.638   6.741  11.296  0.00  0.00    +0.000 NA
ATOM     27  C   UNL     1      42.715   5.838  11.289  0.00  0.00    +0.000 A 
ATOM     28  N   UNL     1      42.767   4.662  11.991  0.00  0.00    +0.000 N 
ATOM     29  C   UNL     1      43.807   4.345  12.835  0.00  0.00    +0.000 A 
ATOM     30  O   UNL     1      43.757   3.347  13.547  0.00  0.00    +0.000 OA
ATOM     31  C   UNL     1      44.899   5.302  12.832  0.00  0.00    +0.000 A 
ATOM     32  H   UNL     1      41.996   4.014  11.972  0.00  0.00    +0.000 HD
ENDBRANCH  19  22
ENDBRANCH   1  20
TORSDOF 7
ENDMDL
