MODEL 1
REMARK VINA RESULT:    -7.705      0.000      0.000
REMARK INTER + INTRA:         -12.819
REMARK INTER:                 -11.309
REMARK INTRA:                  -1.510
REMARK UNBOUND:                -1.510
REMARK  Name = 
REMARK  10 active torsions:
REMARK  status: ('A' for Active; 'I' for Inactive)
REMARK    1  A    between atoms: C_1  and  O_2
REMARK    2  A    between atoms: O_2  and  C_3
REMARK    3  A    between atoms: C_10  and  C_11
REMARK    4  A    between atoms: N_13  and  C_14
REMARK    5  A    between atoms: C_14  and  C_15
REMARK    6  A    between atoms: C_18  and  N_19
REMARK    7  A    between atoms: N_19  and  C_20
REMARK    8  A    between atoms: C_20  and  C_21
REMARK    9  A    between atoms: C_21  and  C_22
REMARK   10  A    between atoms: C_25  and  C_26
REMARK                            x       y       z     vdW  Elec       q    Type
REMARK                         _______ _______ _______ _____ _____    ______ ____
ROOT
ATOM      1  C   UNL     1      47.405   6.226  12.940  0.00  0.00    +0.000 A 
ATOM      2  C   UNL     1      46.828   5.164  13.646  0.00  0.00    +0.000 A 
ATOM      3  C   UNL     1      45.657   4.549  13.186  0.00  0.00    +0.000 A 
ATOM      4  C   UNL     1      45.025   4.981  12.016  0.00  0.00    +0.000 A 
ATOM      5  C   UNL     1      45.648   5.988  11.271  0.00  0.00    +0.000 A 
ATOM      6  C   UNL     1      46.808   6.623  11.736  0.00  0.00    +0.000 A 
ENDROOT
BRANCH   4   7
ATOM      7  N   UNL     1      43.825   4.447  11.530  0.00  0.00    +0.000 N 
ATOM      8  H   UNL     1      43.032   5.024  11.799  0.00  0.00    +0.000 HD
BRANCH   7   9
ATOM      9  C   UNL     1      43.772   4.006  10.135  0.00  0.00    +0.000 C 
BRANCH   9  10
ATOM     10  C   UNL     1      44.485   2.655   9.969  0.00  0.00    +0.000 C 
BRANCH  10  11
ATOM     11  C   UNL     1      45.398   2.630   8.781  0.00  0.00    +0.000 A 
ATOM     12  C   UNL     1      45.661   3.787   8.044  0.00  0.00    +0.000 A 
ATOM     13  C   UNL     1      46.504   3.723   6.938  0.00  0.00    +0.000 A 
ATOM     14  C   UNL     1      47.061   2.497   6.591  0.00  0.00    +0.000 A 
ATOM     15  C   UNL     1      47.965   2.366   5.404  0.00  0.00    +0.000 C 
ATOM     16  N   UNL     1      46.820   1.362   7.289  0.00  0.00    +0.000 NA
ATOM     17  C   UNL     1      46.004   1.452   8.363  0.00  0.00    +0.000 A 
ENDBRANCH  10  11
ENDBRANCH   9  10
ENDBRANCH   7   9
ENDBRANCH   4   7
BRANCH   1  18
ATOM     18  C   UNL     1      48.659   6.890  13.455  0.00  0.00    +0.000 C 
BRANCH  18  21
ATOM     19  C   UNL     1      49.830   7.149  15.619  0.00  0.00    +0.000 C 
ATOM     20  O   UNL     1      50.897   7.406  15.062  0.00  0.00    +0.000 OA
ATOM     21  N   UNL     1      48.693   6.890  14.895  0.00  0.00    +0.000 N 
ATOM     22  H   UNL     1      47.817   6.743  15.378  0.00  0.00    +0.000 HD
BRANCH  19  30
ATOM     23  C   UNL     1      48.897   4.678  17.826  0.00  0.00    +0.000 A 
ATOM     24  N   UNL     1      48.654   3.887  18.891  0.00  0.00    +0.000 NA
ATOM     25  C   UNL     1      48.828   4.401  20.108  0.00  0.00    +0.000 A 
ATOM     26  N   UNL     1      49.211   5.639  20.409  0.00  0.00    +0.000 NA
ATOM     27  C   UNL     1      49.449   6.393  19.320  0.00  0.00    +0.000 A 
ATOM     28  S   UNL     1      49.940   8.006  19.512  0.00  0.00    +0.000 S 
ATOM     29  C   UNL     1      50.047   8.225  17.828  0.00  0.00    +0.000 A 
ATOM     30  C   UNL     1      49.722   7.092  17.089  0.00  0.00    +0.000 A 
ATOM     31  C   UNL     1      49.336   6.003  17.988  0.00  0.00    +0.000 A 
BRANCH  23  33
ATOM     32  C   UNL     1      48.032   2.888  16.569  0.00  0.00    +0.000 C 
ATOM     33  O   UNL     1      48.675   4.160  16.566  0.00  0.00    +0.000 OA
ENDBRANCH  23  33
ENDBRANCH  19  30
ENDBRANCH  18  21
ENDBRANCH   1  18
TORSDOF 8
ENDMDL
MODEL 2
REMARK VINA RESULT:    -7.630      1.175      1.592
REMARK INTER + INTRA:         -12.708
REMARK INTER:                 -11.721
REMARK INTRA:                  -0.987
REMARK UNBOUND:                -1.510
REMARK  Name = 
REMARK  10 active torsions:
REMARK  status: ('A' for Active; 'I' for Inactive)
REMARK    1  A    between atoms: C_1  and  O_2
REMARK    2  A    between atoms: O_2  and  C_3
REMARK    3  A    between atoms: C_10  and  C_11
REMARK    4  A    between atoms: N_13  and  C_14
REMARK    5  A    between atoms: C_14  and  C_15
REMARK    6  A    between atoms: C_18  and  N_19
REMARK    7  A    between atoms: N_19  and  C_20
REMARK    8  A    between atoms: C_20  and  C_21
REMARK    9  A    between atoms: C_21  and  C_22
REMARK   10  A    between atoms: C_25  and  C_26
REMARK                            x       y       z     vdW  Elec       q    Type
REMARK                         _______ _______ _______ _____ _____    ______ ____
ROOT
ATOM      1  C   UNL     1      46.411   6.442  13.158  0.00  0.00    +0.000 A 
ATOM      2  C   UNL     1      45.046   6.653  12.934  0.00  0.00    +0.000 A 
ATOM      3  C   UNL     1      44.171   5.572  12.770  0.00  0.00    +0.000 A 
ATOM      4  C   UNL     1      44.634   4.253  12.816  0.00  0.00    +0.000 A 
ATOM      5  C   UNL     1      45.983   4.045  13.119  0.00  0.00    +0.000 A 
ATOM      6  C   UNL     1      46.869   5.122  13.263  0.00  0.00    +0.000 A 
ENDROOT
BRANCH   4   7
ATOM      7  N   UNL     1      43.823   3.131  12.606  0.00  0.00    +0.000 N 
ATOM      8  H   UNL     1      43.029   3.129  13.242  0.00  0.00    +0.000 HD
BRANCH   7   9
ATOM      9  C   UNL     1      43.462   2.777  11.231  0.00  0.00    +0.000 C 
BRANCH   9  10
ATOM     10  C   UNL     1      43.881   3.894  10.261  0.00  0.00    +0.000 C 
BRANCH  10  11
ATOM     11  C   UNL     1      44.873   3.426   9.241  0.00  0.00    +0.000 A 
ATOM     12  C   UNL     1      45.211   2.075   9.125  0.00  0.00    +0.000 A 
ATOM     13  C   UNL     1      46.147   1.679   8.173  0.00  0.00    +0.000 A 
ATOM     14  C   UNL     1      46.729   2.648   7.363  0.00  0.00    +0.000 A 
ATOM     15  C   UNL     1      47.750   2.280   6.331  0.00  0.00    +0.000 C 
ATOM     16  N   UNL     1      46.417   3.962   7.458  0.00  0.00    +0.000 NA
ATOM     17  C   UNL     1      45.500   4.320   8.383  0.00  0.00    +0.000 A 
ENDBRANCH  10  11
ENDBRANCH   9  10
ENDBRANCH   7   9
ENDBRANCH   4   7
BRANCH   1  18
ATOM     18  C   UNL     1      47.345   7.617  13.318  0.00  0.00    +0.000 C 
BRANCH  18  21
ATOM     19  C   UNL     1      49.181   7.370  14.958  0.00  0.00    +0.000 C 
ATOM     20  O   UNL     1      49.975   7.024  14.084  0.00  0.00    +0.000 OA
ATOM     21  N   UNL     1      47.879   7.678  14.654  0.00  0.00    +0.000 N 
ATOM     22  H   UNL     1      47.265   8.019  15.381  0.00  0.00    +0.000 HD
BRANCH  19  30
ATOM     23  C   UNL     1      49.251   5.090  17.536  0.00  0.00    +0.000 A 
ATOM     24  N   UNL     1      49.446   4.400  18.678  0.00  0.00    +0.000 NA
ATOM     25  C   UNL     1      49.981   5.041  19.716  0.00  0.00    +0.000 A 
ATOM     26  N   UNL     1      50.344   6.320  19.769  0.00  0.00    +0.000 NA
ATOM     27  C   UNL     1      50.139   6.971  18.610  0.00  0.00    +0.000 A 
ATOM     28  S   UNL     1      50.536   8.616  18.495  0.00  0.00    +0.000 S 
ATOM     29  C   UNL     1      50.048   8.670  16.865  0.00  0.00    +0.000 A 
ATOM     30  C   UNL     1      49.583   7.455  16.374  0.00  0.00    +0.000 A 
ATOM     31  C   UNL     1      49.612   6.444  17.433  0.00  0.00    +0.000 A 
BRANCH  23  33
ATOM     32  C   UNL     1      47.354   3.936  16.760  0.00  0.00    +0.000 C 
ATOM     33  O   UNL     1      48.657   4.439  16.474  0.00  0.00    +0.000 OA
ENDBRANCH  23  33
ENDBRANCH  19  30
ENDBRANCH  18  21
ENDBRANCH   1  18
TORSDOF 8
ENDMDL
MODEL 3
REMARK VINA RESULT:    -7.514      2.371      2.959
REMARK INTER + INTRA:         -12.538
REMARK INTER:                 -11.338
REMARK INTRA:                  -1.200
REMARK UNBOUND:                -1.510
REMARK  Name = 
REMARK  10 active torsions:
REMARK  status: ('A' for Active; 'I' for Inactive)
REMARK    1  A    between atoms: C_1  and  O_2
REMARK    2  A    between atoms: O_2  and  C_3
REMARK    3  A    between atoms: C_10  and  C_11
REMARK    4  A    between atoms: N_13  and  C_14
REMARK    5  A    between atoms: C_14  and  C_15
REMARK    6  A    between atoms: C_18  and  N_19
REMARK    7  A    between atoms: N_19  and  C_20
REMARK    8  A    between atoms: C_20  and  C_21
REMARK    9  A    between atoms: C_21  and  C_22
REMARK   10  A    between atoms: C_25  and  C_26
REMARK                            x       y       z     vdW  Elec       q    Type
REMARK                         _______ _______ _______ _____ _____    ______ ____
ROOT
ATOM      1  C   UNL     1      48.121   6.287  14.717  0.00  0.00    +0.000 A 
ATOM      2  C   UNL     1      47.876   6.801  13.438  0.00  0.00    +0.000 A 
ATOM      3  C   UNL     1      47.004   6.148  12.558  0.00  0.00    +0.000 A 
ATOM      4  C   UNL     1      46.359   4.963  12.925  0.00  0.00    +0.000 A 
ATOM      5  C   UNL     1      46.543   4.496  14.231  0.00  0.00    +0.000 A 
ATOM      6  C   UNL     1      47.431   5.132  15.110  0.00  0.00    +0.000 A 
ENDROOT
BRANCH   4   7
ATOM      7  N   UNL     1      45.519   4.233  12.075  0.00  0.00    +0.000 N 
ATOM      8  H   UNL     1      45.141   3.416  12.549  0.00  0.00    +0.000 HD
BRANCH   7   9
ATOM      9  C   UNL     1      44.519   4.960  11.290  0.00  0.00    +0.000 C 
BRANCH   9  10
ATOM     10  C   UNL     1      43.884   4.036  10.239  0.00  0.00    +0.000 C 
BRANCH  10  11
ATOM     11  C   UNL     1      44.883   3.525   9.246  0.00  0.00    +0.000 A 
ATOM     12  C   UNL     1      45.174   2.162   9.146  0.00  0.00    +0.000 A 
ATOM     13  C   UNL     1      46.118   1.725   8.220  0.00  0.00    +0.000 A 
ATOM     14  C   UNL     1      46.754   2.666   7.419  0.00  0.00    +0.000 A 
ATOM     15  C   UNL     1      47.787   2.255   6.415  0.00  0.00    +0.000 C 
ATOM     16  N   UNL     1      46.489   3.992   7.499  0.00  0.00    +0.000 NA
ATOM     17  C   UNL     1      45.564   4.389   8.399  0.00  0.00    +0.000 A 
ENDBRANCH  10  11
ENDBRANCH   9  10
ENDBRANCH   7   9
ENDBRANCH   4   7
BRANCH   1  18
ATOM     18  C   UNL     1      49.074   6.993  15.650  0.00  0.00    +0.000 C 
BRANCH  18  21
ATOM     19  C   UNL     1      50.295   6.026  17.573  0.00  0.00    +0.000 C 
ATOM     20  O   UNL     1      49.742   6.789  18.365  0.00  0.00    +0.000 OA
ATOM     21  N   UNL     1      50.014   6.068  16.230  0.00  0.00    +0.000 N 
ATOM     22  H   UNL     1      50.436   5.389  15.611  0.00  0.00    +0.000 HD
BRANCH  19  30
ATOM     23  C   UNL     1      50.582   2.614  17.222  0.00  0.00    +0.000 A 
ATOM     24  N   UNL     1      50.971   1.324  17.172  0.00  0.00    +0.000 NA
ATOM     25  C   UNL     1      52.136   0.997  17.730  0.00  0.00    +0.000 A 
ATOM     26  N   UNL     1      52.980   1.810  18.360  0.00  0.00    +0.000 NA
ATOM     27  C   UNL     1      52.559   3.088  18.382  0.00  0.00    +0.000 A 
ATOM     28  S   UNL     1      53.506   4.266  19.152  0.00  0.00    +0.000 S 
ATOM     29  C   UNL     1      52.396   5.492  18.747  0.00  0.00    +0.000 A 
ATOM     30  C   UNL     1      51.297   5.043  18.023  0.00  0.00    +0.000 A 
ATOM     31  C   UNL     1      51.384   3.594  17.831  0.00  0.00    +0.000 A 
BRANCH  23  33
ATOM     32  C   UNL     1      48.255   2.698  17.556  0.00  0.00    +0.000 C 
ATOM     33  O   UNL     1      49.356   2.946  16.684  0.00  0.00    +0.000 OA
ENDBRANCH  23  33
ENDBRANCH  19  30
ENDBRANCH  18  21
ENDBRANCH   1  18
TORSDOF 8
ENDMDL
MODEL 4
REMARK VINA RESULT:    -7.221      1.751      2.035
REMARK INTER + INTRA:         -12.108
REMARK INTER:                 -10.596
REMARK INTRA:                  -1.512
REMARK UNBOUND:                -1.510
REMARK  Name = 
REMARK  10 active torsions:
REMARK  status: ('A' for Active; 'I' for Inactive)
REMARK    1  A    between atoms: C_1  and  O_2
REMARK    2  A    between atoms: O_2  and  C_3
REMARK    3  A    between atoms: C_10  and  C_11
REMARK    4  A    between atoms: N_13  and  C_14
REMARK    5  A    between atoms: C_14  and  C_15
REMARK    6  A    between atoms: C_18  and  N_19
REMARK    7  A    between atoms: N_19  and  C_20
REMARK    8  A    between atoms: C_20  and  C_21
REMARK    9  A    between atoms: C_21  and  C_22
REMARK   10  A    between atoms: C_25  and  C_26
REMARK                            x       y       z     vdW  Elec       q    Type
REMARK                         _______ _______ _______ _____ _____    ______ ____
ROOT
ATOM      1  C   UNL     1      47.121   7.305  12.830  0.00  0.00    +0.000 A 
ATOM      2  C   UNL     1      47.072   5.971  13.250  0.00  0.00    +0.000 A 
ATOM      3  C   UNL     1      45.864   5.261  13.244  0.00  0.00    +0.000 A 
ATOM      4  C   UNL     1      44.674   5.864  12.828  0.00  0.00    +0.000 A 
ATOM      5  C   UNL     1      44.741   7.171  12.333  0.00  0.00    +0.000 A 
ATOM      6  C   UNL     1      45.941   7.894  12.356  0.00  0.00    +0.000 A 
ENDROOT
BRANCH   4   7
ATOM      7  N   UNL     1      43.426   5.229  12.848  0.00  0.00    +0.000 N 
ATOM      8  H   UNL     1      42.733   5.800  13.327  0.00  0.00    +0.000 HD
BRANCH   7   9
ATOM      9  C   UNL     1      42.926   4.634  11.607  0.00  0.00    +0.000 C 
BRANCH   9  10
ATOM     10  C   UNL     1      43.594   3.273  11.355  0.00  0.00    +0.000 C 
BRANCH  10  11
ATOM     11  C   UNL     1      44.433   3.266  10.114  0.00  0.00    +0.000 A 
ATOM     12  C   UNL     1      44.889   4.456   9.540  0.00  0.00    +0.000 A 
ATOM     13  C   UNL     1      45.655   4.411   8.378  0.00  0.00    +0.000 A 
ATOM     14  C   UNL     1      45.942   3.174   7.813  0.00  0.00    +0.000 A 
ATOM     15  C   UNL     1      46.752   3.067   6.557  0.00  0.00    +0.000 C 
ATOM     16  N   UNL     1      45.511   2.008   8.351  0.00  0.00    +0.000 NA
ATOM     17  C   UNL     1      44.776   2.078   9.482  0.00  0.00    +0.000 A 
ENDBRANCH  10  11
ENDBRANCH   9  10
ENDBRANCH   7   9
ENDBRANCH   4   7
BRANCH   1  18
ATOM     18  C   UNL     1      48.427   8.062  12.856  0.00  0.00    +0.000 C 
BRANCH  18  21
ATOM     19  C   UNL     1      49.528   7.733  15.046  0.00  0.00    +0.000 C 
ATOM     20  O   UNL     1      48.827   8.593  15.579  0.00  0.00    +0.000 OA
ATOM     21  N   UNL     1      49.384   7.419  13.718  0.00  0.00    +0.000 N 
ATOM     22  H   UNL     1      49.930   6.666  13.321  0.00  0.00    +0.000 HD
BRANCH  19  30
ATOM     23  C   UNL     1      49.442   5.069  17.224  0.00  0.00    +0.000 A 
ATOM     24  N   UNL     1      49.699   4.019  18.032  0.00  0.00    +0.000 NA
ATOM     25  C   UNL     1      50.969   3.761  18.341  0.00  0.00    +0.000 A 
ATOM     26  N   UNL     1      52.044   4.439  17.948  0.00  0.00    +0.000 NA
ATOM     27  C   UNL     1      51.746   5.473  17.141  0.00  0.00    +0.000 A 
ATOM     28  S   UNL     1      52.995   6.457  16.549  0.00  0.00    +0.000 S 
ATOM     29  C   UNL     1      51.892   7.412  15.673  0.00  0.00    +0.000 A 
ATOM     30  C   UNL     1      50.567   7.009  15.803  0.00  0.00    +0.000 A 
ATOM     31  C   UNL     1      50.481   5.861  16.708  0.00  0.00    +0.000 A 
BRANCH  23  33
ATOM     32  C   UNL     1      47.344   4.228  16.573  0.00  0.00    +0.000 C 
ATOM     33  O   UNL     1      48.125   5.364  16.939  0.00  0.00    +0.000 OA
ENDBRANCH  23  33
ENDBRANCH  19  30
ENDBRANCH  18  21
ENDBRANCH   1  18
TORSDOF 8
ENDMDL
MODEL 5
REMARK VINA RESULT:    -6.695      2.011      3.200
REMARK INTER + INTRA:         -11.336
REMARK INTER:                 -10.093
REMARK INTRA:                  -1.243
REMARK UNBOUND:                -1.510
REMARK  Name = 
REMARK  10 active torsions:
REMARK  status: ('A' for Active; 'I' for Inactive)
REMARK    1  A    between atoms: C_1  and  O_2
REMARK    2  A    between atoms: O_2  and  C_3
REMARK    3  A    between atoms: C_10  and  C_11
REMARK    4  A    between atoms: N_13  and  C_14
REMARK    5  A    between atoms: C_14  and  C_15
REMARK    6  A    between atoms: C_18  and  N_19
REMARK    7  A    between atoms: N_19  and  C_20
REMARK    8  A    between atoms: C_20  and  C_21
REMARK    9  A    between atoms: C_21  and  C_22
REMARK   10  A    between atoms: C_25  and  C_26
REMARK                            x       y       z     vdW  Elec       q    Type
REMARK                         _______ _______ _______ _____ _____    ______ ____
ROOT
ATOM      1  C   UNL     1      46.794   4.422  14.107  0.00  0.00    +0.000 A 
ATOM      2  C   UNL     1      46.841   5.793  13.833  0.00  0.00    +0.000 A 
ATOM      3  C   UNL     1      46.214   6.319  12.695  0.00  0.00    +0.000 A 
ATOM      4  C   UNL     1      45.532   5.492  11.798  0.00  0.00    +0.000 A 
ATOM      5  C   UNL     1      45.419   4.135  12.117  0.00  0.00    +0.000 A 
ATOM      6  C   UNL     1      46.061   3.598  13.241  0.00  0.00    +0.000 A 
ENDROOT
BRANCH   4   7
ATOM      7  N   UNL     1      44.931   5.945  10.617  0.00  0.00    +0.000 N 
ATOM      8  H   UNL     1      45.426   6.750  10.240  0.00  0.00    +0.000 HD
BRANCH   7   9
ATOM      9  C   UNL     1      44.571   4.959   9.595  0.00  0.00    +0.000 C 
BRANCH   9  10
ATOM     10  C   UNL     1      45.694   4.828   8.554  0.00  0.00    +0.000 C 
BRANCH  10  11
ATOM     11  C   UNL     1      46.012   3.400   8.231  0.00  0.00    +0.000 A 
ATOM     12  C   UNL     1      46.973   3.070   7.272  0.00  0.00    +0.000 A 
ATOM     13  C   UNL     1      47.232   1.732   6.987  0.00  0.00    +0.000 A 
ATOM     14  C   UNL     1      46.516   0.753   7.667  0.00  0.00    +0.000 A 
ATOM     15  C   UNL     1      46.745  -0.702   7.393  0.00  0.00    +0.000 C 
ATOM     16  N   UNL     1      45.580   1.048   8.600  0.00  0.00    +0.000 NA
ATOM     17  C   UNL     1      45.352   2.354   8.863  0.00  0.00    +0.000 A 
ENDBRANCH  10  11
ENDBRANCH   9  10
ENDBRANCH   7   9
ENDBRANCH   4   7
BRANCH   1  18
ATOM     18  C   UNL     1      47.486   3.867  15.328  0.00  0.00    +0.000 C 
BRANCH  18  21
ATOM     19  C   UNL     1      48.431   5.371  17.050  0.00  0.00    +0.000 C 
ATOM     20  O   UNL     1      49.579   5.185  16.646  0.00  0.00    +0.000 OA
ATOM     21  N   UNL     1      47.358   4.760  16.450  0.00  0.00    +0.000 N 
ATOM     22  H   UNL     1      46.421   4.978  16.762  0.00  0.00    +0.000 HD
BRANCH  19  30
ATOM     23  C   UNL     1      48.146   8.780  17.423  0.00  0.00    +0.000 A 
ATOM     24  N   UNL     1      47.914  10.046  17.829  0.00  0.00    +0.000 NA
ATOM     25  C   UNL     1      47.576  10.246  19.102  0.00  0.00    +0.000 A 
ATOM     26  N   UNL     1      47.448   9.323  20.052  0.00  0.00    +0.000 NA
ATOM     27  C   UNL     1      47.682   8.075  19.607  0.00  0.00    +0.000 A 
ATOM     28  S   UNL     1      47.573   6.770  20.684  0.00  0.00    +0.000 S 
ATOM     29  C   UNL     1      47.945   5.658  19.450  0.00  0.00    +0.000 A 
ATOM     30  C   UNL     1      48.152   6.243  18.205  0.00  0.00    +0.000 A 
ATOM     31  C   UNL     1      48.022   7.698  18.310  0.00  0.00    +0.000 A 
BRANCH  23  33
ATOM     32  C   UNL     1      49.945   8.684  15.912  0.00  0.00    +0.000 C 
ATOM     33  O   UNL     1      48.538   8.577  16.116  0.00  0.00    +0.000 OA
ENDBRANCH  23  33
ENDBRANCH  19  30
ENDBRANCH  18  21
ENDBRANCH   1  18
TORSDOF 8
ENDMDL
MODEL 6
REMARK VINA RESULT:    -6.661      3.802      8.746
REMARK INTER + INTRA:         -11.286
REMARK INTER:                  -9.780
REMARK INTRA:                  -1.506
REMARK UNBOUND:                -1.510
REMARK  Name = 
REMARK  10 active torsions:
REMARK  status: ('A' for Active; 'I' for Inactive)
REMARK    1  A    between atoms: C_1  and  O_2
REMARK    2  A    between atoms: O_2  and  C_3
REMARK    3  A    between atoms: C_10  and  C_11
REMARK    4  A    between atoms: N_13  and  C_14
REMARK    5  A    between atoms: C_14  and  C_15
REMARK    6  A    between atoms: C_18  and  N_19
REMARK    7  A    between atoms: N_19  and  C_20
REMARK    8  A    between atoms: C_20  and  C_21
REMARK    9  A    between atoms: C_21  and  C_22
REMARK   10  A    between atoms: C_25  and  C_26
REMARK                            x       y       z     vdW  Elec       q    Type
REMARK                         _______ _______ _______ _____ _____    ______ ____
ROOT
ATOM      1  C   UNL     1      48.645   3.408  17.403  0.00  0.00    +0.000 A 
ATOM      2  C   UNL     1      49.502   2.380  16.996  0.00  0.00    +0.000 A 
ATOM      3  C   UNL     1      50.864   2.410  17.323  0.00  0.00    +0.000 A 
ATOM      4  C   UNL     1      51.408   3.469  18.056  0.00  0.00    +0.000 A 
ATOM      5  C   UNL     1      50.534   4.453  18.529  0.00  0.00    +0.000 A 
ATOM      6  C   UNL     1      49.175   4.441  18.188  0.00  0.00    +0.000 A 
ENDROOT
BRANCH   4   7
ATOM      7  N   UNL     1      52.768   3.587  18.370  0.00  0.00    +0.000 N 
ATOM      8  H   UNL     1      53.322   2.906  17.855  0.00  0.00    +0.000 HD
BRANCH   7   9
ATOM      9  C   UNL     1      53.366   4.923  18.389  0.00  0.00    +0.000 C 
BRANCH   9  10
ATOM     10  C   UNL     1      54.205   5.156  17.122  0.00  0.00    +0.000 C 
BRANCH  10  11
ATOM     11  C   UNL     1      53.613   6.199  16.224  0.00  0.00    +0.000 A 
ATOM     12  C   UNL     1      52.303   6.650  16.402  0.00  0.00    +0.000 A 
ATOM     13  C   UNL     1      51.781   7.611  15.540  0.00  0.00    +0.000 A 
ATOM     14  C   UNL     1      52.584   8.094  14.513  0.00  0.00    +0.000 A 
ATOM     15  C   UNL     1      52.072   9.119  13.549  0.00  0.00    +0.000 C 
ATOM     16  N   UNL     1      53.856   7.671  14.321  0.00  0.00    +0.000 NA
ATOM     17  C   UNL     1      54.341   6.744  15.175  0.00  0.00    +0.000 A 
ENDBRANCH  10  11
ENDBRANCH   9  10
ENDBRANCH   7   9
ENDBRANCH   4   7
BRANCH   1  18
ATOM     18  C   UNL     1      47.182   3.371  17.030  0.00  0.00    +0.000 C 
BRANCH  18  21
ATOM     19  C   UNL     1      47.020   4.174  14.696  0.00  0.00    +0.000 C 
ATOM     20  O   UNL     1      47.431   3.103  14.252  0.00  0.00    +0.000 OA
ATOM     21  N   UNL     1      46.870   4.374  16.045  0.00  0.00    +0.000 N 
ATOM     22  H   UNL     1      46.473   5.242  16.380  0.00  0.00    +0.000 HD
BRANCH  19  30
ATOM     23  C   UNL     1      44.324   4.860  12.668  0.00  0.00    +0.000 A 
ATOM     24  N   UNL     1      43.381   5.400  11.870  0.00  0.00    +0.000 NA
ATOM     25  C   UNL     1      43.606   6.612  11.362  0.00  0.00    +0.000 A 
ATOM     26  N   UNL     1      44.685   7.369  11.543  0.00  0.00    +0.000 NA
ATOM     27  C   UNL     1      45.598   6.798  12.349  0.00  0.00    +0.000 A 
ATOM     28  S   UNL     1      47.045   7.618  12.685  0.00  0.00    +0.000 S 
ATOM     29  C   UNL     1      47.581   6.357  13.696  0.00  0.00    +0.000 A 
ATOM     30  C   UNL     1      46.683   5.300  13.805  0.00  0.00    +0.000 A 
ATOM     31  C   UNL     1      45.506   5.556  12.972  0.00  0.00    +0.000 A 
BRANCH  23  33
ATOM     32  C   UNL     1      43.529   2.694  12.213  0.00  0.00    +0.000 C 
ATOM     33  O   UNL     1      44.112   3.588  13.158  0.00  0.00    +0.000 OA
ENDBRANCH  23  33
ENDBRANCH  19  30
ENDBRANCH  18  21
ENDBRANCH   1  18
TORSDOF 8
ENDMDL
MODEL 7
REMARK VINA RESULT:    -6.633      2.477      3.265
REMARK INTER + INTRA:         -11.245
REMARK INTER:                 -10.109
REMARK INTRA:                  -1.135
REMARK UNBOUND:                -1.510
REMARK  Name = 
REMARK  10 active torsions:
REMARK  status: ('A' for Active; 'I' for Inactive)
REMARK    1  A    between atoms: C_1  and  O_2
REMARK    2  A    between atoms: O_2  and  C_3
REMARK    3  A    between atoms: C_10  and  C_11
REMARK    4  A    between atoms: N_13  and  C_14
REMARK    5  A    between atoms: C_14  and  C_15
REMARK    6  A    between atoms: C_18  and  N_19
REMARK    7  A    between atoms: N_19  and  C_20
REMARK    8  A    between atoms: C_20  and  C_21
REMARK    9  A    between atoms: C_21  and  C_22
REMARK   10  A    between atoms: C_25  and  C_26
REMARK                            x       y       z     vdW  Elec       q    Type
REMARK                         _______ _______ _______ _____ _____    ______ ____
ROOT
ATOM      1  C   UNL     1      47.771   6.938  13.252  0.00  0.00    +0.000 A 
ATOM      2  C   UNL     1      47.419   5.770  13.938  0.00  0.00    +0.000 A 
ATOM      3  C   UNL     1      46.304   5.017  13.548  0.00  0.00    +0.000 A 
ATOM      4  C   UNL     1      45.506   5.413  12.471  0.00  0.00    +0.000 A 
ATOM      5  C   UNL     1      45.906   6.536  11.739  0.00  0.00    +0.000 A 
ATOM      6  C   UNL     1      47.007   7.306  12.136  0.00  0.00    +0.000 A 
ENDROOT
BRANCH   4   7
ATOM      7  N   UNL     1      44.349   4.737  12.064  0.00  0.00    +0.000 N 
ATOM      8  H   UNL     1      43.547   5.011  12.628  0.00  0.00    +0.000 HD
BRANCH   7   9
ATOM      9  C   UNL     1      44.049   4.668  10.632  0.00  0.00    +0.000 C 
BRANCH   9  10
ATOM     10  C   UNL     1      44.078   3.209  10.146  0.00  0.00    +0.000 C 
BRANCH  10  11
ATOM     11  C   UNL     1      45.089   2.985   9.063  0.00  0.00    +0.000 A 
ATOM     12  C   UNL     1      45.570   4.043   8.289  0.00  0.00    +0.000 A 
ATOM     13  C   UNL     1      46.499   3.795   7.283  0.00  0.00    +0.000 A 
ATOM     14  C   UNL     1      46.921   2.487   7.070  0.00  0.00    +0.000 A 
ATOM     15  C   UNL     1      47.909   2.159   5.993  0.00  0.00    +0.000 C 
ATOM     16  N   UNL     1      46.468   1.445   7.807  0.00  0.00    +0.000 NA
ATOM     17  C   UNL     1      45.573   1.714   8.782  0.00  0.00    +0.000 A 
ENDBRANCH  10  11
ENDBRANCH   9  10
ENDBRANCH   7   9
ENDBRANCH   4   7
BRANCH   1  18
ATOM     18  C   UNL     1      48.966   7.748  13.693  0.00  0.00    +0.000 C 
BRANCH  18  21
ATOM     19  C   UNL     1      49.836   7.033  15.896  0.00  0.00    +0.000 C 
ATOM     20  O   UNL     1      49.055   7.773  16.494  0.00  0.00    +0.000 OA
ATOM     21  N   UNL     1      49.845   6.967  14.525  0.00  0.00    +0.000 N 
ATOM     22  H   UNL     1      50.453   6.306  14.061  0.00  0.00    +0.000 HD
BRANCH  19  30
ATOM     23  C   UNL     1      53.268   6.787  15.812  0.00  0.00    +0.000 A 
ATOM     24  N   UNL     1      54.576   6.541  16.029  0.00  0.00    +0.000 NA
ATOM     25  C   UNL     1      54.901   5.653  16.968  0.00  0.00    +0.000 A 
ATOM     26  N   UNL     1      54.066   4.950  17.730  0.00  0.00    +0.000 NA
ATOM     27  C   UNL     1      52.773   5.229  17.487  0.00  0.00    +0.000 A 
ATOM     28  S   UNL     1      51.566   4.418  18.360  0.00  0.00    +0.000 S 
ATOM     29  C   UNL     1      50.337   5.279  17.554  0.00  0.00    +0.000 A 
ATOM     30  C   UNL     1      50.809   6.194  16.619  0.00  0.00    +0.000 A 
ATOM     31  C   UNL     1      52.271   6.140  16.561  0.00  0.00    +0.000 A 
BRANCH  23  33
ATOM     32  C   UNL     1      54.018   8.029  13.961  0.00  0.00    +0.000 C 
ATOM     33  O   UNL     1      52.930   7.674  14.810  0.00  0.00    +0.000 OA
ENDBRANCH  23  33
ENDBRANCH  19  30
ENDBRANCH  18  21
ENDBRANCH   1  18
TORSDOF 8
ENDMDL
MODEL 8
REMARK VINA RESULT:    -6.579      4.688      9.418
REMARK INTER + INTRA:         -11.166
REMARK INTER:                 -10.135
REMARK INTRA:                  -1.031
REMARK UNBOUND:                -1.510
REMARK  Name = 
REMARK  10 active torsions:
REMARK  status: ('A' for Active; 'I' for Inactive)
REMARK    1  A    between atoms: C_1  and  O_2
REMARK    2  A    between atoms: O_2  and  C_3
REMARK    3  A    between atoms: C_10  and  C_11
REMARK    4  A    between atoms: N_13  and  C_14
REMARK    5  A    between atoms: C_14  and  C_15
REMARK    6  A    between atoms: C_18  and  N_19
REMARK    7  A    between atoms: N_19  and  C_20
REMARK    8  A    between atoms: C_20  and  C_21
REMARK    9  A    between atoms: C_21  and  C_22
REMARK   10  A    between atoms: C_25  and  C_26
REMARK                            x       y       z     vdW  Elec       q    Type
REMARK                         _______ _______ _______ _____ _____    ______ ____
ROOT
ATOM      1  C   UNL     1      48.665   3.592  17.115  0.00  0.00    +0.000 A 
ATOM      2  C   UNL     1      49.468   2.446  17.136  0.00  0.00    +0.000 A 
ATOM      3  C   UNL     1      50.836   2.535  17.426  0.00  0.00    +0.000 A 
ATOM      4  C   UNL     1      51.440   3.767  17.693  0.00  0.00    +0.000 A 
ATOM      5  C   UNL     1      50.620   4.898  17.750  0.00  0.00    +0.000 A 
ATOM      6  C   UNL     1      49.255   4.821  17.440  0.00  0.00    +0.000 A 
ENDROOT
BRANCH   4   7
ATOM      7  N   UNL     1      52.810   3.932  17.936  0.00  0.00    +0.000 N 
ATOM      8  H   UNL     1      53.035   4.908  18.111  0.00  0.00    +0.000 HD
BRANCH   7   9
ATOM      9  C   UNL     1      53.469   3.011  18.864  0.00  0.00    +0.000 C 
BRANCH   9  10
ATOM     10  C   UNL     1      54.883   2.667  18.369  0.00  0.00    +0.000 C 
BRANCH  10  11
ATOM     11  C   UNL     1      54.956   1.310  17.739  0.00  0.00    +0.000 A 
ATOM     12  C   UNL     1      55.415   1.141  16.430  0.00  0.00    +0.000 A 
ATOM     13  C   UNL     1      55.456  -0.134  15.873  0.00  0.00    +0.000 A 
ATOM     14  C   UNL     1      55.029  -1.213  16.639  0.00  0.00    +0.000 A 
ATOM     15  C   UNL     1      55.040  -2.605  16.087  0.00  0.00    +0.000 C 
ATOM     16  N   UNL     1      54.580  -1.074  17.909  0.00  0.00    +0.000 NA
ATOM     17  C   UNL     1      54.557   0.173  18.429  0.00  0.00    +0.000 A 
ENDBRANCH  10  11
ENDBRANCH   9  10
ENDBRANCH   7   9
ENDBRANCH   4   7
BRANCH   1  18
ATOM     18  C   UNL     1      47.196   3.484  16.787  0.00  0.00    +0.000 C 
BRANCH  18  21
ATOM     19  C   UNL     1      46.859   4.209  14.446  0.00  0.00    +0.000 C 
ATOM     20  O   UNL     1      47.236   3.122  14.008  0.00  0.00    +0.000 OA
ATOM     21  N   UNL     1      46.811   4.454  15.795  0.00  0.00    +0.000 N 
ATOM     22  H   UNL     1      46.439   5.334  16.130  0.00  0.00    +0.000 HD
BRANCH  19  30
ATOM     23  C   UNL     1      43.998   4.861  12.647  0.00  0.00    +0.000 A 
ATOM     24  N   UNL     1      42.993   5.387  11.917  0.00  0.00    +0.000 NA
ATOM     25  C   UNL     1      43.186   6.574  11.343  0.00  0.00    +0.000 A 
ATOM     26  N   UNL     1      44.287   7.319  11.394  0.00  0.00    +0.000 NA
ATOM     27  C   UNL     1      45.263   6.764  12.135  0.00  0.00    +0.000 A 
ATOM     28  S   UNL     1      46.745   7.571  12.305  0.00  0.00    +0.000 S 
ATOM     29  C   UNL     1      47.355   6.342  13.312  0.00  0.00    +0.000 A 
ATOM     30  C   UNL     1      46.457   5.305  13.545  0.00  0.00    +0.000 A 
ATOM     31  C   UNL     1      45.212   5.549  12.814  0.00  0.00    +0.000 A 
BRANCH  23  33
ATOM     32  C   UNL     1      43.580   2.581  12.249  0.00  0.00    +0.000 C 
ATOM     33  O   UNL     1      43.815   3.613  13.205  0.00  0.00    +0.000 OA
ENDBRANCH  23  33
ENDBRANCH  19  30
ENDBRANCH  18  21
ENDBRANCH   1  18
TORSDOF 8
ENDMDL
MODEL 9
REMARK VINA RESULT:    -6.444      3.438      5.161
REMARK INTER + INTRA:         -10.967
REMARK INTER:                  -9.719
REMARK INTRA:                  -1.248
REMARK UNBOUND:                -1.510
REMARK  Name = 
REMARK  10 active torsions:
REMARK  status: ('A' for Active; 'I' for Inactive)
REMARK    1  A    between atoms: C_1  and  O_2
REMARK    2  A    between atoms: O_2  and  C_3
REMARK    3  A    between atoms: C_10  and  C_11
REMARK    4  A    between atoms: N_13  and  C_14
REMARK    5  A    between atoms: C_14  and  C_15
REMARK    6  A    between atoms: C_18  and  N_19
REMARK    7  A    between atoms: N_19  and  C_20
REMARK    8  A    between atoms: C_20  and  C_21
REMARK    9  A    between atoms: C_21  and  C_22
REMARK   10  A    between atoms: C_25  and  C_26
REMARK                            x       y       z     vdW  Elec       q    Type
REMARK                         _______ _______ _______ _____ _____    ______ ____
ROOT
ATOM      1  C   UNL     1      48.111   4.410  16.614  0.00  0.00    +0.000 A 
ATOM      2  C   UNL     1      47.310   4.099  15.510  0.00  0.00    +0.000 A 
ATOM      3  C   UNL     1      47.155   5.009  14.456  0.00  0.00    +0.000 A 
ATOM      4  C   UNL     1      47.788   6.255  14.480  0.00  0.00    +0.000 A 
ATOM      5  C   UNL     1      48.651   6.530  15.546  0.00  0.00    +0.000 A 
ATOM      6  C   UNL     1      48.794   5.634  16.613  0.00  0.00    +0.000 A 
ENDROOT
BRANCH   4   7
ATOM      7  N   UNL     1      47.633   7.231  13.487  0.00  0.00    +0.000 N 
ATOM      8  H   UNL     1      48.371   7.930  13.543  0.00  0.00    +0.000 HD
BRANCH   7   9
ATOM      9  C   UNL     1      47.353   6.795  12.118  0.00  0.00    +0.000 C 
BRANCH   9  10
ATOM     10  C   UNL     1      45.836   6.714  11.879  0.00  0.00    +0.000 C 
BRANCH  10  11
ATOM     11  C   UNL     1      45.438   5.474  11.137  0.00  0.00    +0.000 A 
ATOM     12  C   UNL     1      44.875   4.381  11.800  0.00  0.00    +0.000 A 
ATOM     13  C   UNL     1      44.529   3.241  11.080  0.00  0.00    +0.000 A 
ATOM     14  C   UNL     1      44.763   3.220   9.709  0.00  0.00    +0.000 A 
ATOM     15  C   UNL     1      44.422   2.015   8.886  0.00  0.00    +0.000 C 
ATOM     16  N   UNL     1      45.308   4.266   9.045  0.00  0.00    +0.000 NA
ATOM     17  C   UNL     1      45.627   5.363   9.765  0.00  0.00    +0.000 A 
ENDBRANCH  10  11
ENDBRANCH   9  10
ENDBRANCH   7   9
ENDBRANCH   4   7
BRANCH   1  18
ATOM     18  C   UNL     1      48.257   3.425  17.749  0.00  0.00    +0.000 C 
BRANCH  18  21
ATOM     19  C   UNL     1      50.333   2.209  17.173  0.00  0.00    +0.000 C 
ATOM     20  O   UNL     1      49.799   1.664  16.208  0.00  0.00    +0.000 OA
ATOM     21  N   UNL     1      49.639   3.085  17.969  0.00  0.00    +0.000 N 
ATOM     22  H   UNL     1      50.118   3.566  18.718  0.00  0.00    +0.000 HD
BRANCH  19  30
ATOM     23  C   UNL     1      53.047   4.232  17.799  0.00  0.00    +0.000 A 
ATOM     24  N   UNL     1      54.227   4.778  18.155  0.00  0.00    +0.000 NA
ATOM     25  C   UNL     1      55.219   3.959  18.505  0.00  0.00    +0.000 A 
ATOM     26  N   UNL     1      55.188   2.630  18.534  0.00  0.00    +0.000 NA
ATOM     27  C   UNL     1      53.993   2.124  18.178  0.00  0.00    +0.000 A 
ATOM     28  S   UNL     1      53.772   0.443  18.149  0.00  0.00    +0.000 S 
ATOM     29  C   UNL     1      52.147   0.616  17.673  0.00  0.00    +0.000 A 
ATOM     30  C   UNL     1      51.737   1.938  17.532  0.00  0.00    +0.000 A 
ATOM     31  C   UNL     1      52.857   2.840  17.809  0.00  0.00    +0.000 A 
BRANCH  23  33
ATOM     32  C   UNL     1      52.494   6.298  16.820  0.00  0.00    +0.000 C 
ATOM     33  O   UNL     1      52.034   5.077  17.395  0.00  0.00    +0.000 OA
ENDBRANCH  23  33
ENDBRANCH  19  30
ENDBRANCH  18  21
ENDBRANCH   1  18
TORSDOF 8
ENDMDL
