MODEL 1
REMARK VINA RESULT:    -7.787      0.000      0.000
REMARK INTER + INTRA:         -11.395
REMARK INTER:                 -10.518
REMARK INTRA:                  -0.877
REMARK UNBOUND:                -0.877
REMARK  Name = 
REMARK  7 active torsions:
REMARK  status: ('A' for Active; 'I' for Inactive)
REMARK    1  A    between atoms: C_1  and  N_2
REMARK    2  A    between atoms: N_2  and  C_3
REMARK    3  A    between atoms: C_3  and  C_4
REMARK    4  A    between atoms: C_7  and  C_8
REMARK    5  A    between atoms: C_8  and  O_9
REMARK    6  A    between atoms: O_9  and  C_10
REMARK    7  A    between atoms: C_13  and  C_14
REMARK                            x       y       z     vdW  Elec       q    Type
REMARK                         _______ _______ _______ _____ _____    ______ ____
ROOT
ATOM      1  C   UNL     1      43.534   4.404  11.355  0.00  0.00    +0.000 C 
ENDROOT
BRANCH   1   5
ATOM      2  C   UNL     1      46.946   6.331  13.213  0.00  0.00    +0.000 A 
ATOM      3  C   UNL     1      45.974   7.085  12.535  0.00  0.00    +0.000 A 
ATOM      4  C   UNL     1      44.865   6.465  11.949  0.00  0.00    +0.000 A 
ATOM      5  C   UNL     1      44.714   5.073  12.005  0.00  0.00    +0.000 A 
ATOM      6  C   UNL     1      45.688   4.329  12.673  0.00  0.00    +0.000 A 
ATOM      7  F   UNL     1      45.587   2.993  12.728  0.00  0.00    +0.000 F 
ATOM      8  C   UNL     1      46.791   4.940  13.270  0.00  0.00    +0.000 A 
BRANCH   2   9
ATOM      9  C   UNL     1      48.144   6.999  13.851  0.00  0.00    +0.000 C 
BRANCH   9  11
ATOM     10  C   UNL     1      49.674   7.608  12.095  0.00  0.00    +0.000 C 
ATOM     11  N   UNL     1      49.384   6.654  13.154  0.00  0.00    +0.000 NA
ATOM     12  H   UNL     1      50.154   6.652  13.820  0.00  0.00    +0.000 HD
ENDBRANCH   9  11
ENDBRANCH   2   9
ENDBRANCH   1   5
BRANCH   1  13
ATOM     13  O   UNL     1      43.600   4.581   9.938  0.00  0.00    +0.000 OA
BRANCH  13  14
ATOM     14  C   UNL     1      44.499   3.801   9.265  0.00  0.00    +0.000 A 
ATOM     15  C   UNL     1      44.649   2.421   9.383  0.00  0.00    +0.000 A 
ATOM     16  C   UNL     1      45.612   1.760   8.619  0.00  0.00    +0.000 A 
ATOM     17  C   UNL     1      46.405   2.508   7.758  0.00  0.00    +0.000 A 
ATOM     18  N   UNL     1      46.298   3.858   7.617  0.00  0.00    +0.000 NA
ATOM     19  C   UNL     1      45.347   4.461   8.374  0.00  0.00    +0.000 A 
BRANCH  17  20
ATOM     20  C   UNL     1      47.437   1.819   6.918  0.00  0.00    +0.000 C 
ATOM     21  N   UNL     1      48.459   2.610   6.470  0.00  0.00    +0.000 N 
ATOM     22  O   UNL     1      47.376   0.626   6.643  0.00  0.00    +0.000 OA
ATOM     23  H   UNL     1      48.469   3.597   6.708  0.00  0.00    +0.000 HD
ATOM     24  H   UNL     1      49.180   2.213   5.886  0.00  0.00    +0.000 HD
ENDBRANCH  17  20
ENDBRANCH  13  14
ENDBRANCH   1  13
TORSDOF 6
ENDMDL
MODEL 2
REMARK VINA RESULT:    -7.530      1.260      1.842
REMARK INTER + INTRA:         -11.048
REMARK INTER:                 -10.353
REMARK INTRA:                  -0.695
REMARK UNBOUND:                -0.877
REMARK  Name = 
REMARK  7 active torsions:
REMARK  status: ('A' for Active; 'I' for Inactive)
REMARK    1  A    between atoms: C_1  and  N_2
REMARK    2  A    between atoms: N_2  and  C_3
REMARK    3  A    between atoms: C_3  and  C_4
REMARK    4  A    between atoms: C_7  and  C_8
REMARK    5  A    between atoms: C_8  and  O_9
REMARK    6  A    between atoms: O_9  and  C_10
REMARK    7  A    between atoms: C_13  and  C_14
REMARK                            x       y       z     vdW  Elec       q    Type
REMARK                         _______ _______ _______ _____ _____    ______ ____
ROOT
ATOM      1  C   UNL     1      43.555   4.350  11.340  0.00  0.00    +0.000 C 
ENDROOT
BRANCH   1   5
ATOM      2  C   UNL     1      46.941   6.221  13.301  0.00  0.00    +0.000 A 
ATOM      3  C   UNL     1      46.745   4.832  13.371  0.00  0.00    +0.000 A 
ATOM      4  C   UNL     1      45.662   4.227  12.725  0.00  0.00    +0.000 A 
ATOM      5  C   UNL     1      44.733   4.998  12.014  0.00  0.00    +0.000 A 
ATOM      6  C   UNL     1      44.928   6.379  11.956  0.00  0.00    +0.000 A 
ATOM      7  F   UNL     1      44.049   7.151  11.302  0.00  0.00    +0.000 F 
ATOM      8  C   UNL     1      46.013   6.990  12.587  0.00  0.00    +0.000 A 
BRANCH   2   9
ATOM      9  C   UNL     1      48.114   6.877  13.994  0.00  0.00    +0.000 C 
BRANCH   9  11
ATOM     10  C   UNL     1      49.996   7.966  12.961  0.00  0.00    +0.000 C 
ATOM     11  N   UNL     1      49.355   6.690  13.240  0.00  0.00    +0.000 NA
ATOM     12  H   UNL     1      49.992   6.109  13.781  0.00  0.00    +0.000 HD
ENDBRANCH   9  11
ENDBRANCH   2   9
ENDBRANCH   1   5
BRANCH   1  13
ATOM     13  O   UNL     1      43.607   4.597   9.934  0.00  0.00    +0.000 OA
BRANCH  13  14
ATOM     14  C   UNL     1      44.529   3.883   9.220  0.00  0.00    +0.000 A 
ATOM     15  C   UNL     1      45.468   4.400   8.330  0.00  0.00    +0.000 A 
ATOM     16  C   UNL     1      46.353   3.540   7.679  0.00  0.00    +0.000 A 
ATOM     17  C   UNL     1      46.266   2.178   7.937  0.00  0.00    +0.000 A 
ATOM     18  N   UNL     1      45.360   1.629   8.792  0.00  0.00    +0.000 NA
ATOM     19  C   UNL     1      44.521   2.501   9.407  0.00  0.00    +0.000 A 
BRANCH  17  20
ATOM     20  C   UNL     1      47.215   1.236   7.260  0.00  0.00    +0.000 C 
ATOM     21  N   UNL     1      48.322   1.814   6.701  0.00  0.00    +0.000 N 
ATOM     22  O   UNL     1      47.020   0.027   7.204  0.00  0.00    +0.000 OA
ATOM     23  H   UNL     1      48.444   2.820   6.757  0.00  0.00    +0.000 HD
ATOM     24  H   UNL     1      48.995   1.239   6.215  0.00  0.00    +0.000 HD
ENDBRANCH  17  20
ENDBRANCH  13  14
ENDBRANCH   1  13
TORSDOF 6
ENDMDL
MODEL 3
REMARK VINA RESULT:    -7.395      2.338      6.381
REMARK INTER + INTRA:         -10.865
REMARK INTER:                 -10.519
REMARK INTRA:                  -0.346
REMARK UNBOUND:                -0.877
REMARK  Name = 
REMARK  7 active torsions:
REMARK  status: ('A' for Active; 'I' for Inactive)
REMARK    1  A    between atoms: C_1  and  N_2
REMARK    2  A    between atoms: N_2  and  C_3
REMARK    3  A    between atoms: C_3  and  C_4
REMARK    4  A    between atoms: C_7  and  C_8
REMARK    5  A    between atoms: C_8  and  O_9
REMARK    6  A    between atoms: O_9  and  C_10
REMARK    7  A    between atoms: C_13  and  C_14
REMARK                            x       y       z     vdW  Elec       q    Type
REMARK                         _______ _______ _______ _____ _____    ______ ____
ROOT
ATOM      1  C   UNL     1      43.818   4.806  10.191  0.00  0.00    +0.000 C 
ENDROOT
BRANCH   1   5
ATOM      2  C   UNL     1      46.319   2.143   7.854  0.00  0.00    +0.000 A 
ATOM      3  C   UNL     1      46.377   3.534   7.668  0.00  0.00    +0.000 A 
ATOM      4  C   UNL     1      45.582   4.393   8.433  0.00  0.00    +0.000 A 
ATOM      5  C   UNL     1      44.691   3.882   9.386  0.00  0.00    +0.000 A 
ATOM      6  C   UNL     1      44.632   2.499   9.560  0.00  0.00    +0.000 A 
ATOM      7  F   UNL     1      43.776   1.973  10.447  0.00  0.00    +0.000 F 
ATOM      8  C   UNL     1      45.430   1.635   8.809  0.00  0.00    +0.000 A 
BRANCH   2   9
ATOM      9  C   UNL     1      47.181   1.212   7.031  0.00  0.00    +0.000 C 
BRANCH   9  11
ATOM     10  C   UNL     1      47.930   2.359   5.052  0.00  0.00    +0.000 C 
ATOM     11  N   UNL     1      48.288   1.928   6.394  0.00  0.00    +0.000 NA
ATOM     12  H   UNL     1      48.525   2.744   6.954  0.00  0.00    +0.000 HD
ENDBRANCH   9  11
ENDBRANCH   2   9
ENDBRANCH   1   5
BRANCH   1  13
ATOM     13  O   UNL     1      44.605   5.875  10.720  0.00  0.00    +0.000 OA
BRANCH  13  14
ATOM     14  C   UNL     1      45.358   5.592  11.826  0.00  0.00    +0.000 A 
ATOM     15  C   UNL     1      46.629   6.087  12.110  0.00  0.00    +0.000 A 
ATOM     16  C   UNL     1      47.271   5.711  13.291  0.00  0.00    +0.000 A 
ATOM     17  C   UNL     1      46.618   4.840  14.154  0.00  0.00    +0.000 A 
ATOM     18  N   UNL     1      45.381   4.327  13.912  0.00  0.00    +0.000 NA
ATOM     19  C   UNL     1      44.790   4.721  12.756  0.00  0.00    +0.000 A 
BRANCH  17  20
ATOM     20  C   UNL     1      47.283   4.433  15.434  0.00  0.00    +0.000 C 
ATOM     21  N   UNL     1      47.892   5.441  16.130  0.00  0.00    +0.000 N 
ATOM     22  O   UNL     1      47.286   3.276  15.838  0.00  0.00    +0.000 OA
ATOM     23  H   UNL     1      47.878   6.385  15.758  0.00  0.00    +0.000 HD
ATOM     24  H   UNL     1      48.372   5.234  16.993  0.00  0.00    +0.000 HD
ENDBRANCH  17  20
ENDBRANCH  13  14
ENDBRANCH   1  13
TORSDOF 6
ENDMDL
MODEL 4
REMARK VINA RESULT:    -6.784      2.200      6.412
REMARK INTER + INTRA:         -10.040
REMARK INTER:                  -9.660
REMARK INTRA:                  -0.380
REMARK UNBOUND:                -0.877
REMARK  Name = 
REMARK  7 active torsions:
REMARK  status: ('A' for Active; 'I' for Inactive)
REMARK    1  A    between atoms: C_1  and  N_2
REMARK    2  A    between atoms: N_2  and  C_3
REMARK    3  A    between atoms: C_3  and  C_4
REMARK    4  A    between atoms: C_7  and  C_8
REMARK    5  A    between atoms: C_8  and  O_9
REMARK    6  A    between atoms: O_9  and  C_10
REMARK    7  A    between atoms: C_13  and  C_14
REMARK                            x       y       z     vdW  Elec       q    Type
REMARK                         _______ _______ _______ _____ _____    ______ ____
ROOT
ATOM      1  C   UNL     1      43.689   4.757  10.115  0.00  0.00    +0.000 C 
ENDROOT
BRANCH   1   5
ATOM      2  C   UNL     1      46.376   2.173   7.898  0.00  0.00    +0.000 A 
ATOM      3  C   UNL     1      46.405   3.566   7.720  0.00  0.00    +0.000 A 
ATOM      4  C   UNL     1      45.550   4.400   8.447  0.00  0.00    +0.000 A 
ATOM      5  C   UNL     1      44.625   3.861   9.351  0.00  0.00    +0.000 A 
ATOM      6  C   UNL     1      44.595   2.476   9.518  0.00  0.00    +0.000 A 
ATOM      7  F   UNL     1      43.710   1.923  10.359  0.00  0.00    +0.000 F 
ATOM      8  C   UNL     1      45.453   1.637   8.805  0.00  0.00    +0.000 A 
BRANCH   2   9
ATOM      9  C   UNL     1      47.303   1.269   7.118  0.00  0.00    +0.000 C 
BRANCH   9  11
ATOM     10  C   UNL     1      47.853   2.383   5.056  0.00  0.00    +0.000 C 
ATOM     11  N   UNL     1      48.315   2.037   6.391  0.00  0.00    +0.000 NA
ATOM     12  H   UNL     1      48.520   2.892   6.905  0.00  0.00    +0.000 HD
ENDBRANCH   9  11
ENDBRANCH   2   9
ENDBRANCH   1   5
BRANCH   1  13
ATOM     13  O   UNL     1      43.846   4.536  11.518  0.00  0.00    +0.000 OA
BRANCH  13  14
ATOM     14  C   UNL     1      44.859   5.217  12.135  0.00  0.00    +0.000 A 
ATOM     15  C   UNL     1      45.991   4.659  12.724  0.00  0.00    +0.000 A 
ATOM     16  C   UNL     1      46.948   5.489  13.311  0.00  0.00    +0.000 A 
ATOM     17  C   UNL     1      46.735   6.862  13.295  0.00  0.00    +0.000 A 
ATOM     18  N   UNL     1      45.640   7.448  12.738  0.00  0.00    +0.000 NA
ATOM     19  C   UNL     1      44.738   6.606  12.174  0.00  0.00    +0.000 A 
BRANCH  17  20
ATOM     20  C   UNL     1      47.754   7.774  13.908  0.00  0.00    +0.000 C 
ATOM     21  N   UNL     1      47.258   8.908  14.489  0.00  0.00    +0.000 N 
ATOM     22  O   UNL     1      48.955   7.528  13.893  0.00  0.00    +0.000 OA
ATOM     23  H   UNL     1      46.259   9.083  14.472  0.00  0.00    +0.000 HD
ATOM     24  H   UNL     1      47.891   9.574  14.907  0.00  0.00    +0.000 HD
ENDBRANCH  17  20
ENDBRANCH  13  14
ENDBRANCH   1  13
TORSDOF 6
ENDMDL
MODEL 5
REMARK VINA RESULT:    -6.741      2.229      6.372
REMARK INTER + INTRA:          -9.982
REMARK INTER:                  -9.569
REMARK INTRA:                  -0.413
REMARK UNBOUND:                -0.877
REMARK  Name = 
REMARK  7 active torsions:
REMARK  status: ('A' for Active; 'I' for Inactive)
REMARK    1  A    between atoms: C_1  and  N_2
REMARK    2  A    between atoms: N_2  and  C_3
REMARK    3  A    between atoms: C_3  and  C_4
REMARK    4  A    between atoms: C_7  and  C_8
REMARK    5  A    between atoms: C_8  and  O_9
REMARK    6  A    between atoms: O_9  and  C_10
REMARK    7  A    between atoms: C_13  and  C_14
REMARK                            x       y       z     vdW  Elec       q    Type
REMARK                         _______ _______ _______ _____ _____    ______ ____
ROOT
ATOM      1  C   UNL     1      43.776   4.546  10.190  0.00  0.00    +0.000 C 
ENDROOT
BRANCH   1   5
ATOM      2  C   UNL     1      46.402   1.990   7.872  0.00  0.00    +0.000 A 
ATOM      3  C   UNL     1      45.373   1.444   8.656  0.00  0.00    +0.000 A 
ATOM      4  C   UNL     1      44.516   2.269   9.391  0.00  0.00    +0.000 A 
ATOM      5  C   UNL     1      44.683   3.660   9.381  0.00  0.00    +0.000 A 
ATOM      6  C   UNL     1      45.713   4.196   8.607  0.00  0.00    +0.000 A 
ATOM      7  F   UNL     1      45.915   5.521   8.589  0.00  0.00    +0.000 F 
ATOM      8  C   UNL     1      46.565   3.381   7.861  0.00  0.00    +0.000 A 
BRANCH   2   9
ATOM      9  C   UNL     1      47.328   1.100   7.073  0.00  0.00    +0.000 C 
BRANCH   9  11
ATOM     10  C   UNL     1      47.676   2.419   5.089  0.00  0.00    +0.000 C 
ATOM     11  N   UNL     1      48.288   1.885   6.296  0.00  0.00    +0.000 NA
ATOM     12  H   UNL     1      48.629   2.657   6.866  0.00  0.00    +0.000 HD
ENDBRANCH   9  11
ENDBRANCH   2   9
ENDBRANCH   1   5
BRANCH   1  13
ATOM     13  O   UNL     1      44.043   4.366  11.583  0.00  0.00    +0.000 OA
BRANCH  13  14
ATOM     14  C   UNL     1      45.155   4.989  12.079  0.00  0.00    +0.000 A 
ATOM     15  C   UNL     1      45.539   6.307  11.844  0.00  0.00    +0.000 A 
ATOM     16  C   UNL     1      46.703   6.805  12.431  0.00  0.00    +0.000 A 
ATOM     17  C   UNL     1      47.455   5.960  13.237  0.00  0.00    +0.000 A 
ATOM     18  N   UNL     1      47.121   4.664  13.486  0.00  0.00    +0.000 NA
ATOM     19  C   UNL     1      45.980   4.221  12.901  0.00  0.00    +0.000 A 
BRANCH  17  20
ATOM     20  C   UNL     1      48.702   6.476  13.888  0.00  0.00    +0.000 C 
ATOM     21  N   UNL     1      49.609   7.061  13.047  0.00  0.00    +0.000 N 
ATOM     22  O   UNL     1      48.904   6.384  15.093  0.00  0.00    +0.000 OA
ATOM     23  H   UNL     1      49.411   7.108  12.053  0.00  0.00    +0.000 HD
ATOM     24  H   UNL     1      50.477   7.416  13.418  0.00  0.00    +0.000 HD
ENDBRANCH  17  20
ENDBRANCH  13  14
ENDBRANCH   1  13
TORSDOF 6
ENDMDL
MODEL 6
REMARK VINA RESULT:    -6.280      2.944      6.982
REMARK INTER + INTRA:          -9.360
REMARK INTER:                  -8.770
REMARK INTRA:                  -0.589
REMARK UNBOUND:                -0.877
REMARK  Name = 
REMARK  7 active torsions:
REMARK  status: ('A' for Active; 'I' for Inactive)
REMARK    1  A    between atoms: C_1  and  N_2
REMARK    2  A    between atoms: N_2  and  C_3
REMARK    3  A    between atoms: C_3  and  C_4
REMARK    4  A    between atoms: C_7  and  C_8
REMARK    5  A    between atoms: C_8  and  O_9
REMARK    6  A    between atoms: O_9  and  C_10
REMARK    7  A    between atoms: C_13  and  C_14
REMARK                            x       y       z     vdW  Elec       q    Type
REMARK                         _______ _______ _______ _____ _____    ______ ____
ROOT
ATOM      1  C   UNL     1      44.696   4.692  12.779  0.00  0.00    +0.000 C 
ENDROOT
BRANCH   1   5
ATOM      2  C   UNL     1      45.435   3.719   8.618  0.00  0.00    +0.000 A 
ATOM      3  C   UNL     1      44.993   2.737   9.520  0.00  0.00    +0.000 A 
ATOM      4  C   UNL     1      44.740   3.055  10.858  0.00  0.00    +0.000 A 
ATOM      5  C   UNL     1      44.946   4.356  11.334  0.00  0.00    +0.000 A 
ATOM      6  C   UNL     1      45.393   5.325  10.435  0.00  0.00    +0.000 A 
ATOM      7  F   UNL     1      45.621   6.576  10.860  0.00  0.00    +0.000 F 
ATOM      8  C   UNL     1      45.637   5.020   9.095  0.00  0.00    +0.000 A 
BRANCH   2   9
ATOM      9  C   UNL     1      45.705   3.380   7.169  0.00  0.00    +0.000 C 
BRANCH   9  11
ATOM     10  C   UNL     1      47.859   2.357   6.843  0.00  0.00    +0.000 C 
ATOM     11  N   UNL     1      47.109   3.603   6.819  0.00  0.00    +0.000 NA
ATOM     12  H   UNL     1      47.162   4.006   5.886  0.00  0.00    +0.000 HD
ENDBRANCH   9  11
ENDBRANCH   2   9
ENDBRANCH   1   5
BRANCH   1  13
ATOM     13  O   UNL     1      45.651   4.018  13.603  0.00  0.00    +0.000 OA
BRANCH  13  14
ATOM     14  C   UNL     1      46.671   4.779  14.106  0.00  0.00    +0.000 A 
ATOM     15  C   UNL     1      47.248   5.892  13.501  0.00  0.00    +0.000 A 
ATOM     16  C   UNL     1      48.282   6.574  14.146  0.00  0.00    +0.000 A 
ATOM     17  C   UNL     1      48.711   6.112  15.383  0.00  0.00    +0.000 A 
ATOM     18  N   UNL     1      48.181   5.024  16.006  0.00  0.00    +0.000 NA
ATOM     19  C   UNL     1      47.176   4.393  15.348  0.00  0.00    +0.000 A 
BRANCH  17  20
ATOM     20  C   UNL     1      49.810   6.835  16.100  0.00  0.00    +0.000 C 
ATOM     21  N   UNL     1      50.943   7.062  15.368  0.00  0.00    +0.000 N 
ATOM     22  O   UNL     1      49.710   7.201  17.265  0.00  0.00    +0.000 OA
ATOM     23  H   UNL     1      50.994   6.734  14.409  0.00  0.00    +0.000 HD
ATOM     24  H   UNL     1      51.729   7.531  15.795  0.00  0.00    +0.000 HD
ENDBRANCH  17  20
ENDBRANCH  13  14
ENDBRANCH   1  13
TORSDOF 6
ENDMDL
MODEL 7
REMARK VINA RESULT:    -6.016      3.543      7.150
REMARK INTER + INTRA:          -9.003
REMARK INTER:                  -8.425
REMARK INTRA:                  -0.577
REMARK UNBOUND:                -0.877
REMARK  Name = 
REMARK  7 active torsions:
REMARK  status: ('A' for Active; 'I' for Inactive)
REMARK    1  A    between atoms: C_1  and  N_2
REMARK    2  A    between atoms: N_2  and  C_3
REMARK    3  A    between atoms: C_3  and  C_4
REMARK    4  A    between atoms: C_7  and  C_8
REMARK    5  A    between atoms: C_8  and  O_9
REMARK    6  A    between atoms: O_9  and  C_10
REMARK    7  A    between atoms: C_13  and  C_14
REMARK                            x       y       z     vdW  Elec       q    Type
REMARK                         _______ _______ _______ _____ _____    ______ ____
ROOT
ATOM      1  C   UNL     1      45.326   5.537  13.052  0.00  0.00    +0.000 C 
ENDROOT
BRANCH   1   5
ATOM      2  C   UNL     1      45.344   4.009   8.993  0.00  0.00    +0.000 A 
ATOM      3  C   UNL     1      45.776   5.315   9.273  0.00  0.00    +0.000 A 
ATOM      4  C   UNL     1      45.785   5.803  10.584  0.00  0.00    +0.000 A 
ATOM      5  C   UNL     1      45.339   5.004  11.645  0.00  0.00    +0.000 A 
ATOM      6  C   UNL     1      44.903   3.709  11.360  0.00  0.00    +0.000 A 
ATOM      7  F   UNL     1      44.449   2.924  12.347  0.00  0.00    +0.000 F 
ATOM      8  C   UNL     1      44.901   3.211  10.056  0.00  0.00    +0.000 A 
BRANCH   2   9
ATOM      9  C   UNL     1      45.338   3.477   7.577  0.00  0.00    +0.000 C 
BRANCH   9  11
ATOM     10  C   UNL     1      47.483   2.759   6.755  0.00  0.00    +0.000 C 
ATOM     11  N   UNL     1      46.547   3.869   6.852  0.00  0.00    +0.000 NA
ATOM     12  H   UNL     1      46.293   4.173   5.915  0.00  0.00    +0.000 HD
ENDBRANCH   9  11
ENDBRANCH   2   9
ENDBRANCH   1   5
BRANCH   1  13
ATOM     13  O   UNL     1      46.620   6.043  13.388  0.00  0.00    +0.000 OA
BRANCH  13  14
ATOM     14  C   UNL     1      47.231   5.486  14.478  0.00  0.00    +0.000 A 
ATOM     15  C   UNL     1      46.901   4.276  15.083  0.00  0.00    +0.000 A 
ATOM     16  C   UNL     1      47.627   3.834  16.190  0.00  0.00    +0.000 A 
ATOM     17  C   UNL     1      48.665   4.627  16.663  0.00  0.00    +0.000 A 
ATOM     18  N   UNL     1      49.016   5.819  16.108  0.00  0.00    +0.000 NA
ATOM     19  C   UNL     1      48.288   6.210  15.031  0.00  0.00    +0.000 A 
BRANCH  17  20
ATOM     20  C   UNL     1      49.467   4.166  17.842  0.00  0.00    +0.000 C 
ATOM     21  N   UNL     1      49.014   3.032  18.458  0.00  0.00    +0.000 N 
ATOM     22  O   UNL     1      50.463   4.761  18.237  0.00  0.00    +0.000 OA
ATOM     23  H   UNL     1      48.178   2.573  18.109  0.00  0.00    +0.000 HD
ATOM     24  H   UNL     1      49.498   2.675  19.268  0.00  0.00    +0.000 HD
ENDBRANCH  17  20
ENDBRANCH  13  14
ENDBRANCH   1  13
TORSDOF 6
ENDMDL
MODEL 8
REMARK VINA RESULT:    -5.995      4.450      8.058
REMARK INTER + INTRA:          -8.974
REMARK INTER:                  -8.580
REMARK INTRA:                  -0.394
REMARK UNBOUND:                -0.877
REMARK  Name = 
REMARK  7 active torsions:
REMARK  status: ('A' for Active; 'I' for Inactive)
REMARK    1  A    between atoms: C_1  and  N_2
REMARK    2  A    between atoms: N_2  and  C_3
REMARK    3  A    between atoms: C_3  and  C_4
REMARK    4  A    between atoms: C_7  and  C_8
REMARK    5  A    between atoms: C_8  and  O_9
REMARK    6  A    between atoms: O_9  and  C_10
REMARK    7  A    between atoms: C_13  and  C_14
REMARK                            x       y       z     vdW  Elec       q    Type
REMARK                         _______ _______ _______ _____ _____    ______ ____
ROOT
ATOM      1  C   UNL     1      46.093   4.779  14.125  0.00  0.00    +0.000 C 
ENDROOT
BRANCH   1   5
ATOM      2  C   UNL     1      45.108   4.272   9.932  0.00  0.00    +0.000 A 
ATOM      3  C   UNL     1      44.916   3.226  10.849  0.00  0.00    +0.000 A 
ATOM      4  C   UNL     1      45.219   3.395  12.204  0.00  0.00    +0.000 A 
ATOM      5  C   UNL     1      45.745   4.606  12.672  0.00  0.00    +0.000 A 
ATOM      6  C   UNL     1      45.941   5.639  11.754  0.00  0.00    +0.000 A 
ATOM      7  F   UNL     1      46.462   6.805  12.163  0.00  0.00    +0.000 F 
ATOM      8  C   UNL     1      45.631   5.483  10.403  0.00  0.00    +0.000 A 
BRANCH   2   9
ATOM      9  C   UNL     1      44.777   4.094   8.467  0.00  0.00    +0.000 C 
BRANCH   9  11
ATOM     10  C   UNL     1      46.332   3.222   6.850  0.00  0.00    +0.000 C 
ATOM     11  N   UNL     1      45.931   4.391   7.617  0.00  0.00    +0.000 NA
ATOM     12  H   UNL     1      45.690   5.144   6.975  0.00  0.00    +0.000 HD
ENDBRANCH   9  11
ENDBRANCH   2   9
ENDBRANCH   1   5
BRANCH   1  13
ATOM     13  O   UNL     1      47.123   3.857  14.488  0.00  0.00    +0.000 OA
BRANCH  13  14
ATOM     14  C   UNL     1      47.594   3.938  15.769  0.00  0.00    +0.000 A 
ATOM     15  C   UNL     1      47.711   2.887  16.675  0.00  0.00    +0.000 A 
ATOM     16  C   UNL     1      48.220   3.126  17.953  0.00  0.00    +0.000 A 
ATOM     17  C   UNL     1      48.595   4.421  18.286  0.00  0.00    +0.000 A 
ATOM     18  N   UNL     1      48.491   5.478  17.435  0.00  0.00    +0.000 NA
ATOM     19  C   UNL     1      47.995   5.202  16.203  0.00  0.00    +0.000 A 
BRANCH  17  20
ATOM     20  C   UNL     1      49.157   4.699  19.647  0.00  0.00    +0.000 C 
ATOM     21  N   UNL     1      48.592   3.995  20.675  0.00  0.00    +0.000 N 
ATOM     22  O   UNL     1      50.062   5.504  19.837  0.00  0.00    +0.000 OA
ATOM     23  H   UNL     1      47.836   3.346  20.481  0.00  0.00    +0.000 HD
ATOM     24  H   UNL     1      48.912   4.145  21.620  0.00  0.00    +0.000 HD
ENDBRANCH  17  20
ENDBRANCH  13  14
ENDBRANCH   1  13
TORSDOF 6
ENDMDL
MODEL 9
REMARK VINA RESULT:    -5.688      5.201      6.790
REMARK INTER + INTRA:          -8.560
REMARK INTER:                  -8.058
REMARK INTRA:                  -0.502
REMARK UNBOUND:                -0.877
REMARK  Name = 
REMARK  7 active torsions:
REMARK  status: ('A' for Active; 'I' for Inactive)
REMARK    1  A    between atoms: C_1  and  N_2
REMARK    2  A    between atoms: N_2  and  C_3
REMARK    3  A    between atoms: C_3  and  C_4
REMARK    4  A    between atoms: C_7  and  C_8
REMARK    5  A    between atoms: C_8  and  O_9
REMARK    6  A    between atoms: O_9  and  C_10
REMARK    7  A    between atoms: C_13  and  C_14
REMARK                            x       y       z     vdW  Elec       q    Type
REMARK                         _______ _______ _______ _____ _____    ______ ____
ROOT
ATOM      1  C   UNL     1      47.657   4.311  16.372  0.00  0.00    +0.000 C 
ENDROOT
BRANCH   1   5
ATOM      2  C   UNL     1      51.400   2.517  17.629  0.00  0.00    +0.000 A 
ATOM      3  C   UNL     1      50.393   1.740  17.034  0.00  0.00    +0.000 A 
ATOM      4  C   UNL     1      49.192   2.322  16.614  0.00  0.00    +0.000 A 
ATOM      5  C   UNL     1      48.958   3.690  16.802  0.00  0.00    +0.000 A 
ATOM      6  C   UNL     1      49.959   4.456  17.401  0.00  0.00    +0.000 A 
ATOM      7  F   UNL     1      49.762   5.764  17.616  0.00  0.00    +0.000 F 
ATOM      8  C   UNL     1      51.165   3.886  17.813  0.00  0.00    +0.000 A 
BRANCH   2   9
ATOM      9  C   UNL     1      52.702   1.892  18.080  0.00  0.00    +0.000 C 
BRANCH   9  11
ATOM     10  C   UNL     1      53.881  -0.176  17.728  0.00  0.00    +0.000 C 
ATOM     11  N   UNL     1      52.614   0.431  18.104  0.00  0.00    +0.000 NA
ATOM     12  H   UNL     1      52.364   0.126  19.042  0.00  0.00    +0.000 HD
ENDBRANCH   9  11
ENDBRANCH   2   9
ENDBRANCH   1   5
BRANCH   1  13
ATOM     13  O   UNL     1      47.867   5.118  15.212  0.00  0.00    +0.000 OA
BRANCH  13  14
ATOM     14  C   UNL     1      47.022   4.908  14.157  0.00  0.00    +0.000 A 
ATOM     15  C   UNL     1      46.453   5.886  13.345  0.00  0.00    +0.000 A 
ATOM     16  C   UNL     1      45.611   5.512  12.296  0.00  0.00    +0.000 A 
ATOM     17  C   UNL     1      45.359   4.161  12.096  0.00  0.00    +0.000 A 
ATOM     18  N   UNL     1      45.887   3.173  12.870  0.00  0.00    +0.000 NA
ATOM     19  C   UNL     1      46.703   3.579  13.875  0.00  0.00    +0.000 A 
BRANCH  17  20
ATOM     20  C   UNL     1      44.469   3.735  10.968  0.00  0.00    +0.000 C 
ATOM     21  N   UNL     1      44.528   2.409  10.637  0.00  0.00    +0.000 N 
ATOM     22  O   UNL     1      43.734   4.516  10.375  0.00  0.00    +0.000 OA
ATOM     23  H   UNL     1      45.158   1.795  11.143  0.00  0.00    +0.000 HD
ATOM     24  H   UNL     1      43.966   2.058   9.876  0.00  0.00    +0.000 HD
ENDBRANCH  17  20
ENDBRANCH  13  14
ENDBRANCH   1  13
TORSDOF 6
ENDMDL
