MODEL 1
REMARK VINA RESULT:    -8.655      0.000      0.000
REMARK INTER + INTRA:         -10.831
REMARK INTER:                 -10.679
REMARK INTRA:                  -0.152
REMARK UNBOUND:                -0.152
REMARK  Name = 
REMARK  4 active torsions:
REMARK  status: ('A' for Active; 'I' for Inactive)
REMARK    1  A    between atoms: C_2  and  C_4
REMARK    2  A    between atoms: C_7  and  C_8
REMARK    3  A    between atoms: C_8  and  C_9
REMARK    4  A    between atoms: C_13  and  C_14
REMARK                            x       y       z     vdW  Elec       q    Type
REMARK                         _______ _______ _______ _____ _____    ______ ____
ROOT
ATOM      1  C   UNL     1      44.489   4.339  10.847  0.00  0.00    +0.000 C 
ATOM      2  C   UNL     1      43.243   3.527  11.247  0.00  0.00    +0.000 C 
ATOM      3  C   UNL     1      43.094   4.935  10.796  0.00  0.00    +0.000 C 
ATOM      4  F   UNL     1      42.713   5.833  11.786  0.00  0.00    +0.000 F 
ENDROOT
BRANCH   1   8
ATOM      5  C   UNL     1      46.475   2.759   7.433  0.00  0.00    +0.000 A 
ATOM      6  C   UNL     1      45.980   1.979   8.440  0.00  0.00    +0.000 A 
ATOM      7  N   UNL     1      45.325   2.469   9.509  0.00  0.00    +0.000 NA
ATOM      8  C   UNL     1      45.190   3.812   9.607  0.00  0.00    +0.000 A 
ATOM      9  N   UNL     1      45.654   4.667   8.664  0.00  0.00    +0.000 NA
ATOM     10  C   UNL     1      46.306   4.114   7.605  0.00  0.00    +0.000 A 
BRANCH   5  12
ATOM     11  N   UNL     1      47.231   2.940   5.132  0.00  0.00    +0.000 N 
ATOM     12  C   UNL     1      47.226   2.212   6.291  0.00  0.00    +0.000 C 
ATOM     13  O   UNL     1      47.841   1.158   6.380  0.00  0.00    +0.000 OA
ATOM     14  H   UNL     1      47.797   2.583   4.372  0.00  0.00    +0.000 HD
ATOM     15  H   UNL     1      46.945   3.908   5.073  0.00  0.00    +0.000 HD
ENDBRANCH   5  12
ENDBRANCH   1   8
BRANCH   1  16
ATOM     16  C   UNL     1      45.385   4.911  11.939  0.00  0.00    +0.000 A 
ATOM     17  C   UNL     1      45.673   4.173  13.097  0.00  0.00    +0.000 A 
ATOM     18  C   UNL     1      46.682   4.576  13.967  0.00  0.00    +0.000 A 
ATOM     19  C   UNL     1      47.408   5.737  13.700  0.00  0.00    +0.000 A 
ATOM     20  C   UNL     1      47.099   6.548  12.597  0.00  0.00    +0.000 A 
ATOM     21  C   UNL     1      46.057   6.131  11.754  0.00  0.00    +0.000 A 
BRANCH  20  22
ATOM     22  C   UNL     1      47.888   7.749  12.264  0.00  0.00    +0.000 A 
ATOM     23  C   UNL     1      49.248   7.655  11.943  0.00  0.00    +0.000 A 
ATOM     24  C   UNL     1      49.942   8.800  11.587  0.00  0.00    +0.000 A 
ATOM     25  N   UNL     1      49.386  10.026  11.523  0.00  0.00    +0.000 NA
ATOM     26  C   UNL     1      48.076  10.108  11.831  0.00  0.00    +0.000 A 
ATOM     27  C   UNL     1      47.301   9.020  12.204  0.00  0.00    +0.000 A 
ENDBRANCH  20  22
ENDBRANCH   1  16
TORSDOF 4
ENDMDL
MODEL 2
REMARK VINA RESULT:    -8.344      2.013      3.089
REMARK INTER + INTRA:         -10.447
REMARK INTER:                 -10.473
REMARK INTRA:                   0.026
REMARK UNBOUND:                -0.152
REMARK  Name = 
REMARK  4 active torsions:
REMARK  status: ('A' for Active; 'I' for Inactive)
REMARK    1  A    between atoms: C_2  and  C_4
REMARK    2  A    between atoms: C_7  and  C_8
REMARK    3  A    between atoms: C_8  and  C_9
REMARK    4  A    between atoms: C_13  and  C_14
REMARK                            x       y       z     vdW  Elec       q    Type
REMARK                         _______ _______ _______ _____ _____    ______ ____
ROOT
ATOM      1  C   UNL     1      44.518   4.652  10.680  0.00  0.00    +0.000 C 
ATOM      2  C   UNL     1      43.516   3.760  11.437  0.00  0.00    +0.000 C 
ATOM      3  C   UNL     1      43.028   4.945  10.686  0.00  0.00    +0.000 C 
ATOM      4  F   UNL     1      42.554   5.987  11.474  0.00  0.00    +0.000 F 
ENDROOT
BRANCH   1   8
ATOM      5  C   UNL     1      46.444   2.597   7.493  0.00  0.00    +0.000 A 
ATOM      6  C   UNL     1      45.895   1.961   8.570  0.00  0.00    +0.000 A 
ATOM      7  N   UNL     1      45.258   2.602   9.569  0.00  0.00    +0.000 NA
ATOM      8  C   UNL     1      45.200   3.953   9.517  0.00  0.00    +0.000 A 
ATOM      9  N   UNL     1      45.723   4.671   8.494  0.00  0.00    +0.000 NA
ATOM     10  C   UNL     1      46.352   3.969   7.513  0.00  0.00    +0.000 A 
BRANCH   5  12
ATOM     11  N   UNL     1      47.909   2.640   5.556  0.00  0.00    +0.000 N 
ATOM     12  C   UNL     1      47.174   1.885   6.430  0.00  0.00    +0.000 C 
ATOM     13  O   UNL     1      47.145   0.665   6.345  0.00  0.00    +0.000 OA
ATOM     14  H   UNL     1      48.453   2.137   4.865  0.00  0.00    +0.000 HD
ATOM     15  H   UNL     1      48.155   3.608   5.715  0.00  0.00    +0.000 HD
ENDBRANCH   5  12
ENDBRANCH   1   8
BRANCH   1  16
ATOM     16  C   UNL     1      45.365   5.648  11.462  0.00  0.00    +0.000 A 
ATOM     17  C   UNL     1      45.234   7.029  11.252  0.00  0.00    +0.000 A 
ATOM     18  C   UNL     1      45.809   7.942  12.131  0.00  0.00    +0.000 A 
ATOM     19  C   UNL     1      46.543   7.485  13.227  0.00  0.00    +0.000 A 
ATOM     20  C   UNL     1      46.767   6.114  13.429  0.00  0.00    +0.000 A 
ATOM     21  C   UNL     1      46.198   5.220  12.509  0.00  0.00    +0.000 A 
BRANCH  20  22
ATOM     22  C   UNL     1      47.490   5.606  14.609  0.00  0.00    +0.000 A 
ATOM     23  C   UNL     1      48.495   6.364  15.223  0.00  0.00    +0.000 A 
ATOM     24  C   UNL     1      49.117   5.872  16.360  0.00  0.00    +0.000 A 
ATOM     25  N   UNL     1      48.812   4.691  16.932  0.00  0.00    +0.000 NA
ATOM     26  C   UNL     1      47.841   3.969  16.337  0.00  0.00    +0.000 A 
ATOM     27  C   UNL     1      47.167   4.374  15.195  0.00  0.00    +0.000 A 
ENDBRANCH  20  22
ENDBRANCH   1  16
TORSDOF 4
ENDMDL
MODEL 3
REMARK VINA RESULT:    -7.150      3.654      7.230
REMARK INTER + INTRA:          -8.974
REMARK INTER:                  -8.931
REMARK INTRA:                  -0.043
REMARK UNBOUND:                -0.152
REMARK  Name = 
REMARK  4 active torsions:
REMARK  status: ('A' for Active; 'I' for Inactive)
REMARK    1  A    between atoms: C_2  and  C_4
REMARK    2  A    between atoms: C_7  and  C_8
REMARK    3  A    between atoms: C_8  and  C_9
REMARK    4  A    between atoms: C_13  and  C_14
REMARK                            x       y       z     vdW  Elec       q    Type
REMARK                         _______ _______ _______ _____ _____    ______ ____
ROOT
ATOM      1  C   UNL     1      46.514   6.315  12.692  0.00  0.00    +0.000 C 
ATOM      2  C   UNL     1      47.571   7.184  11.987  0.00  0.00    +0.000 C 
ATOM      3  C   UNL     1      46.379   7.824  12.600  0.00  0.00    +0.000 C 
ATOM      4  F   UNL     1      45.469   8.361  11.698  0.00  0.00    +0.000 F 
ENDROOT
BRANCH   1   8
ATOM      5  C   UNL     1      47.849   4.310  16.198  0.00  0.00    +0.000 A 
ATOM      6  C   UNL     1      46.872   3.817  15.380  0.00  0.00    +0.000 A 
ATOM      7  N   UNL     1      46.465   4.431  14.252  0.00  0.00    +0.000 NA
ATOM      8  C   UNL     1      47.027   5.623  13.943  0.00  0.00    +0.000 A 
ATOM      9  N   UNL     1      47.996   6.195  14.697  0.00  0.00    +0.000 NA
ATOM     10  C   UNL     1      48.368   5.528  15.823  0.00  0.00    +0.000 A 
BRANCH   5  12
ATOM     11  N   UNL     1      47.298   2.938  18.125  0.00  0.00    +0.000 N 
ATOM     12  C   UNL     1      48.254   3.648  17.449  0.00  0.00    +0.000 C 
ATOM     13  O   UNL     1      49.405   3.710  17.859  0.00  0.00    +0.000 OA
ATOM     14  H   UNL     1      47.602   2.440  18.953  0.00  0.00    +0.000 HD
ATOM     15  H   UNL     1      46.412   2.661  17.724  0.00  0.00    +0.000 HD
ENDBRANCH   5  12
ENDBRANCH   1   8
BRANCH   1  16
ATOM     16  C   UNL     1      45.512   5.535  11.851  0.00  0.00    +0.000 A 
ATOM     17  C   UNL     1      44.135   5.783  11.952  0.00  0.00    +0.000 A 
ATOM     18  C   UNL     1      43.245   5.265  11.015  0.00  0.00    +0.000 A 
ATOM     19  C   UNL     1      43.720   4.472   9.970  0.00  0.00    +0.000 A 
ATOM     20  C   UNL     1      45.078   4.131   9.877  0.00  0.00    +0.000 A 
ATOM     21  C   UNL     1      45.946   4.646  10.853  0.00  0.00    +0.000 A 
BRANCH  20  22
ATOM     22  C   UNL     1      45.611   3.342   8.751  0.00  0.00    +0.000 A 
ATOM     23  C   UNL     1      46.060   3.965   7.580  0.00  0.00    +0.000 A 
ATOM     24  C   UNL     1      46.600   3.191   6.564  0.00  0.00    +0.000 A 
ATOM     25  N   UNL     1      46.730   1.851   6.628  0.00  0.00    +0.000 NA
ATOM     26  C   UNL     1      46.298   1.260   7.760  0.00  0.00    +0.000 A 
ATOM     27  C   UNL     1      45.739   1.948   8.827  0.00  0.00    +0.000 A 
ENDBRANCH  20  22
ENDBRANCH   1  16
TORSDOF 4
ENDMDL
MODEL 4
REMARK VINA RESULT:    -6.952      4.284      7.683
REMARK INTER + INTRA:          -8.730
REMARK INTER:                  -8.593
REMARK INTRA:                  -0.137
REMARK UNBOUND:                -0.152
REMARK  Name = 
REMARK  4 active torsions:
REMARK  status: ('A' for Active; 'I' for Inactive)
REMARK    1  A    between atoms: C_2  and  C_4
REMARK    2  A    between atoms: C_7  and  C_8
REMARK    3  A    between atoms: C_8  and  C_9
REMARK    4  A    between atoms: C_13  and  C_14
REMARK                            x       y       z     vdW  Elec       q    Type
REMARK                         _______ _______ _______ _____ _____    ______ ____
ROOT
ATOM      1  C   UNL     1      48.115   7.048  13.457  0.00  0.00    +0.000 C 
ATOM      2  C   UNL     1      49.401   7.050  12.611  0.00  0.00    +0.000 C 
ATOM      3  C   UNL     1      48.893   8.323  13.184  0.00  0.00    +0.000 C 
ATOM      4  F   UNL     1      48.391   9.227  12.256  0.00  0.00    +0.000 F 
ENDROOT
BRANCH   1   8
ATOM      5  C   UNL     1      48.380   4.844  17.085  0.00  0.00    +0.000 A 
ATOM      6  C   UNL     1      47.720   4.389  15.980  0.00  0.00    +0.000 A 
ATOM      7  N   UNL     1      47.656   5.068  14.818  0.00  0.00    +0.000 NA
ATOM      8  C   UNL     1      48.244   6.285  14.764  0.00  0.00    +0.000 A 
ATOM      9  N   UNL     1      48.914   6.823  15.811  0.00  0.00    +0.000 NA
ATOM     10  C   UNL     1      48.947   6.092  16.958  0.00  0.00    +0.000 A 
BRANCH   5  12
ATOM     11  N   UNL     1      47.592   3.015  18.475  0.00  0.00    +0.000 N 
ATOM     12  C   UNL     1      48.406   4.110  18.361  0.00  0.00    +0.000 C 
ATOM     13  O   UNL     1      49.142   4.450  19.277  0.00  0.00    +0.000 OA
ATOM     14  H   UNL     1      47.660   2.484  19.335  0.00  0.00    +0.000 HD
ATOM     15  H   UNL     1      47.148   2.558  17.690  0.00  0.00    +0.000 HD
ENDBRANCH   5  12
ENDBRANCH   1   8
BRANCH   1  16
ATOM     16  C   UNL     1      46.765   6.964  12.756  0.00  0.00    +0.000 A 
ATOM     17  C   UNL     1      45.877   8.050  12.766  0.00  0.00    +0.000 A 
ATOM     18  C   UNL     1      44.769   8.075  11.924  0.00  0.00    +0.000 A 
ATOM     19  C   UNL     1      44.522   7.000  11.069  0.00  0.00    +0.000 A 
ATOM     20  C   UNL     1      45.339   5.859  11.083  0.00  0.00    +0.000 A 
ATOM     21  C   UNL     1      46.431   5.852  11.964  0.00  0.00    +0.000 A 
BRANCH  20  22
ATOM     22  C   UNL     1      45.130   4.736  10.150  0.00  0.00    +0.000 A 
ATOM     23  C   UNL     1      45.600   4.795   8.832  0.00  0.00    +0.000 A 
ATOM     24  C   UNL     1      45.428   3.700   8.001  0.00  0.00    +0.000 A 
ATOM     25  N   UNL     1      44.830   2.553   8.382  0.00  0.00    +0.000 NA
ATOM     26  C   UNL     1      44.384   2.504   9.653  0.00  0.00    +0.000 A 
ATOM     27  C   UNL     1      44.505   3.550  10.556  0.00  0.00    +0.000 A 
ENDBRANCH  20  22
ENDBRANCH   1  16
TORSDOF 4
ENDMDL
MODEL 5
REMARK VINA RESULT:    -6.639      4.274      6.088
REMARK INTER + INTRA:          -8.343
REMARK INTER:                  -7.986
REMARK INTRA:                  -0.357
REMARK UNBOUND:                -0.152
REMARK  Name = 
REMARK  4 active torsions:
REMARK  status: ('A' for Active; 'I' for Inactive)
REMARK    1  A    between atoms: C_2  and  C_4
REMARK    2  A    between atoms: C_7  and  C_8
REMARK    3  A    between atoms: C_8  and  C_9
REMARK    4  A    between atoms: C_13  and  C_14
REMARK                            x       y       z     vdW  Elec       q    Type
REMARK                         _______ _______ _______ _____ _____    ______ ____
ROOT
ATOM      1  C   UNL     1      46.133   4.984  13.257  0.00  0.00    +0.000 C 
ATOM      2  C   UNL     1      44.716   4.380  13.238  0.00  0.00    +0.000 C 
ATOM      3  C   UNL     1      45.702   3.983  12.199  0.00  0.00    +0.000 C 
ATOM      4  F   UNL     1      45.423   4.443  10.918  0.00  0.00    +0.000 F 
ENDROOT
BRANCH   1   8
ATOM      5  C   UNL     1      48.397   3.730  16.632  0.00  0.00    +0.000 A 
ATOM      6  C   UNL     1      47.973   2.874  15.656  0.00  0.00    +0.000 A 
ATOM      7  N   UNL     1      47.280   3.268  14.570  0.00  0.00    +0.000 NA
ATOM      8  C   UNL     1      46.955   4.577  14.468  0.00  0.00    +0.000 A 
ATOM      9  N   UNL     1      47.324   5.499  15.390  0.00  0.00    +0.000 NA
ATOM     10  C   UNL     1      48.023   5.043  16.464  0.00  0.00    +0.000 A 
BRANCH   5  12
ATOM     11  N   UNL     1      48.413   3.226  19.008  0.00  0.00    +0.000 N 
ATOM     12  C   UNL     1      49.117   3.279  17.835  0.00  0.00    +0.000 C 
ATOM     13  O   UNL     1      50.292   2.941  17.785  0.00  0.00    +0.000 OA
ATOM     14  H   UNL     1      48.902   2.859  19.817  0.00  0.00    +0.000 HD
ATOM     15  H   UNL     1      47.404   3.266  19.063  0.00  0.00    +0.000 HD
ENDBRANCH   5  12
ENDBRANCH   1   8
BRANCH   1  16
ATOM     16  C   UNL     1      46.343   6.402  12.743  0.00  0.00    +0.000 A 
ATOM     17  C   UNL     1      45.351   7.382  12.901  0.00  0.00    +0.000 A 
ATOM     18  C   UNL     1      45.632   8.726  12.669  0.00  0.00    +0.000 A 
ATOM     19  C   UNL     1      46.909   9.108  12.255  0.00  0.00    +0.000 A 
ATOM     20  C   UNL     1      47.907   8.153  12.007  0.00  0.00    +0.000 A 
ATOM     21  C   UNL     1      47.585   6.804  12.222  0.00  0.00    +0.000 A 
BRANCH  20  22
ATOM     22  C   UNL     1      49.279   8.537  11.625  0.00  0.00    +0.000 A 
ATOM     23  C   UNL     1      50.258   7.568  11.373  0.00  0.00    +0.000 A 
ATOM     24  C   UNL     1      51.521   7.970  10.968  0.00  0.00    +0.000 A 
ATOM     25  N   UNL     1      51.879   9.257  10.789  0.00  0.00    +0.000 NA
ATOM     26  C   UNL     1      50.930  10.182  11.030  0.00  0.00    +0.000 A 
ATOM     27  C   UNL     1      49.642   9.879  11.445  0.00  0.00    +0.000 A 
ENDBRANCH  20  22
ENDBRANCH   1  16
TORSDOF 4
ENDMDL
MODEL 6
REMARK VINA RESULT:    -6.545      2.951      6.728
REMARK INTER + INTRA:          -8.228
REMARK INTER:                  -8.356
REMARK INTRA:                   0.128
REMARK UNBOUND:                -0.152
REMARK  Name = 
REMARK  4 active torsions:
REMARK  status: ('A' for Active; 'I' for Inactive)
REMARK    1  A    between atoms: C_2  and  C_4
REMARK    2  A    between atoms: C_7  and  C_8
REMARK    3  A    between atoms: C_8  and  C_9
REMARK    4  A    between atoms: C_13  and  C_14
REMARK                            x       y       z     vdW  Elec       q    Type
REMARK                         _______ _______ _______ _____ _____    ______ ____
ROOT
ATOM      1  C   UNL     1      44.561   5.696  12.014  0.00  0.00    +0.000 C 
ATOM      2  C   UNL     1      43.930   6.863  11.232  0.00  0.00    +0.000 C 
ATOM      3  C   UNL     1      43.199   6.260  12.376  0.00  0.00    +0.000 C 
ATOM      4  F   UNL     1      42.063   5.536  12.034  0.00  0.00    +0.000 F 
ENDROOT
BRANCH   1   8
ATOM      5  C   UNL     1      48.073   6.674  14.206  0.00  0.00    +0.000 A 
ATOM      6  C   UNL     1      47.478   5.445  14.255  0.00  0.00    +0.000 A 
ATOM      7  N   UNL     1      46.383   5.119  13.541  0.00  0.00    +0.000 NA
ATOM      8  C   UNL     1      45.822   6.079  12.770  0.00  0.00    +0.000 A 
ATOM      9  N   UNL     1      46.335   7.328  12.664  0.00  0.00    +0.000 NA
ATOM     10  C   UNL     1      47.443   7.599  13.407  0.00  0.00    +0.000 A 
BRANCH   5  12
ATOM     11  N   UNL     1      49.836   8.240  14.787  0.00  0.00    +0.000 N 
ATOM     12  C   UNL     1      49.245   7.028  15.024  0.00  0.00    +0.000 C 
ATOM     13  O   UNL     1      49.662   6.280  15.898  0.00  0.00    +0.000 OA
ATOM     14  H   UNL     1      50.605   8.498  15.394  0.00  0.00    +0.000 HD
ATOM     15  H   UNL     1      49.405   8.984  14.255  0.00  0.00    +0.000 HD
ENDBRANCH   5  12
ENDBRANCH   1   8
BRANCH   1  16
ATOM     16  C   UNL     1      44.532   4.297  11.414  0.00  0.00    +0.000 A 
ATOM     17  C   UNL     1      43.600   3.343  11.851  0.00  0.00    +0.000 A 
ATOM     18  C   UNL     1      43.399   2.163  11.139  0.00  0.00    +0.000 A 
ATOM     19  C   UNL     1      44.143   1.911   9.986  0.00  0.00    +0.000 A 
ATOM     20  C   UNL     1      45.142   2.800   9.559  0.00  0.00    +0.000 A 
ATOM     21  C   UNL     1      45.341   3.967  10.313  0.00  0.00    +0.000 A 
BRANCH  20  22
ATOM     22  C   UNL     1      45.901   2.582   8.313  0.00  0.00    +0.000 A 
ATOM     23  C   UNL     1      46.473   1.337   8.023  0.00  0.00    +0.000 A 
ATOM     24  C   UNL     1      47.136   1.159   6.819  0.00  0.00    +0.000 A 
ATOM     25  N   UNL     1      47.268   2.121   5.884  0.00  0.00    +0.000 NA
ATOM     26  C   UNL     1      46.711   3.315   6.170  0.00  0.00    +0.000 A 
ATOM     27  C   UNL     1      46.034   3.591   7.349  0.00  0.00    +0.000 A 
ENDBRANCH  20  22
ENDBRANCH   1  16
TORSDOF 4
ENDMDL
MODEL 7
REMARK VINA RESULT:    -6.469      5.659      8.456
REMARK INTER + INTRA:          -8.133
REMARK INTER:                  -7.768
REMARK INTRA:                  -0.365
REMARK UNBOUND:                -0.152
REMARK  Name = 
REMARK  4 active torsions:
REMARK  status: ('A' for Active; 'I' for Inactive)
REMARK    1  A    between atoms: C_2  and  C_4
REMARK    2  A    between atoms: C_7  and  C_8
REMARK    3  A    between atoms: C_8  and  C_9
REMARK    4  A    between atoms: C_13  and  C_14
REMARK                            x       y       z     vdW  Elec       q    Type
REMARK                         _______ _______ _______ _____ _____    ______ ____
ROOT
ATOM      1  C   UNL     1      49.738   6.235  17.283  0.00  0.00    +0.000 C 
ATOM      2  C   UNL     1      50.121   7.239  18.386  0.00  0.00    +0.000 C 
ATOM      3  C   UNL     1      48.745   6.681  18.341  0.00  0.00    +0.000 C 
ATOM      4  F   UNL     1      47.753   7.589  17.988  0.00  0.00    +0.000 F 
ENDROOT
BRANCH   1   8
ATOM      5  C   UNL     1      51.709   2.476  17.569  0.00  0.00    +0.000 A 
ATOM      6  C   UNL     1      50.361   2.603  17.383  0.00  0.00    +0.000 A 
ATOM      7  N   UNL     1      49.734   3.789  17.262  0.00  0.00    +0.000 NA
ATOM      8  C   UNL     1      50.479   4.912  17.376  0.00  0.00    +0.000 A 
ATOM      9  N   UNL     1      51.820   4.887  17.568  0.00  0.00    +0.000 NA
ATOM     10  C   UNL     1      52.399   3.661  17.681  0.00  0.00    +0.000 A 
BRANCH   5  12
ATOM     11  N   UNL     1      51.605   0.125  18.168  0.00  0.00    +0.000 N 
ATOM     12  C   UNL     1      52.374   1.174  17.741  0.00  0.00    +0.000 C 
ATOM     13  O   UNL     1      53.562   1.028  17.490  0.00  0.00    +0.000 OA
ATOM     14  H   UNL     1      52.060  -0.779  18.228  0.00  0.00    +0.000 HD
ATOM     15  H   UNL     1      50.594   0.128  18.165  0.00  0.00    +0.000 HD
ENDBRANCH   5  12
ENDBRANCH   1   8
BRANCH   1  16
ATOM     16  C   UNL     1      49.446   6.750  15.879  0.00  0.00    +0.000 A 
ATOM     17  C   UNL     1      50.362   7.572  15.206  0.00  0.00    +0.000 A 
ATOM     18  C   UNL     1      50.223   7.832  13.846  0.00  0.00    +0.000 A 
ATOM     19  C   UNL     1      49.150   7.285  13.140  0.00  0.00    +0.000 A 
ATOM     20  C   UNL     1      48.166   6.524  13.790  0.00  0.00    +0.000 A 
ATOM     21  C   UNL     1      48.319   6.304  15.168  0.00  0.00    +0.000 A 
BRANCH  20  22
ATOM     22  C   UNL     1      47.055   5.891  13.055  0.00  0.00    +0.000 A 
ATOM     23  C   UNL     1      46.674   6.347  11.788  0.00  0.00    +0.000 A 
ATOM     24  C   UNL     1      45.658   5.693  11.109  0.00  0.00    +0.000 A 
ATOM     25  N   UNL     1      45.000   4.620  11.593  0.00  0.00    +0.000 NA
ATOM     26  C   UNL     1      45.376   4.186  12.812  0.00  0.00    +0.000 A 
ATOM     27  C   UNL     1      46.376   4.778  13.569  0.00  0.00    +0.000 A 
ENDBRANCH  20  22
ENDBRANCH   1  16
TORSDOF 4
ENDMDL
MODEL 8
REMARK VINA RESULT:    -6.444      4.041      6.414
REMARK INTER + INTRA:          -8.103
REMARK INTER:                  -7.619
REMARK INTRA:                  -0.484
REMARK UNBOUND:                -0.152
REMARK  Name = 
REMARK  4 active torsions:
REMARK  status: ('A' for Active; 'I' for Inactive)
REMARK    1  A    between atoms: C_2  and  C_4
REMARK    2  A    between atoms: C_7  and  C_8
REMARK    3  A    between atoms: C_8  and  C_9
REMARK    4  A    between atoms: C_13  and  C_14
REMARK                            x       y       z     vdW  Elec       q    Type
REMARK                         _______ _______ _______ _____ _____    ______ ____
ROOT
ATOM      1  C   UNL     1      48.048   7.899  12.491  0.00  0.00    +0.000 C 
ATOM      2  C   UNL     1      48.314   9.161  11.651  0.00  0.00    +0.000 C 
ATOM      3  C   UNL     1      49.196   7.974  11.501  0.00  0.00    +0.000 C 
ATOM      4  F   UNL     1      50.488   8.136  11.986  0.00  0.00    +0.000 F 
ENDROOT
BRANCH   1   8
ATOM      5  C   UNL     1      44.332   5.999  11.668  0.00  0.00    +0.000 A 
ATOM      6  C   UNL     1      44.485   6.961  12.627  0.00  0.00    +0.000 A 
ATOM      7  N   UNL     1      45.651   7.588  12.873  0.00  0.00    +0.000 NA
ATOM      8  C   UNL     1      46.736   7.209  12.158  0.00  0.00    +0.000 A 
ATOM      9  N   UNL     1      46.684   6.259  11.194  0.00  0.00    +0.000 NA
ATOM     10  C   UNL     1      45.479   5.662  10.987  0.00  0.00    +0.000 A 
BRANCH   5  12
ATOM     11  N   UNL     1      41.906   5.944  11.786  0.00  0.00    +0.000 N 
ATOM     12  C   UNL     1      43.060   5.294  11.439  0.00  0.00    +0.000 C 
ATOM     13  O   UNL     1      43.032   4.178  10.936  0.00  0.00    +0.000 OA
ATOM     14  H   UNL     1      41.035   5.473  11.570  0.00  0.00    +0.000 HD
ATOM     15  H   UNL     1      41.854   6.935  11.980  0.00  0.00    +0.000 HD
ENDBRANCH   5  12
ENDBRANCH   1   8
BRANCH   1  16
ATOM     16  C   UNL     1      48.470   7.878  13.955  0.00  0.00    +0.000 A 
ATOM     17  C   UNL     1      48.606   9.068  14.685  0.00  0.00    +0.000 A 
ATOM     18  C   UNL     1      48.739   9.045  16.070  0.00  0.00    +0.000 A 
ATOM     19  C   UNL     1      48.756   7.824  16.746  0.00  0.00    +0.000 A 
ATOM     20  C   UNL     1      48.704   6.608  16.049  0.00  0.00    +0.000 A 
ATOM     21  C   UNL     1      48.600   6.664  14.650  0.00  0.00    +0.000 A 
BRANCH  20  22
ATOM     22  C   UNL     1      48.664   5.308  16.745  0.00  0.00    +0.000 A 
ATOM     23  C   UNL     1      49.755   4.857  17.498  0.00  0.00    +0.000 A 
ATOM     24  C   UNL     1      49.659   3.653  18.178  0.00  0.00    +0.000 A 
ATOM     25  N   UNL     1      48.562   2.871  18.170  0.00  0.00    +0.000 NA
ATOM     26  C   UNL     1      47.515   3.314  17.446  0.00  0.00    +0.000 A 
ATOM     27  C   UNL     1      47.519   4.501  16.727  0.00  0.00    +0.000 A 
ENDBRANCH  20  22
ENDBRANCH   1  16
TORSDOF 4
ENDMDL
MODEL 9
REMARK VINA RESULT:    -6.107      3.830      5.681
REMARK INTER + INTRA:          -7.687
REMARK INTER:                  -7.646
REMARK INTRA:                  -0.041
REMARK UNBOUND:                -0.152
REMARK  Name = 
REMARK  4 active torsions:
REMARK  status: ('A' for Active; 'I' for Inactive)
REMARK    1  A    between atoms: C_2  and  C_4
REMARK    2  A    between atoms: C_7  and  C_8
REMARK    3  A    between atoms: C_8  and  C_9
REMARK    4  A    between atoms: C_13  and  C_14
REMARK                            x       y       z     vdW  Elec       q    Type
REMARK                         _______ _______ _______ _____ _____    ______ ____
ROOT
ATOM      1  C   UNL     1      46.841   7.697  12.759  0.00  0.00    +0.000 C 
ATOM      2  C   UNL     1      45.924   8.823  13.271  0.00  0.00    +0.000 C 
ATOM      3  C   UNL     1      46.768   9.048  12.069  0.00  0.00    +0.000 C 
ATOM      4  F   UNL     1      47.814   9.946  12.244  0.00  0.00    +0.000 F 
ENDROOT
BRANCH   1   8
ATOM      5  C   UNL     1      44.747   4.244  11.421  0.00  0.00    +0.000 A 
ATOM      6  C   UNL     1      44.921   4.549  12.742  0.00  0.00    +0.000 A 
ATOM      7  N   UNL     1      45.558   5.656  13.173  0.00  0.00    +0.000 NA
ATOM      8  C   UNL     1      46.088   6.483  12.242  0.00  0.00    +0.000 A 
ATOM      9  N   UNL     1      45.973   6.260  10.911  0.00  0.00    +0.000 NA
ATOM     10  C   UNL     1      45.319   5.128  10.535  0.00  0.00    +0.000 A 
BRANCH   5  12
ATOM     11  N   UNL     1      44.724   2.270  10.006  0.00  0.00    +0.000 N 
ATOM     12  C   UNL     1      44.086   3.010  10.966  0.00  0.00    +0.000 C 
ATOM     13  O   UNL     1      43.019   2.646  11.442  0.00  0.00    +0.000 OA
ATOM     14  H   UNL     1      44.288   1.394   9.742  0.00  0.00    +0.000 HD
ATOM     15  H   UNL     1      45.695   2.393   9.752  0.00  0.00    +0.000 HD
ENDBRANCH   5  12
ENDBRANCH   1   8
BRANCH   1  16
ATOM     16  C   UNL     1      48.154   7.422  13.480  0.00  0.00    +0.000 A 
ATOM     17  C   UNL     1      49.373   7.890  12.967  0.00  0.00    +0.000 A 
ATOM     18  C   UNL     1      50.530   7.866  13.740  0.00  0.00    +0.000 A 
ATOM     19  C   UNL     1      50.488   7.354  15.038  0.00  0.00    +0.000 A 
ATOM     20  C   UNL     1      49.309   6.802  15.563  0.00  0.00    +0.000 A 
ATOM     21  C   UNL     1      48.166   6.814  14.747  0.00  0.00    +0.000 A 
BRANCH  20  22
ATOM     22  C   UNL     1      49.227   6.307  16.950  0.00  0.00    +0.000 A 
ATOM     23  C   UNL     1      48.403   6.933  17.893  0.00  0.00    +0.000 A 
ATOM     24  C   UNL     1      48.316   6.408  19.173  0.00  0.00    +0.000 A 
ATOM     25  N   UNL     1      48.980   5.308  19.580  0.00  0.00    +0.000 NA
ATOM     26  C   UNL     1      49.767   4.709  18.665  0.00  0.00    +0.000 A 
ATOM     27  C   UNL     1      49.924   5.164  17.363  0.00  0.00    +0.000 A 
ENDBRANCH  20  22
ENDBRANCH   1  16
TORSDOF 4
ENDMDL
