MODEL 1
REMARK VINA RESULT:    -7.915      0.000      0.000
REMARK INTER + INTRA:         -12.958
REMARK INTER:                 -12.311
REMARK INTRA:                  -0.648
REMARK UNBOUND:                -0.648
REMARK  Name = 
REMARK  11 active torsions:
REMARK  status: ('A' for Active; 'I' for Inactive)
REMARK    1  A    between atoms: C_1  and  O_2
REMARK    2  A    between atoms: O_2  and  C_3
REMARK    3  A    between atoms: C_5  and  C_6
REMARK    4  A    between atoms: C_11  and  O_12
REMARK    5  A    between atoms: O_12  and  C_13
REMARK    6  A    between atoms: C_13  and  C_14
REMARK    7  A    between atoms: C_19  and  C_20
REMARK    8  A    between atoms: C_23  and  O_24
REMARK    9  A    between atoms: O_24  and  C_25
REMARK   10  A    between atoms: C_25  and  C_26
REMARK   11  A    between atoms: C_26  and  O_27
REMARK                            x       y       z     vdW  Elec       q    Type
REMARK                         _______ _______ _______ _____ _____    ______ ____
ROOT
ATOM      1  C   UNL     1      44.999   5.899  11.872  0.00  0.00    +0.000 A 
ATOM      2  C   UNL     1      45.697   6.853  11.129  0.00  0.00    +0.000 A 
ATOM      3  C   UNL     1      46.990   7.208  11.504  0.00  0.00    +0.000 A 
ATOM      4  C   UNL     1      47.576   6.643  12.641  0.00  0.00    +0.000 A 
ATOM      5  F   UNL     1      48.810   7.060  12.966  0.00  0.00    +0.000 F 
ATOM      6  C   UNL     1      46.902   5.702  13.435  0.00  0.00    +0.000 A 
ATOM      7  C   UNL     1      45.614   5.329  12.999  0.00  0.00    +0.000 A 
ENDROOT
BRANCH   6   8
ATOM      8  C   UNL     1      47.456   5.132  14.690  0.00  0.00    +0.000 A 
ATOM      9  C   UNL     1      48.258   5.925  15.536  0.00  0.00    +0.000 A 
ATOM     10  C   UNL     1      48.777   5.441  16.741  0.00  0.00    +0.000 A 
ATOM     11  C   UNL     1      48.527   4.131  17.130  0.00  0.00    +0.000 A 
ATOM     12  C   UNL     1      47.776   3.310  16.292  0.00  0.00    +0.000 A 
ATOM     13  C   UNL     1      47.232   3.808  15.097  0.00  0.00    +0.000 A 
BRANCH  11  14
ATOM     14  O   UNL     1      49.004   3.551  18.273  0.00  0.00    +0.000 OA
BRANCH  14  15
ATOM     15  C   UNL     1      49.829   4.395  19.089  0.00  0.00    +0.000 C 
BRANCH  15  16
ATOM     16  C   UNL     1      49.062   4.703  20.372  0.00  0.00    +0.000 C 
BRANCH  16  17
ATOM     17  O   UNL     1      48.199   3.615  20.700  0.00  0.00    +0.000 OA
ATOM     18  H   UNL     1      47.307   3.999  20.795  0.00  0.00    +0.000 HD
ENDBRANCH  16  17
ENDBRANCH  15  16
ENDBRANCH  14  15
ENDBRANCH  11  14
ENDBRANCH   6   8
BRANCH   1  19
ATOM     19  C   UNL     1      43.592   5.485  11.509  0.00  0.00    +0.000 C 
BRANCH  19  20
ATOM     20  O   UNL     1      43.531   5.240  10.105  0.00  0.00    +0.000 OA
BRANCH  20  26
ATOM     21  C   UNL     1      44.197   2.835   9.947  0.00  0.00    +0.000 A 
ATOM     22  C   UNL     1      45.050   1.923   9.310  0.00  0.00    +0.000 A 
ATOM     23  C   UNL     1      45.967   2.333   8.328  0.00  0.00    +0.000 A 
ATOM     24  C   UNL     1      46.024   3.683   7.977  0.00  0.00    +0.000 A 
ATOM     25  C   UNL     1      45.177   4.601   8.609  0.00  0.00    +0.000 A 
ATOM     26  C   UNL     1      44.264   4.195   9.596  0.00  0.00    +0.000 A 
BRANCH  23  27
ATOM     27  C   UNL     1      46.829   1.280   7.721  0.00  0.00    +0.000 C 
ATOM     28  N   UNL     1      47.908   1.657   6.972  0.00  0.00    +0.000 N 
ATOM     29  O   UNL     1      46.590   0.088   7.881  0.00  0.00    +0.000 OA
ATOM     30  H   UNL     1      48.176   2.608   6.767  0.00  0.00    +0.000 HD
ATOM     31  H   UNL     1      48.463   0.912   6.572  0.00  0.00    +0.000 HD
ENDBRANCH  23  27
BRANCH  21  33
ATOM     32  C   UNL     1      43.653   2.283  12.208  0.00  0.00    +0.000 C 
ATOM     33  O   UNL     1      43.250   2.438  10.852  0.00  0.00    +0.000 OA
ENDBRANCH  21  33
ENDBRANCH  20  26
ENDBRANCH  19  20
ENDBRANCH   1  19
TORSDOF 10
ENDMDL
MODEL 2
REMARK VINA RESULT:    -7.266      3.183      4.275
REMARK INTER + INTRA:         -11.949
REMARK INTER:                 -11.510
REMARK INTRA:                  -0.439
REMARK UNBOUND:                -0.648
REMARK  Name = 
REMARK  11 active torsions:
REMARK  status: ('A' for Active; 'I' for Inactive)
REMARK    1  A    between atoms: C_1  and  O_2
REMARK    2  A    between atoms: O_2  and  C_3
REMARK    3  A    between atoms: C_5  and  C_6
REMARK    4  A    between atoms: C_11  and  O_12
REMARK    5  A    between atoms: O_12  and  C_13
REMARK    6  A    between atoms: C_13  and  C_14
REMARK    7  A    between atoms: C_19  and  C_20
REMARK    8  A    between atoms: C_23  and  O_24
REMARK    9  A    between atoms: O_24  and  C_25
REMARK   10  A    between atoms: C_25  and  C_26
REMARK   11  A    between atoms: C_26  and  O_27
REMARK                            x       y       z     vdW  Elec       q    Type
REMARK                         _______ _______ _______ _____ _____    ______ ____
ROOT
ATOM      1  C   UNL     1      45.414   5.897  11.803  0.00  0.00    +0.000 A 
ATOM      2  C   UNL     1      45.105   5.008  12.834  0.00  0.00    +0.000 A 
ATOM      3  C   UNL     1      45.986   4.855  13.901  0.00  0.00    +0.000 A 
ATOM      4  C   UNL     1      47.195   5.557  13.925  0.00  0.00    +0.000 A 
ATOM      5  F   UNL     1      48.014   5.332  14.964  0.00  0.00    +0.000 F 
ATOM      6  C   UNL     1      47.562   6.440  12.896  0.00  0.00    +0.000 A 
ATOM      7  C   UNL     1      46.625   6.608  11.857  0.00  0.00    +0.000 A 
ENDROOT
BRANCH   6   8
ATOM      8  C   UNL     1      48.866   7.149  12.844  0.00  0.00    +0.000 A 
ATOM      9  C   UNL     1      49.483   7.412  11.604  0.00  0.00    +0.000 A 
ATOM     10  C   UNL     1      50.695   8.102  11.504  0.00  0.00    +0.000 A 
ATOM     11  C   UNL     1      51.345   8.535  12.652  0.00  0.00    +0.000 A 
ATOM     12  C   UNL     1      50.783   8.250  13.895  0.00  0.00    +0.000 A 
ATOM     13  C   UNL     1      49.552   7.583  13.990  0.00  0.00    +0.000 A 
BRANCH  11  14
ATOM     14  O   UNL     1      52.543   9.195  12.670  0.00  0.00    +0.000 OA
BRANCH  14  15
ATOM     15  C   UNL     1      53.486   8.724  13.644  0.00  0.00    +0.000 C 
BRANCH  15  16
ATOM     16  C   UNL     1      54.420   7.734  12.954  0.00  0.00    +0.000 C 
BRANCH  16  17
ATOM     17  O   UNL     1      54.529   6.542  13.730  0.00  0.00    +0.000 OA
ATOM     18  H   UNL     1      54.975   5.889  13.158  0.00  0.00    +0.000 HD
ENDBRANCH  16  17
ENDBRANCH  15  16
ENDBRANCH  14  15
ENDBRANCH  11  14
ENDBRANCH   6   8
BRANCH   1  19
ATOM     19  C   UNL     1      44.495   6.093  10.621  0.00  0.00    +0.000 C 
BRANCH  19  20
ATOM     20  O   UNL     1      43.951   4.828  10.245  0.00  0.00    +0.000 OA
BRANCH  20  26
ATOM     21  C   UNL     1      44.711   2.587   9.438  0.00  0.00    +0.000 A 
ATOM     22  C   UNL     1      45.597   1.918   8.581  0.00  0.00    +0.000 A 
ATOM     23  C   UNL     1      46.495   2.617   7.758  0.00  0.00    +0.000 A 
ATOM     24  C   UNL     1      46.498   4.013   7.792  0.00  0.00    +0.000 A 
ATOM     25  C   UNL     1      45.617   4.688   8.645  0.00  0.00    +0.000 A 
ATOM     26  C   UNL     1      44.723   3.993   9.474  0.00  0.00    +0.000 A 
BRANCH  23  27
ATOM     27  C   UNL     1      47.396   1.806   6.891  0.00  0.00    +0.000 C 
ATOM     28  N   UNL     1      48.502   2.397   6.348  0.00  0.00    +0.000 N 
ATOM     29  O   UNL     1      47.165   0.624   6.660  0.00  0.00    +0.000 OA
ATOM     30  H   UNL     1      48.767   3.363   6.463  0.00  0.00    +0.000 HD
ATOM     31  H   UNL     1      49.083   1.813   5.761  0.00  0.00    +0.000 HD
ENDBRANCH  23  27
BRANCH  21  33
ATOM     32  C   UNL     1      43.568   2.364  11.525  0.00  0.00    +0.000 C 
ATOM     33  O   UNL     1      43.782   1.920  10.191  0.00  0.00    +0.000 OA
ENDBRANCH  21  33
ENDBRANCH  20  26
ENDBRANCH  19  20
ENDBRANCH   1  19
TORSDOF 10
ENDMDL
MODEL 3
REMARK VINA RESULT:    -7.199      3.021      8.272
REMARK INTER + INTRA:         -11.845
REMARK INTER:                 -10.520
REMARK INTRA:                  -1.326
REMARK UNBOUND:                -0.648
REMARK  Name = 
REMARK  11 active torsions:
REMARK  status: ('A' for Active; 'I' for Inactive)
REMARK    1  A    between atoms: C_1  and  O_2
REMARK    2  A    between atoms: O_2  and  C_3
REMARK    3  A    between atoms: C_5  and  C_6
REMARK    4  A    between atoms: C_11  and  O_12
REMARK    5  A    between atoms: O_12  and  C_13
REMARK    6  A    between atoms: C_13  and  C_14
REMARK    7  A    between atoms: C_19  and  C_20
REMARK    8  A    between atoms: C_23  and  O_24
REMARK    9  A    between atoms: O_24  and  C_25
REMARK   10  A    between atoms: C_25  and  C_26
REMARK   11  A    between atoms: C_26  and  O_27
REMARK                            x       y       z     vdW  Elec       q    Type
REMARK                         _______ _______ _______ _____ _____    ______ ____
ROOT
ATOM      1  C   UNL     1      49.708   7.292  15.523  0.00  0.00    +0.000 A 
ATOM      2  C   UNL     1      50.671   7.883  14.703  0.00  0.00    +0.000 A 
ATOM      3  C   UNL     1      50.456   7.958  13.329  0.00  0.00    +0.000 A 
ATOM      4  C   UNL     1      49.300   7.409  12.765  0.00  0.00    +0.000 A 
ATOM      5  F   UNL     1      49.176   7.482  11.430  0.00  0.00    +0.000 F 
ATOM      6  C   UNL     1      48.317   6.780  13.546  0.00  0.00    +0.000 A 
ATOM      7  C   UNL     1      48.545   6.766  14.937  0.00  0.00    +0.000 A 
ENDROOT
BRANCH   6   8
ATOM      8  C   UNL     1      47.112   6.121  12.982  0.00  0.00    +0.000 A 
ATOM      9  C   UNL     1      46.264   6.823  12.102  0.00  0.00    +0.000 A 
ATOM     10  C   UNL     1      45.135   6.235  11.524  0.00  0.00    +0.000 A 
ATOM     11  C   UNL     1      44.803   4.920  11.827  0.00  0.00    +0.000 A 
ATOM     12  C   UNL     1      45.597   4.215  12.729  0.00  0.00    +0.000 A 
ATOM     13  C   UNL     1      46.746   4.800  13.285  0.00  0.00    +0.000 A 
BRANCH  11  14
ATOM     14  O   UNL     1      43.712   4.257  11.339  0.00  0.00    +0.000 OA
BRANCH  14  15
ATOM     15  C   UNL     1      43.997   3.026  10.660  0.00  0.00    +0.000 C 
BRANCH  15  16
ATOM     16  C   UNL     1      44.472   3.365   9.250  0.00  0.00    +0.000 C 
BRANCH  16  17
ATOM     17  O   UNL     1      43.712   4.453   8.726  0.00  0.00    +0.000 OA
ATOM     18  H   UNL     1      43.818   5.186   9.362  0.00  0.00    +0.000 HD
ENDBRANCH  16  17
ENDBRANCH  15  16
ENDBRANCH  14  15
ENDBRANCH  11  14
ENDBRANCH   6   8
BRANCH   1  19
ATOM     19  C   UNL     1      49.898   7.182  17.017  0.00  0.00    +0.000 C 
BRANCH  19  20
ATOM     20  O   UNL     1      49.207   6.025  17.485  0.00  0.00    +0.000 OA
BRANCH  20  26
ATOM     21  C   UNL     1      49.422   3.574  17.042  0.00  0.00    +0.000 A 
ATOM     22  C   UNL     1      50.268   2.461  17.150  0.00  0.00    +0.000 A 
ATOM     23  C   UNL     1      51.559   2.566  17.693  0.00  0.00    +0.000 A 
ATOM     24  C   UNL     1      52.010   3.813  18.131  0.00  0.00    +0.000 A 
ATOM     25  C   UNL     1      51.171   4.929  18.027  0.00  0.00    +0.000 A 
ATOM     26  C   UNL     1      49.878   4.826  17.492  0.00  0.00    +0.000 A 
BRANCH  23  27
ATOM     27  C   UNL     1      52.370   1.318  17.766  0.00  0.00    +0.000 C 
ATOM     28  N   UNL     1      51.760   0.150  18.127  0.00  0.00    +0.000 N 
ATOM     29  O   UNL     1      53.569   1.321  17.507  0.00  0.00    +0.000 OA
ATOM     30  H   UNL     1      50.787   0.049  18.375  0.00  0.00    +0.000 HD
ATOM     31  H   UNL     1      52.348  -0.672  18.170  0.00  0.00    +0.000 HD
ENDBRANCH  23  27
BRANCH  21  33
ATOM     32  C   UNL     1      47.061   3.298  17.291  0.00  0.00    +0.000 C 
ATOM     33  O   UNL     1      48.190   3.499  16.449  0.00  0.00    +0.000 OA
ENDBRANCH  21  33
ENDBRANCH  20  26
ENDBRANCH  19  20
ENDBRANCH   1  19
TORSDOF 10
ENDMDL
MODEL 4
REMARK VINA RESULT:    -7.169      3.335      8.797
REMARK INTER + INTRA:         -11.798
REMARK INTER:                 -10.585
REMARK INTRA:                  -1.213
REMARK UNBOUND:                -0.648
REMARK  Name = 
REMARK  11 active torsions:
REMARK  status: ('A' for Active; 'I' for Inactive)
REMARK    1  A    between atoms: C_1  and  O_2
REMARK    2  A    between atoms: O_2  and  C_3
REMARK    3  A    between atoms: C_5  and  C_6
REMARK    4  A    between atoms: C_11  and  O_12
REMARK    5  A    between atoms: O_12  and  C_13
REMARK    6  A    between atoms: C_13  and  C_14
REMARK    7  A    between atoms: C_19  and  C_20
REMARK    8  A    between atoms: C_23  and  O_24
REMARK    9  A    between atoms: O_24  and  C_25
REMARK   10  A    between atoms: C_25  and  C_26
REMARK   11  A    between atoms: C_26  and  O_27
REMARK                            x       y       z     vdW  Elec       q    Type
REMARK                         _______ _______ _______ _____ _____    ______ ____
ROOT
ATOM      1  C   UNL     1      47.627   7.856  13.352  0.00  0.00    +0.000 A 
ATOM      2  C   UNL     1      46.846   9.010  13.433  0.00  0.00    +0.000 A 
ATOM      3  C   UNL     1      45.631   9.070  12.755  0.00  0.00    +0.000 A 
ATOM      4  C   UNL     1      45.211   7.997  11.963  0.00  0.00    +0.000 A 
ATOM      5  F   UNL     1      44.048   8.138  11.307  0.00  0.00    +0.000 F 
ATOM      6  C   UNL     1      45.976   6.827  11.829  0.00  0.00    +0.000 A 
ATOM      7  C   UNL     1      47.176   6.781  12.568  0.00  0.00    +0.000 A 
ENDROOT
BRANCH   6   8
ATOM      8  C   UNL     1      45.603   5.695  10.943  0.00  0.00    +0.000 A 
ATOM      9  C   UNL     1      44.883   4.598  11.458  0.00  0.00    +0.000 A 
ATOM     10  C   UNL     1      44.485   3.523  10.656  0.00  0.00    +0.000 A 
ATOM     11  C   UNL     1      44.817   3.501   9.307  0.00  0.00    +0.000 A 
ATOM     12  C   UNL     1      45.568   4.550   8.780  0.00  0.00    +0.000 A 
ATOM     13  C   UNL     1      45.941   5.641   9.582  0.00  0.00    +0.000 A 
BRANCH  11  14
ATOM     14  O   UNL     1      44.501   2.492   8.441  0.00  0.00    +0.000 OA
BRANCH  14  15
ATOM     15  C   UNL     1      45.115   1.227   8.725  0.00  0.00    +0.000 C 
BRANCH  15  16
ATOM     16  C   UNL     1      46.384   1.120   7.885  0.00  0.00    +0.000 C 
BRANCH  16  17
ATOM     17  O   UNL     1      46.867  -0.223   7.896  0.00  0.00    +0.000 OA
ATOM     18  H   UNL     1      47.305  -0.358   7.034  0.00  0.00    +0.000 HD
ENDBRANCH  16  17
ENDBRANCH  15  16
ENDBRANCH  14  15
ENDBRANCH  11  14
ENDBRANCH   6   8
BRANCH   1  19
ATOM     19  C   UNL     1      48.955   7.745  14.064  0.00  0.00    +0.000 C 
BRANCH  19  20
ATOM     20  O   UNL     1      49.062   6.443  14.639  0.00  0.00    +0.000 OA
BRANCH  20  26
ATOM     21  C   UNL     1      48.267   5.172  16.640  0.00  0.00    +0.000 A 
ATOM     22  C   UNL     1      48.040   5.236  18.022  0.00  0.00    +0.000 A 
ATOM     23  C   UNL     1      48.317   6.398  18.760  0.00  0.00    +0.000 A 
ATOM     24  C   UNL     1      48.836   7.514  18.099  0.00  0.00    +0.000 A 
ATOM     25  C   UNL     1      49.064   7.457  16.719  0.00  0.00    +0.000 A 
ATOM     26  C   UNL     1      48.782   6.300  15.977  0.00  0.00    +0.000 A 
BRANCH  23  27
ATOM     27  C   UNL     1      48.032   6.359  20.223  0.00  0.00    +0.000 C 
ATOM     28  N   UNL     1      46.959   5.642  20.671  0.00  0.00    +0.000 N 
ATOM     29  O   UNL     1      48.742   6.955  21.026  0.00  0.00    +0.000 OA
ATOM     30  H   UNL     1      46.308   5.136  20.089  0.00  0.00    +0.000 HD
ATOM     31  H   UNL     1      46.798   5.648  21.669  0.00  0.00    +0.000 HD
ENDBRANCH  23  27
BRANCH  21  33
ATOM     32  C   UNL     1      47.027   4.017  14.954  0.00  0.00    +0.000 C 
ATOM     33  O   UNL     1      48.070   4.023  15.922  0.00  0.00    +0.000 OA
ENDBRANCH  21  33
ENDBRANCH  20  26
ENDBRANCH  19  20
ENDBRANCH   1  19
TORSDOF 10
ENDMDL
MODEL 5
REMARK VINA RESULT:    -7.046      3.035      8.509
REMARK INTER + INTRA:         -11.607
REMARK INTER:                 -10.664
REMARK INTRA:                  -0.943
REMARK UNBOUND:                -0.648
REMARK  Name = 
REMARK  11 active torsions:
REMARK  status: ('A' for Active; 'I' for Inactive)
REMARK    1  A    between atoms: C_1  and  O_2
REMARK    2  A    between atoms: O_2  and  C_3
REMARK    3  A    between atoms: C_5  and  C_6
REMARK    4  A    between atoms: C_11  and  O_12
REMARK    5  A    between atoms: O_12  and  C_13
REMARK    6  A    between atoms: C_13  and  C_14
REMARK    7  A    between atoms: C_19  and  C_20
REMARK    8  A    between atoms: C_23  and  O_24
REMARK    9  A    between atoms: O_24  and  C_25
REMARK   10  A    between atoms: C_25  and  C_26
REMARK   11  A    between atoms: C_26  and  O_27
REMARK                            x       y       z     vdW  Elec       q    Type
REMARK                         _______ _______ _______ _____ _____    ______ ____
ROOT
ATOM      1  C   UNL     1      47.606   7.579  13.544  0.00  0.00    +0.000 A 
ATOM      2  C   UNL     1      46.821   8.732  13.591  0.00  0.00    +0.000 A 
ATOM      3  C   UNL     1      45.626   8.784  12.877  0.00  0.00    +0.000 A 
ATOM      4  C   UNL     1      45.231   7.702  12.085  0.00  0.00    +0.000 A 
ATOM      5  F   UNL     1      44.088   7.836  11.393  0.00  0.00    +0.000 F 
ATOM      6  C   UNL     1      46.001   6.533  11.984  0.00  0.00    +0.000 A 
ATOM      7  C   UNL     1      47.179   6.496  12.758  0.00  0.00    +0.000 A 
ENDROOT
BRANCH   6   8
ATOM      8  C   UNL     1      45.656   5.391  11.099  0.00  0.00    +0.000 A 
ATOM      9  C   UNL     1      45.693   5.542   9.697  0.00  0.00    +0.000 A 
ATOM     10  C   UNL     1      45.405   4.489   8.825  0.00  0.00    +0.000 A 
ATOM     11  C   UNL     1      45.046   3.245   9.330  0.00  0.00    +0.000 A 
ATOM     12  C   UNL     1      44.957   3.078  10.710  0.00  0.00    +0.000 A 
ATOM     13  C   UNL     1      45.275   4.130  11.583  0.00  0.00    +0.000 A 
BRANCH  11  14
ATOM     14  O   UNL     1      44.722   2.156   8.569  0.00  0.00    +0.000 OA
BRANCH  14  15
ATOM     15  C   UNL     1      45.801   1.247   8.310  0.00  0.00    +0.000 C 
BRANCH  15  16
ATOM     16  C   UNL     1      46.788   1.943   7.377  0.00  0.00    +0.000 C 
BRANCH  16  17
ATOM     17  O   UNL     1      47.892   1.080   7.101  0.00  0.00    +0.000 OA
ATOM     18  H   UNL     1      47.511   0.191   6.969  0.00  0.00    +0.000 HD
ENDBRANCH  16  17
ENDBRANCH  15  16
ENDBRANCH  14  15
ENDBRANCH  11  14
ENDBRANCH   6   8
BRANCH   1  19
ATOM     19  C   UNL     1      48.912   7.476  14.295  0.00  0.00    +0.000 C 
BRANCH  19  20
ATOM     20  O   UNL     1      48.634   7.229  15.672  0.00  0.00    +0.000 OA
BRANCH  20  26
ATOM     21  C   UNL     1      48.844   5.031  16.847  0.00  0.00    +0.000 A 
ATOM     22  C   UNL     1      49.734   4.148  17.472  0.00  0.00    +0.000 A 
ATOM     23  C   UNL     1      51.106   4.432  17.572  0.00  0.00    +0.000 A 
ATOM     24  C   UNL     1      51.592   5.623  17.029  0.00  0.00    +0.000 A 
ATOM     25  C   UNL     1      50.709   6.511  16.404  0.00  0.00    +0.000 A 
ATOM     26  C   UNL     1      49.336   6.234  16.308  0.00  0.00    +0.000 A 
BRANCH  23  27
ATOM     27  C   UNL     1      51.961   3.425  18.262  0.00  0.00    +0.000 C 
ATOM     28  N   UNL     1      51.651   2.100  18.146  0.00  0.00    +0.000 N 
ATOM     29  O   UNL     1      52.934   3.764  18.927  0.00  0.00    +0.000 OA
ATOM     30  H   UNL     1      50.864   1.724  17.638  0.00  0.00    +0.000 HD
ATOM     31  H   UNL     1      52.253   1.451  18.635  0.00  0.00    +0.000 HD
ENDBRANCH  23  27
BRANCH  21  33
ATOM     32  C   UNL     1      47.130   4.101  15.465  0.00  0.00    +0.000 C 
ATOM     33  O   UNL     1      47.518   4.733  16.679  0.00  0.00    +0.000 OA
ENDBRANCH  21  33
ENDBRANCH  20  26
ENDBRANCH  19  20
ENDBRANCH   1  19
TORSDOF 10
ENDMDL
MODEL 6
REMARK VINA RESULT:    -6.906      4.012      6.530
REMARK INTER + INTRA:         -11.389
REMARK INTER:                 -10.002
REMARK INTRA:                  -1.387
REMARK UNBOUND:                -0.648
REMARK  Name = 
REMARK  11 active torsions:
REMARK  status: ('A' for Active; 'I' for Inactive)
REMARK    1  A    between atoms: C_1  and  O_2
REMARK    2  A    between atoms: O_2  and  C_3
REMARK    3  A    between atoms: C_5  and  C_6
REMARK    4  A    between atoms: C_11  and  O_12
REMARK    5  A    between atoms: O_12  and  C_13
REMARK    6  A    between atoms: C_13  and  C_14
REMARK    7  A    between atoms: C_19  and  C_20
REMARK    8  A    between atoms: C_23  and  O_24
REMARK    9  A    between atoms: O_24  and  C_25
REMARK   10  A    between atoms: C_25  and  C_26
REMARK   11  A    between atoms: C_26  and  O_27
REMARK                            x       y       z     vdW  Elec       q    Type
REMARK                         _______ _______ _______ _____ _____    ______ ____
ROOT
ATOM      1  C   UNL     1      49.235   6.731  16.704  0.00  0.00    +0.000 A 
ATOM      2  C   UNL     1      48.639   7.178  17.885  0.00  0.00    +0.000 A 
ATOM      3  C   UNL     1      48.917   6.532  19.087  0.00  0.00    +0.000 A 
ATOM      4  C   UNL     1      49.758   5.415  19.109  0.00  0.00    +0.000 A 
ATOM      5  F   UNL     1      49.951   4.817  20.295  0.00  0.00    +0.000 F 
ATOM      6  C   UNL     1      50.357   4.911  17.943  0.00  0.00    +0.000 A 
ATOM      7  C   UNL     1      50.092   5.619  16.753  0.00  0.00    +0.000 A 
ENDROOT
BRANCH   6   8
ATOM      8  C   UNL     1      51.196   3.686  17.909  0.00  0.00    +0.000 A 
ATOM      9  C   UNL     1      50.678   2.484  17.386  0.00  0.00    +0.000 A 
ATOM     10  C   UNL     1      51.439   1.314  17.307  0.00  0.00    +0.000 A 
ATOM     11  C   UNL     1      52.748   1.303  17.773  0.00  0.00    +0.000 A 
ATOM     12  C   UNL     1      53.273   2.464  18.338  0.00  0.00    +0.000 A 
ATOM     13  C   UNL     1      52.514   3.644  18.389  0.00  0.00    +0.000 A 
BRANCH  11  14
ATOM     14  O   UNL     1      53.571   0.211  17.767  0.00  0.00    +0.000 OA
BRANCH  14  15
ATOM     15  C   UNL     1      54.493   0.147  16.670  0.00  0.00    +0.000 C 
BRANCH  15  16
ATOM     16  C   UNL     1      54.955  -1.300  16.527  0.00  0.00    +0.000 C 
BRANCH  16  17
ATOM     17  O   UNL     1      54.267  -1.929  15.446  0.00  0.00    +0.000 OA
ATOM     18  H   UNL     1      53.374  -2.136  15.780  0.00  0.00    +0.000 HD
ENDBRANCH  16  17
ENDBRANCH  15  16
ENDBRANCH  14  15
ENDBRANCH  11  14
ENDBRANCH   6   8
BRANCH   1  19
ATOM     19  C   UNL     1      48.960   7.394  15.375  0.00  0.00    +0.000 C 
BRANCH  19  20
ATOM     20  O   UNL     1      48.866   6.388  14.369  0.00  0.00    +0.000 OA
BRANCH  20  26
ATOM     21  C   UNL     1      46.932   4.839  14.033  0.00  0.00    +0.000 A 
ATOM     22  C   UNL     1      45.661   4.703  13.457  0.00  0.00    +0.000 A 
ATOM     23  C   UNL     1      45.056   5.753  12.748  0.00  0.00    +0.000 A 
ATOM     24  C   UNL     1      45.739   6.965  12.619  0.00  0.00    +0.000 A 
ATOM     25  C   UNL     1      47.009   7.108  13.191  0.00  0.00    +0.000 A 
ATOM     26  C   UNL     1      47.619   6.058  13.894  0.00  0.00    +0.000 A 
BRANCH  23  27
ATOM     27  C   UNL     1      43.706   5.498  12.172  0.00  0.00    +0.000 C 
ATOM     28  N   UNL     1      42.614   5.549  12.992  0.00  0.00    +0.000 N 
ATOM     29  O   UNL     1      43.558   5.245  10.980  0.00  0.00    +0.000 OA
ATOM     30  H   UNL     1      42.634   5.729  13.984  0.00  0.00    +0.000 HD
ATOM     31  H   UNL     1      41.718   5.362  12.562  0.00  0.00    +0.000 HD
ENDBRANCH  23  27
BRANCH  21  33
ATOM     32  C   UNL     1      47.163   3.792  16.169  0.00  0.00    +0.000 C 
ATOM     33  O   UNL     1      47.500   3.848  14.787  0.00  0.00    +0.000 OA
ENDBRANCH  21  33
ENDBRANCH  20  26
ENDBRANCH  19  20
ENDBRANCH   1  19
TORSDOF 10
ENDMDL
MODEL 7
REMARK VINA RESULT:    -6.648      5.506      7.679
REMARK INTER + INTRA:         -10.988
REMARK INTER:                  -9.779
REMARK INTRA:                  -1.209
REMARK UNBOUND:                -0.648
REMARK  Name = 
REMARK  11 active torsions:
REMARK  status: ('A' for Active; 'I' for Inactive)
REMARK    1  A    between atoms: C_1  and  O_2
REMARK    2  A    between atoms: O_2  and  C_3
REMARK    3  A    between atoms: C_5  and  C_6
REMARK    4  A    between atoms: C_11  and  O_12
REMARK    5  A    between atoms: O_12  and  C_13
REMARK    6  A    between atoms: C_13  and  C_14
REMARK    7  A    between atoms: C_19  and  C_20
REMARK    8  A    between atoms: C_23  and  O_24
REMARK    9  A    between atoms: O_24  and  C_25
REMARK   10  A    between atoms: C_25  and  C_26
REMARK   11  A    between atoms: C_26  and  O_27
REMARK                            x       y       z     vdW  Elec       q    Type
REMARK                         _______ _______ _______ _____ _____    ______ ____
ROOT
ATOM      1  C   UNL     1      50.965   9.081  11.201  0.00  0.00    +0.000 A 
ATOM      2  C   UNL     1      50.478  10.385  11.098  0.00  0.00    +0.000 A 
ATOM      3  C   UNL     1      49.151  10.655  11.425  0.00  0.00    +0.000 A 
ATOM      4  C   UNL     1      48.297   9.620  11.816  0.00  0.00    +0.000 A 
ATOM      5  F   UNL     1      47.021   9.945  12.078  0.00  0.00    +0.000 F 
ATOM      6  C   UNL     1      48.733   8.288  11.907  0.00  0.00    +0.000 A 
ATOM      7  C   UNL     1      50.094   8.060  11.617  0.00  0.00    +0.000 A 
ENDROOT
BRANCH   6   8
ATOM      8  C   UNL     1      47.843   7.150  12.248  0.00  0.00    +0.000 A 
ATOM      9  C   UNL     1      48.025   6.441  13.453  0.00  0.00    +0.000 A 
ATOM     10  C   UNL     1      47.194   5.382  13.829  0.00  0.00    +0.000 A 
ATOM     11  C   UNL     1      46.159   4.979  12.995  0.00  0.00    +0.000 A 
ATOM     12  C   UNL     1      45.983   5.630  11.776  0.00  0.00    +0.000 A 
ATOM     13  C   UNL     1      46.802   6.712  11.415  0.00  0.00    +0.000 A 
BRANCH  11  14
ATOM     14  O   UNL     1      45.305   3.943  13.253  0.00  0.00    +0.000 OA
BRANCH  14  15
ATOM     15  C   UNL     1      44.940   3.152  12.113  0.00  0.00    +0.000 C 
BRANCH  15  16
ATOM     16  C   UNL     1      43.418   3.055  12.075  0.00  0.00    +0.000 C 
BRANCH  16  17
ATOM     17  O   UNL     1      43.021   1.735  11.703  0.00  0.00    +0.000 OA
ATOM     18  H   UNL     1      42.814   1.272  12.537  0.00  0.00    +0.000 HD
ENDBRANCH  16  17
ENDBRANCH  15  16
ENDBRANCH  14  15
ENDBRANCH  11  14
ENDBRANCH   6   8
BRANCH   1  19
ATOM     19  C   UNL     1      52.394   8.737  10.853  0.00  0.00    +0.000 C 
BRANCH  19  20
ATOM     20  O   UNL     1      52.577   8.897   9.447  0.00  0.00    +0.000 OA
BRANCH  20  26
ATOM     21  C   UNL     1      52.844   7.639   7.303  0.00  0.00    +0.000 A 
ATOM     22  C   UNL     1      53.189   6.404   6.736  0.00  0.00    +0.000 A 
ATOM     23  C   UNL     1      53.577   5.311   7.528  0.00  0.00    +0.000 A 
ATOM     24  C   UNL     1      53.624   5.463   8.916  0.00  0.00    +0.000 A 
ATOM     25  C   UNL     1      53.280   6.693   9.490  0.00  0.00    +0.000 A 
ATOM     26  C   UNL     1      52.885   7.785   8.701  0.00  0.00    +0.000 A 
BRANCH  23  27
ATOM     27  C   UNL     1      53.917   4.044   6.821  0.00  0.00    +0.000 C 
ATOM     28  N   UNL     1      53.042   2.996   6.880  0.00  0.00    +0.000 N 
ATOM     29  O   UNL     1      54.961   3.927   6.189  0.00  0.00    +0.000 OA
ATOM     30  H   UNL     1      52.170   2.988   7.388  0.00  0.00    +0.000 HD
ATOM     31  H   UNL     1      53.314   2.153   6.392  0.00  0.00    +0.000 HD
ENDBRANCH  23  27
BRANCH  21  33
ATOM     32  C   UNL     1      53.575   9.308   5.757  0.00  0.00    +0.000 C 
ATOM     33  O   UNL     1      52.535   8.731   6.538  0.00  0.00    +0.000 OA
ENDBRANCH  21  33
ENDBRANCH  20  26
ENDBRANCH  19  20
ENDBRANCH   1  19
TORSDOF 10
ENDMDL
MODEL 8
REMARK VINA RESULT:    -6.425      3.946      6.488
REMARK INTER + INTRA:         -10.640
REMARK INTER:                  -9.450
REMARK INTRA:                  -1.190
REMARK UNBOUND:                -0.648
REMARK  Name = 
REMARK  11 active torsions:
REMARK  status: ('A' for Active; 'I' for Inactive)
REMARK    1  A    between atoms: C_1  and  O_2
REMARK    2  A    between atoms: O_2  and  C_3
REMARK    3  A    between atoms: C_5  and  C_6
REMARK    4  A    between atoms: C_11  and  O_12
REMARK    5  A    between atoms: O_12  and  C_13
REMARK    6  A    between atoms: C_13  and  C_14
REMARK    7  A    between atoms: C_19  and  C_20
REMARK    8  A    between atoms: C_23  and  O_24
REMARK    9  A    between atoms: O_24  and  C_25
REMARK   10  A    between atoms: C_25  and  C_26
REMARK   11  A    between atoms: C_26  and  O_27
REMARK                            x       y       z     vdW  Elec       q    Type
REMARK                         _______ _______ _______ _____ _____    ______ ____
ROOT
ATOM      1  C   UNL     1      48.985   6.495  16.659  0.00  0.00    +0.000 A 
ATOM      2  C   UNL     1      48.265   6.845  17.803  0.00  0.00    +0.000 A 
ATOM      3  C   UNL     1      48.465   6.139  18.987  0.00  0.00    +0.000 A 
ATOM      4  C   UNL     1      49.352   5.060  19.025  0.00  0.00    +0.000 A 
ATOM      5  F   UNL     1      49.467   4.400  20.188  0.00  0.00    +0.000 F 
ATOM      6  C   UNL     1      50.077   4.653  17.893  0.00  0.00    +0.000 A 
ATOM      7  C   UNL     1      49.887   5.420  16.725  0.00  0.00    +0.000 A 
ENDROOT
BRANCH   6   8
ATOM      8  C   UNL     1      50.974   3.469  17.868  0.00  0.00    +0.000 A 
ATOM      9  C   UNL     1      52.310   3.580  18.305  0.00  0.00    +0.000 A 
ATOM     10  C   UNL     1      53.181   2.488  18.328  0.00  0.00    +0.000 A 
ATOM     11  C   UNL     1      52.748   1.243  17.889  0.00  0.00    +0.000 A 
ATOM     12  C   UNL     1      51.447   1.112  17.409  0.00  0.00    +0.000 A 
ATOM     13  C   UNL     1      50.566   2.205  17.415  0.00  0.00    +0.000 A 
BRANCH  11  14
ATOM     14  O   UNL     1      53.522   0.116  17.846  0.00  0.00    +0.000 OA
BRANCH  14  15
ATOM     15  C   UNL     1      54.904   0.335  17.528  0.00  0.00    +0.000 C 
BRANCH  15  16
ATOM     16  C   UNL     1      55.106   0.001  16.053  0.00  0.00    +0.000 C 
BRANCH  16  17
ATOM     17  O   UNL     1      54.263  -1.088  15.678  0.00  0.00    +0.000 OA
ATOM     18  H   UNL     1      54.678  -1.889  16.050  0.00  0.00    +0.000 HD
ENDBRANCH  16  17
ENDBRANCH  15  16
ENDBRANCH  14  15
ENDBRANCH  11  14
ENDBRANCH   6   8
BRANCH   1  19
ATOM     19  C   UNL     1      48.799   7.225  15.350  0.00  0.00    +0.000 C 
BRANCH  19  20
ATOM     20  O   UNL     1      48.660   6.265  14.303  0.00  0.00    +0.000 OA
BRANCH  20  26
ATOM     21  C   UNL     1      46.981   7.148  12.673  0.00  0.00    +0.000 A 
ATOM     22  C   UNL     1      45.727   6.925  12.089  0.00  0.00    +0.000 A 
ATOM     23  C   UNL     1      44.949   5.803  12.418  0.00  0.00    +0.000 A 
ATOM     24  C   UNL     1      45.443   4.885  13.347  0.00  0.00    +0.000 A 
ATOM     25  C   UNL     1      46.695   5.101  13.936  0.00  0.00    +0.000 A 
ATOM     26  C   UNL     1      47.472   6.224  13.615  0.00  0.00    +0.000 A 
BRANCH  23  27
ATOM     27  C   UNL     1      43.628   5.669  11.741  0.00  0.00    +0.000 C 
ATOM     28  N   UNL     1      43.058   6.773  11.173  0.00  0.00    +0.000 N 
ATOM     29  O   UNL     1      43.048   4.590  11.684  0.00  0.00    +0.000 OA
ATOM     30  H   UNL     1      43.446   7.704  11.183  0.00  0.00    +0.000 HD
ATOM     31  H   UNL     1      42.159   6.639  10.730  0.00  0.00    +0.000 HD
ENDBRANCH  23  27
BRANCH  21  33
ATOM     32  C   UNL     1      48.897   7.920  11.471  0.00  0.00    +0.000 C 
ATOM     33  O   UNL     1      47.780   8.198  12.308  0.00  0.00    +0.000 OA
ENDBRANCH  21  33
ENDBRANCH  20  26
ENDBRANCH  19  20
ENDBRANCH   1  19
TORSDOF 10
ENDMDL
MODEL 9
REMARK VINA RESULT:    -6.385      3.601      8.949
REMARK INTER + INTRA:         -10.578
REMARK INTER:                  -9.853
REMARK INTRA:                  -0.725
REMARK UNBOUND:                -0.648
REMARK  Name = 
REMARK  11 active torsions:
REMARK  status: ('A' for Active; 'I' for Inactive)
REMARK    1  A    between atoms: C_1  and  O_2
REMARK    2  A    between atoms: O_2  and  C_3
REMARK    3  A    between atoms: C_5  and  C_6
REMARK    4  A    between atoms: C_11  and  O_12
REMARK    5  A    between atoms: O_12  and  C_13
REMARK    6  A    between atoms: C_13  and  C_14
REMARK    7  A    between atoms: C_19  and  C_20
REMARK    8  A    between atoms: C_23  and  O_24
REMARK    9  A    between atoms: O_24  and  C_25
REMARK   10  A    between atoms: C_25  and  C_26
REMARK   11  A    between atoms: C_26  and  O_27
REMARK                            x       y       z     vdW  Elec       q    Type
REMARK                         _______ _______ _______ _____ _____    ______ ____
ROOT
ATOM      1  C   UNL     1      47.559   7.901  13.115  0.00  0.00    +0.000 A 
ATOM      2  C   UNL     1      46.695   8.995  13.178  0.00  0.00    +0.000 A 
ATOM      3  C   UNL     1      45.450   8.929  12.557  0.00  0.00    +0.000 A 
ATOM      4  C   UNL     1      45.080   7.788  11.838  0.00  0.00    +0.000 A 
ATOM      5  F   UNL     1      43.883   7.808  11.232  0.00  0.00    +0.000 F 
ATOM      6  C   UNL     1      45.927   6.674  11.723  0.00  0.00    +0.000 A 
ATOM      7  C   UNL     1      47.158   6.757  12.405  0.00  0.00    +0.000 A 
ENDROOT
BRANCH   6   8
ATOM      8  C   UNL     1      45.605   5.474  10.911  0.00  0.00    +0.000 A 
ATOM      9  C   UNL     1      45.708   5.518   9.505  0.00  0.00    +0.000 A 
ATOM     10  C   UNL     1      45.443   4.405   8.702  0.00  0.00    +0.000 A 
ATOM     11  C   UNL     1      45.043   3.207   9.281  0.00  0.00    +0.000 A 
ATOM     12  C   UNL     1      44.889   3.146  10.665  0.00  0.00    +0.000 A 
ATOM     13  C   UNL     1      45.183   4.258  11.470  0.00  0.00    +0.000 A 
BRANCH  11  14
ATOM     14  O   UNL     1      44.736   2.068   8.590  0.00  0.00    +0.000 OA
BRANCH  14  15
ATOM     15  C   UNL     1      45.843   1.191   8.336  0.00  0.00    +0.000 C 
BRANCH  15  16
ATOM     16  C   UNL     1      46.860   1.949   7.489  0.00  0.00    +0.000 C 
BRANCH  16  17
ATOM     17  O   UNL     1      47.801   1.038   6.921  0.00  0.00    +0.000 OA
ATOM     18  H   UNL     1      48.643   1.528   6.854  0.00  0.00    +0.000 HD
ENDBRANCH  16  17
ENDBRANCH  15  16
ENDBRANCH  14  15
ENDBRANCH  11  14
ENDBRANCH   6   8
BRANCH   1  19
ATOM     19  C   UNL     1      48.922   7.926  13.766  0.00  0.00    +0.000 C 
BRANCH  19  20
ATOM     20  O   UNL     1      48.813   8.567  15.037  0.00  0.00    +0.000 OA
BRANCH  20  26
ATOM     21  C   UNL     1      48.464   8.184  17.483  0.00  0.00    +0.000 A 
ATOM     22  C   UNL     1      48.353   7.209  18.484  0.00  0.00    +0.000 A 
ATOM     23  C   UNL     1      48.436   5.838  18.192  0.00  0.00    +0.000 A 
ATOM     24  C   UNL     1      48.631   5.439  16.868  0.00  0.00    +0.000 A 
ATOM     25  C   UNL     1      48.744   6.406  15.862  0.00  0.00    +0.000 A 
ATOM     26  C   UNL     1      48.668   7.777  16.152  0.00  0.00    +0.000 A 
BRANCH  23  27
ATOM     27  C   UNL     1      48.311   4.889  19.334  0.00  0.00    +0.000 C 
ATOM     28  N   UNL     1      47.740   5.323  20.497  0.00  0.00    +0.000 N 
ATOM     29  O   UNL     1      48.707   3.732  19.248  0.00  0.00    +0.000 OA
ATOM     30  H   UNL     1      47.401   6.258  20.671  0.00  0.00    +0.000 HD
ATOM     31  H   UNL     1      47.680   4.650  21.249  0.00  0.00    +0.000 HD
ENDBRANCH  23  27
BRANCH  21  33
ATOM     32  C   UNL     1      49.437  10.227  18.251  0.00  0.00    +0.000 C 
ATOM     33  O   UNL     1      48.312   9.519  17.744  0.00  0.00    +0.000 OA
ENDBRANCH  21  33
ENDBRANCH  20  26
ENDBRANCH  19  20
ENDBRANCH   1  19
TORSDOF 10
ENDMDL
