MODEL 1
REMARK VINA RESULT:    -8.341      0.000      0.000
REMARK INTER + INTRA:         -11.444
REMARK INTER:                 -10.779
REMARK INTRA:                  -0.665
REMARK UNBOUND:                -0.665
REMARK  Name = 
REMARK  6 active torsions:
REMARK  status: ('A' for Active; 'I' for Inactive)
REMARK    1  A    between atoms: C_1  and  C_2
REMARK    2  A    between atoms: C_4  and  N_5
REMARK    3  A    between atoms: C_4  and  C_15
REMARK    4  A    between atoms: C_9  and  C_10
REMARK    5  A    between atoms: C_18  and  O_19
REMARK    6  A    between atoms: O_19  and  C_20
REMARK                            x       y       z     vdW  Elec       q    Type
REMARK                         _______ _______ _______ _____ _____    ______ ____
ROOT
ATOM      1  C   UNL     1      41.904   5.811  11.752  0.00  0.00    +0.000 C 
ATOM      2  C   UNL     1      43.143   5.255  12.363  0.00  0.00    +0.000 C 
ATOM      3  C   UNL     1      43.522   3.845  12.054  0.00  0.00    +0.000 C 
ATOM      4  C   UNL     1      44.450   4.967  11.609  0.00  0.00    +0.000 C 
ENDROOT
BRANCH   4   5
ATOM      5  N   UNL     1      44.584   5.233  10.157  0.00  0.00    +0.000 N 
ATOM      6  C   UNL     1      45.299   4.358   9.309  0.00  0.00    +0.000 A 
ATOM      7  C   UNL     1      45.260   2.977   9.457  0.00  0.00    +0.000 A 
ATOM      8  C   UNL     1      45.912   2.150   8.544  0.00  0.00    +0.000 A 
ATOM      9  C   UNL     1      46.593   2.739   7.497  0.00  0.00    +0.000 A 
ATOM     10  N   UNL     1      46.646   4.082   7.354  0.00  0.00    +0.000 NA
ATOM     11  N   UNL     1      45.985   4.890   8.269  0.00  0.00    +0.000 NA
ATOM     12  H   UNL     1      44.871   6.176   9.899  0.00  0.00    +0.000 HD
BRANCH   9  13
ATOM     13  C   UNL     1      47.281   1.900   6.472  0.00  0.00    +0.000 C 
ATOM     14  N   UNL     1      48.045   2.553   5.553  0.00  0.00    +0.000 N 
ATOM     15  O   UNL     1      47.159   0.679   6.457  0.00  0.00    +0.000 OA
ATOM     16  H   UNL     1      48.122   3.559   5.564  0.00  0.00    +0.000 HD
ATOM     17  H   UNL     1      48.507   2.019   4.829  0.00  0.00    +0.000 HD
ENDBRANCH   9  13
ENDBRANCH   4   5
BRANCH   4  18
ATOM     18  C   UNL     1      45.711   5.319  12.407  0.00  0.00    +0.000 A 
ATOM     19  C   UNL     1      46.587   6.347  12.021  0.00  0.00    +0.000 A 
ATOM     20  C   UNL     1      47.720   6.672  12.778  0.00  0.00    +0.000 A 
ATOM     21  C   UNL     1      47.985   5.994  13.966  0.00  0.00    +0.000 A 
ATOM     22  C   UNL     1      47.161   4.938  14.345  0.00  0.00    +0.000 A 
ATOM     23  C   UNL     1      46.040   4.606  13.576  0.00  0.00    +0.000 A 
BRANCH  21  24
ATOM     24  O   UNL     1      49.022   6.261  14.814  0.00  0.00    +0.000 OA
BRANCH  24  25
ATOM     25  C   UNL     1      48.751   6.025  16.186  0.00  0.00    +0.000 C 
ATOM     26  F   UNL     1      49.861   5.460  16.726  0.00  0.00    +0.000 F 
ATOM     27  F   UNL     1      48.579   7.218  16.803  0.00  0.00    +0.000 F 
ENDBRANCH  24  25
ENDBRANCH  21  24
ENDBRANCH   4  18
TORSDOF 5
ENDMDL
MODEL 2
REMARK VINA RESULT:    -7.432      1.392      1.782
REMARK INTER + INTRA:         -10.269
REMARK INTER:                  -9.779
REMARK INTRA:                  -0.490
REMARK UNBOUND:                -0.665
REMARK  Name = 
REMARK  6 active torsions:
REMARK  status: ('A' for Active; 'I' for Inactive)
REMARK    1  A    between atoms: C_1  and  C_2
REMARK    2  A    between atoms: C_4  and  N_5
REMARK    3  A    between atoms: C_4  and  C_15
REMARK    4  A    between atoms: C_9  and  C_10
REMARK    5  A    between atoms: C_18  and  O_19
REMARK    6  A    between atoms: O_19  and  C_20
REMARK                            x       y       z     vdW  Elec       q    Type
REMARK                         _______ _______ _______ _____ _____    ______ ____
ROOT
ATOM      1  C   UNL     1      42.043   5.523  11.722  0.00  0.00    +0.000 C 
ATOM      2  C   UNL     1      43.353   5.262  12.380  0.00  0.00    +0.000 C 
ATOM      3  C   UNL     1      44.036   3.960  12.122  0.00  0.00    +0.000 C 
ATOM      4  C   UNL     1      44.714   5.246  11.669  0.00  0.00    +0.000 C 
ENDROOT
BRANCH   4   5
ATOM      5  N   UNL     1      44.833   5.500  10.213  0.00  0.00    +0.000 N 
ATOM      6  C   UNL     1      45.477   4.583   9.353  0.00  0.00    +0.000 A 
ATOM      7  C   UNL     1      45.361   3.208   9.506  0.00  0.00    +0.000 A 
ATOM      8  C   UNL     1      45.943   2.342   8.581  0.00  0.00    +0.000 A 
ATOM      9  C   UNL     1      46.636   2.889   7.519  0.00  0.00    +0.000 A 
ATOM     10  N   UNL     1      46.764   4.226   7.371  0.00  0.00    +0.000 NA
ATOM     11  N   UNL     1      46.171   5.072   8.297  0.00  0.00    +0.000 NA
ATOM     12  H   UNL     1      45.168   6.425   9.946  0.00  0.00    +0.000 HD
BRANCH   9  13
ATOM     13  C   UNL     1      47.252   2.008   6.482  0.00  0.00    +0.000 C 
ATOM     14  N   UNL     1      47.890   2.626   5.450  0.00  0.00    +0.000 N 
ATOM     15  O   UNL     1      47.180   0.786   6.556  0.00  0.00    +0.000 OA
ATOM     16  H   UNL     1      47.925   3.633   5.391  0.00  0.00    +0.000 HD
ATOM     17  H   UNL     1      48.299   2.062   4.717  0.00  0.00    +0.000 HD
ENDBRANCH   9  13
ENDBRANCH   4   5
BRANCH   4  18
ATOM     18  C   UNL     1      45.845   5.880  12.487  0.00  0.00    +0.000 A 
ATOM     19  C   UNL     1      46.658   5.135  13.356  0.00  0.00    +0.000 A 
ATOM     20  C   UNL     1      47.705   5.727  14.075  0.00  0.00    +0.000 A 
ATOM     21  C   UNL     1      47.986   7.081  13.911  0.00  0.00    +0.000 A 
ATOM     22  C   UNL     1      47.164   7.853  13.094  0.00  0.00    +0.000 A 
ATOM     23  C   UNL     1      46.110   7.259  12.392  0.00  0.00    +0.000 A 
BRANCH  21  24
ATOM     24  O   UNL     1      49.013   7.753  14.511  0.00  0.00    +0.000 OA
BRANCH  24  25
ATOM     25  C   UNL     1      50.247   7.710  13.813  0.00  0.00    +0.000 C 
ATOM     26  F   UNL     1      50.417   8.915  13.214  0.00  0.00    +0.000 F 
ATOM     27  F   UNL     1      51.248   7.576  14.716  0.00  0.00    +0.000 F 
ENDBRANCH  24  25
ENDBRANCH  21  24
ENDBRANCH   4  18
TORSDOF 5
ENDMDL
MODEL 3
REMARK VINA RESULT:    -6.845      4.427      7.354
REMARK INTER + INTRA:          -9.511
REMARK INTER:                  -9.804
REMARK INTRA:                   0.293
REMARK UNBOUND:                -0.665
REMARK  Name = 
REMARK  6 active torsions:
REMARK  status: ('A' for Active; 'I' for Inactive)
REMARK    1  A    between atoms: C_1  and  C_2
REMARK    2  A    between atoms: C_4  and  N_5
REMARK    3  A    between atoms: C_4  and  C_15
REMARK    4  A    between atoms: C_9  and  C_10
REMARK    5  A    between atoms: C_18  and  O_19
REMARK    6  A    between atoms: O_19  and  C_20
REMARK                            x       y       z     vdW  Elec       q    Type
REMARK                         _______ _______ _______ _____ _____    ______ ____
ROOT
ATOM      1  C   UNL     1      44.875   4.746  13.635  0.00  0.00    +0.000 C 
ATOM      2  C   UNL     1      44.603   4.016  12.366  0.00  0.00    +0.000 C 
ATOM      3  C   UNL     1      43.208   3.993  11.839  0.00  0.00    +0.000 C 
ATOM      4  C   UNL     1      44.291   4.675  11.015  0.00  0.00    +0.000 C 
ENDROOT
BRANCH   4   5
ATOM      5  N   UNL     1      44.234   6.149  10.864  0.00  0.00    +0.000 N 
ATOM      6  C   UNL     1      45.229   6.987  11.414  0.00  0.00    +0.000 A 
ATOM      7  C   UNL     1      46.575   6.641  11.423  0.00  0.00    +0.000 A 
ATOM      8  C   UNL     1      47.532   7.537  11.898  0.00  0.00    +0.000 A 
ATOM      9  C   UNL     1      47.105   8.767  12.358  0.00  0.00    +0.000 A 
ATOM     10  N   UNL     1      45.796   9.105  12.365  0.00  0.00    +0.000 NA
ATOM     11  N   UNL     1      44.859   8.203  11.881  0.00  0.00    +0.000 NA
ATOM     12  H   UNL     1      43.340   6.587  11.083  0.00  0.00    +0.000 HD
BRANCH   9  13
ATOM     13  C   UNL     1      48.090   9.776  12.848  0.00  0.00    +0.000 C 
ATOM     14  N   UNL     1      47.645  11.056  12.981  0.00  0.00    +0.000 N 
ATOM     15  O   UNL     1      49.247   9.466  13.112  0.00  0.00    +0.000 OA
ATOM     16  H   UNL     1      46.696  11.303  12.743  0.00  0.00    +0.000 HD
ATOM     17  H   UNL     1      48.291  11.772  13.289  0.00  0.00    +0.000 HD
ENDBRANCH   9  13
ENDBRANCH   4   5
BRANCH   4  18
ATOM     18  C   UNL     1      44.942   3.970   9.819  0.00  0.00    +0.000 A 
ATOM     19  C   UNL     1      45.566   4.673   8.776  0.00  0.00    +0.000 A 
ATOM     20  C   UNL     1      46.181   4.011   7.706  0.00  0.00    +0.000 A 
ATOM     21  C   UNL     1      46.217   2.619   7.673  0.00  0.00    +0.000 A 
ATOM     22  C   UNL     1      45.563   1.898   8.670  0.00  0.00    +0.000 A 
ATOM     23  C   UNL     1      44.936   2.566   9.727  0.00  0.00    +0.000 A 
BRANCH  21  24
ATOM     24  O   UNL     1      46.836   1.867   6.716  0.00  0.00    +0.000 OA
BRANCH  24  25
ATOM     25  C   UNL     1      47.415   2.605   5.653  0.00  0.00    +0.000 C 
ATOM     26  F   UNL     1      48.424   1.857   5.141  0.00  0.00    +0.000 F 
ATOM     27  F   UNL     1      46.491   2.741   4.671  0.00  0.00    +0.000 F 
ENDBRANCH  24  25
ENDBRANCH  21  24
ENDBRANCH   4  18
TORSDOF 5
ENDMDL
MODEL 4
REMARK VINA RESULT:    -5.934      4.318      6.025
REMARK INTER + INTRA:          -8.334
REMARK INTER:                  -7.442
REMARK INTRA:                  -0.892
REMARK UNBOUND:                -0.665
REMARK  Name = 
REMARK  6 active torsions:
REMARK  status: ('A' for Active; 'I' for Inactive)
REMARK    1  A    between atoms: C_1  and  C_2
REMARK    2  A    between atoms: C_4  and  N_5
REMARK    3  A    between atoms: C_4  and  C_15
REMARK    4  A    between atoms: C_9  and  C_10
REMARK    5  A    between atoms: C_18  and  O_19
REMARK    6  A    between atoms: O_19  and  C_20
REMARK                            x       y       z     vdW  Elec       q    Type
REMARK                         _______ _______ _______ _____ _____    ______ ____
ROOT
ATOM      1  C   UNL     1      50.992   8.144  11.423  0.00  0.00    +0.000 C 
ATOM      2  C   UNL     1      50.134   8.675  12.518  0.00  0.00    +0.000 C 
ATOM      3  C   UNL     1      48.690   8.924  12.238  0.00  0.00    +0.000 C 
ATOM      4  C   UNL     1      49.065   7.873  13.274  0.00  0.00    +0.000 C 
ENDROOT
BRANCH   4   5
ATOM      5  N   UNL     1      48.794   6.449  12.958  0.00  0.00    +0.000 N 
ATOM      6  C   UNL     1      47.489   5.912  13.028  0.00  0.00    +0.000 A 
ATOM      7  C   UNL     1      46.366   6.626  12.631  0.00  0.00    +0.000 A 
ATOM      8  C   UNL     1      45.108   6.025  12.636  0.00  0.00    +0.000 A 
ATOM      9  C   UNL     1      45.013   4.710  13.046  0.00  0.00    +0.000 A 
ATOM     10  N   UNL     1      46.100   4.013  13.446  0.00  0.00    +0.000 NA
ATOM     11  N   UNL     1      47.345   4.627  13.428  0.00  0.00    +0.000 NA
ATOM     12  H   UNL     1      49.406   5.768  13.405  0.00  0.00    +0.000 HD
BRANCH   9  13
ATOM     13  C   UNL     1      43.696   4.008  13.041  0.00  0.00    +0.000 C 
ATOM     14  N   UNL     1      43.701   2.692  12.690  0.00  0.00    +0.000 N 
ATOM     15  O   UNL     1      42.657   4.591  13.333  0.00  0.00    +0.000 OA
ATOM     16  H   UNL     1      44.560   2.227  12.433  0.00  0.00    +0.000 HD
ATOM     17  H   UNL     1      42.824   2.189  12.652  0.00  0.00    +0.000 HD
ENDBRANCH   9  13
ENDBRANCH   4   5
BRANCH   4  18
ATOM     18  C   UNL     1      49.009   8.180  14.774  0.00  0.00    +0.000 A 
ATOM     19  C   UNL     1      48.230   9.222  15.304  0.00  0.00    +0.000 A 
ATOM     20  C   UNL     1      48.171   9.470  16.682  0.00  0.00    +0.000 A 
ATOM     21  C   UNL     1      48.867   8.653  17.570  0.00  0.00    +0.000 A 
ATOM     22  C   UNL     1      49.685   7.644  17.067  0.00  0.00    +0.000 A 
ATOM     23  C   UNL     1      49.754   7.412  15.690  0.00  0.00    +0.000 A 
BRANCH  21  24
ATOM     24  O   UNL     1      48.838   8.760  18.931  0.00  0.00    +0.000 OA
BRANCH  24  25
ATOM     25  C   UNL     1      47.661   8.263  19.548  0.00  0.00    +0.000 C 
ATOM     26  F   UNL     1      46.721   9.239  19.474  0.00  0.00    +0.000 F 
ATOM     27  F   UNL     1      47.200   7.219  18.817  0.00  0.00    +0.000 F 
ENDBRANCH  24  25
ENDBRANCH  21  24
ENDBRANCH   4  18
TORSDOF 5
ENDMDL
MODEL 5
REMARK VINA RESULT:    -5.812      5.664      8.556
REMARK INTER + INTRA:          -8.176
REMARK INTER:                  -7.918
REMARK INTRA:                  -0.258
REMARK UNBOUND:                -0.665
REMARK  Name = 
REMARK  6 active torsions:
REMARK  status: ('A' for Active; 'I' for Inactive)
REMARK    1  A    between atoms: C_1  and  C_2
REMARK    2  A    between atoms: C_4  and  N_5
REMARK    3  A    between atoms: C_4  and  C_15
REMARK    4  A    between atoms: C_9  and  C_10
REMARK    5  A    between atoms: C_18  and  O_19
REMARK    6  A    between atoms: O_19  and  C_20
REMARK                            x       y       z     vdW  Elec       q    Type
REMARK                         _______ _______ _______ _____ _____    ______ ____
ROOT
ATOM      1  C   UNL     1      47.677   6.194  19.316  0.00  0.00    +0.000 C 
ATOM      2  C   UNL     1      48.119   6.437  17.915  0.00  0.00    +0.000 C 
ATOM      3  C   UNL     1      49.567   6.292  17.586  0.00  0.00    +0.000 C 
ATOM      4  C   UNL     1      48.569   5.352  16.926  0.00  0.00    +0.000 C 
ENDROOT
BRANCH   4   5
ATOM      5  N   UNL     1      48.597   3.919  17.306  0.00  0.00    +0.000 N 
ATOM      6  C   UNL     1      49.807   3.192  17.355  0.00  0.00    +0.000 A 
ATOM      7  C   UNL     1      50.994   3.747  17.816  0.00  0.00    +0.000 A 
ATOM      8  C   UNL     1      52.143   2.966  17.929  0.00  0.00    +0.000 A 
ATOM      9  C   UNL     1      52.067   1.635  17.568  0.00  0.00    +0.000 A 
ATOM     10  N   UNL     1      50.919   1.091  17.107  0.00  0.00    +0.000 NA
ATOM     11  N   UNL     1      49.784   1.883  17.009  0.00  0.00    +0.000 NA
ATOM     12  H   UNL     1      47.923   3.318  16.835  0.00  0.00    +0.000 HD
BRANCH   9  13
ATOM     13  C   UNL     1      53.259   0.746  17.699  0.00  0.00    +0.000 C 
ATOM     14  N   UNL     1      53.070  -0.449  18.325  0.00  0.00    +0.000 N 
ATOM     15  O   UNL     1      54.358   1.079  17.268  0.00  0.00    +0.000 OA
ATOM     16  H   UNL     1      52.165  -0.704  18.693  0.00  0.00    +0.000 HD
ATOM     17  H   UNL     1      53.860  -1.068  18.452  0.00  0.00    +0.000 HD
ENDBRANCH   9  13
ENDBRANCH   4   5
BRANCH   4  18
ATOM     18  C   UNL     1      48.084   5.586  15.490  0.00  0.00    +0.000 A 
ATOM     19  C   UNL     1      47.138   4.757  14.867  0.00  0.00    +0.000 A 
ATOM     20  C   UNL     1      46.687   5.004  13.564  0.00  0.00    +0.000 A 
ATOM     21  C   UNL     1      47.149   6.115  12.863  0.00  0.00    +0.000 A 
ATOM     22  C   UNL     1      48.124   6.926  13.440  0.00  0.00    +0.000 A 
ATOM     23  C   UNL     1      48.583   6.664  14.734  0.00  0.00    +0.000 A 
BRANCH  21  24
ATOM     24  O   UNL     1      46.739   6.490  11.616  0.00  0.00    +0.000 OA
BRANCH  24  25
ATOM     25  C   UNL     1      45.687   5.709  11.070  0.00  0.00    +0.000 C 
ATOM     26  F   UNL     1      44.527   6.377  11.296  0.00  0.00    +0.000 F 
ATOM     27  F   UNL     1      45.849   5.648   9.726  0.00  0.00    +0.000 F 
ENDBRANCH  24  25
ENDBRANCH  21  24
ENDBRANCH   4  18
TORSDOF 5
ENDMDL
MODEL 6
REMARK VINA RESULT:    -5.643      4.316      6.656
REMARK INTER + INTRA:          -7.958
REMARK INTER:                  -7.422
REMARK INTRA:                  -0.536
REMARK UNBOUND:                -0.665
REMARK  Name = 
REMARK  6 active torsions:
REMARK  status: ('A' for Active; 'I' for Inactive)
REMARK    1  A    between atoms: C_1  and  C_2
REMARK    2  A    between atoms: C_4  and  N_5
REMARK    3  A    between atoms: C_4  and  C_15
REMARK    4  A    between atoms: C_9  and  C_10
REMARK    5  A    between atoms: C_18  and  O_19
REMARK    6  A    between atoms: O_19  and  C_20
REMARK                            x       y       z     vdW  Elec       q    Type
REMARK                         _______ _______ _______ _____ _____    ______ ____
ROOT
ATOM      1  C   UNL     1      44.347   3.779  10.804  0.00  0.00    +0.000 C 
ATOM      2  C   UNL     1      44.762   4.999  11.550  0.00  0.00    +0.000 C 
ATOM      3  C   UNL     1      44.142   5.270  12.879  0.00  0.00    +0.000 C 
ATOM      4  C   UNL     1      45.641   5.011  12.810  0.00  0.00    +0.000 C 
ENDROOT
BRANCH   4   5
ATOM      5  N   UNL     1      46.164   3.758  13.403  0.00  0.00    +0.000 N 
ATOM      6  C   UNL     1      46.900   3.763  14.609  0.00  0.00    +0.000 A 
ATOM      7  C   UNL     1      46.589   4.603  15.670  0.00  0.00    +0.000 A 
ATOM      8  C   UNL     1      47.288   4.512  16.873  0.00  0.00    +0.000 A 
ATOM      9  C   UNL     1      48.293   3.571  16.976  0.00  0.00    +0.000 A 
ATOM     10  N   UNL     1      48.610   2.758  15.943  0.00  0.00    +0.000 NA
ATOM     11  N   UNL     1      47.897   2.859  14.756  0.00  0.00    +0.000 NA
ATOM     12  H   UNL     1      46.663   3.136  12.768  0.00  0.00    +0.000 HD
BRANCH   9  13
ATOM     13  C   UNL     1      49.052   3.408  18.251  0.00  0.00    +0.000 C 
ATOM     14  N   UNL     1      48.336   3.046  19.352  0.00  0.00    +0.000 N 
ATOM     15  O   UNL     1      50.262   3.598  18.305  0.00  0.00    +0.000 OA
ATOM     16  H   UNL     1      47.337   2.911  19.299  0.00  0.00    +0.000 HD
ATOM     17  H   UNL     1      48.813   2.949  20.238  0.00  0.00    +0.000 HD
ENDBRANCH   9  13
ENDBRANCH   4   5
BRANCH   4  18
ATOM     18  C   UNL     1      46.649   6.165  12.847  0.00  0.00    +0.000 A 
ATOM     19  C   UNL     1      46.289   7.473  13.211  0.00  0.00    +0.000 A 
ATOM     20  C   UNL     1      47.231   8.508  13.266  0.00  0.00    +0.000 A 
ATOM     21  C   UNL     1      48.571   8.249  12.990  0.00  0.00    +0.000 A 
ATOM     22  C   UNL     1      48.947   6.972  12.579  0.00  0.00    +0.000 A 
ATOM     23  C   UNL     1      47.999   5.947  12.509  0.00  0.00    +0.000 A 
BRANCH  21  24
ATOM     24  O   UNL     1      49.585   9.161  13.068  0.00  0.00    +0.000 OA
BRANCH  24  25
ATOM     25  C   UNL     1      49.990   9.717  11.828  0.00  0.00    +0.000 C 
ATOM     26  F   UNL     1      50.765   8.795  11.203  0.00  0.00    +0.000 F 
ATOM     27  F   UNL     1      48.890   9.893  11.056  0.00  0.00    +0.000 F 
ENDBRANCH  24  25
ENDBRANCH  21  24
ENDBRANCH   4  18
TORSDOF 5
ENDMDL
MODEL 7
REMARK VINA RESULT:    -5.621      5.154      8.432
REMARK INTER + INTRA:          -7.929
REMARK INTER:                  -7.171
REMARK INTRA:                  -0.758
REMARK UNBOUND:                -0.665
REMARK  Name = 
REMARK  6 active torsions:
REMARK  status: ('A' for Active; 'I' for Inactive)
REMARK    1  A    between atoms: C_1  and  C_2
REMARK    2  A    between atoms: C_4  and  N_5
REMARK    3  A    between atoms: C_4  and  C_15
REMARK    4  A    between atoms: C_9  and  C_10
REMARK    5  A    between atoms: C_18  and  O_19
REMARK    6  A    between atoms: O_19  and  C_20
REMARK                            x       y       z     vdW  Elec       q    Type
REMARK                         _______ _______ _______ _____ _____    ______ ____
ROOT
ATOM      1  C   UNL     1      48.726   9.748  11.635  0.00  0.00    +0.000 C 
ATOM      2  C   UNL     1      48.372   8.314  11.822  0.00  0.00    +0.000 C 
ATOM      3  C   UNL     1      49.416   7.382  12.342  0.00  0.00    +0.000 C 
ATOM      4  C   UNL     1      48.166   7.622  13.178  0.00  0.00    +0.000 C 
ENDROOT
BRANCH   4   5
ATOM      5  N   UNL     1      48.307   8.360  14.456  0.00  0.00    +0.000 N 
ATOM      6  C   UNL     1      48.792   7.729  15.623  0.00  0.00    +0.000 A 
ATOM      7  C   UNL     1      49.814   6.789  15.594  0.00  0.00    +0.000 A 
ATOM      8  C   UNL     1      50.320   6.257  16.779  0.00  0.00    +0.000 A 
ATOM      9  C   UNL     1      49.777   6.688  17.973  0.00  0.00    +0.000 A 
ATOM     10  N   UNL     1      48.774   7.594  18.009  0.00  0.00    +0.000 NA
ATOM     11  N   UNL     1      48.288   8.117  16.818  0.00  0.00    +0.000 NA
ATOM     12  H   UNL     1      47.501   8.912  14.745  0.00  0.00    +0.000 HD
BRANCH   9  13
ATOM     13  C   UNL     1      50.302   6.176  19.273  0.00  0.00    +0.000 C 
ATOM     14  N   UNL     1      51.336   6.864  19.834  0.00  0.00    +0.000 N 
ATOM     15  O   UNL     1      49.828   5.179  19.808  0.00  0.00    +0.000 OA
ATOM     16  H   UNL     1      51.730   7.672  19.375  0.00  0.00    +0.000 HD
ATOM     17  H   UNL     1      51.733   6.533  20.703  0.00  0.00    +0.000 HD
ENDBRANCH   9  13
ENDBRANCH   4   5
BRANCH   4  18
ATOM     18  C   UNL     1      47.010   6.615  13.186  0.00  0.00    +0.000 A 
ATOM     19  C   UNL     1      45.684   6.985  12.906  0.00  0.00    +0.000 A 
ATOM     20  C   UNL     1      44.645   6.045  12.891  0.00  0.00    +0.000 A 
ATOM     21  C   UNL     1      44.917   4.699  13.122  0.00  0.00    +0.000 A 
ATOM     22  C   UNL     1      46.214   4.313  13.450  0.00  0.00    +0.000 A 
ATOM     23  C   UNL     1      47.244   5.259  13.480  0.00  0.00    +0.000 A 
BRANCH  21  24
ATOM     24  O   UNL     1      43.999   3.688  13.075  0.00  0.00    +0.000 OA
BRANCH  24  25
ATOM     25  C   UNL     1      43.466   3.421  11.788  0.00  0.00    +0.000 C 
ATOM     26  F   UNL     1      44.489   3.500  10.900  0.00  0.00    +0.000 F 
ATOM     27  F   UNL     1      43.024   2.140  11.762  0.00  0.00    +0.000 F 
ENDBRANCH  24  25
ENDBRANCH  21  24
ENDBRANCH   4  18
TORSDOF 5
ENDMDL
MODEL 8
REMARK VINA RESULT:    -5.376      4.250      6.171
REMARK INTER + INTRA:          -7.612
REMARK INTER:                  -6.763
REMARK INTRA:                  -0.849
REMARK UNBOUND:                -0.665
REMARK  Name = 
REMARK  6 active torsions:
REMARK  status: ('A' for Active; 'I' for Inactive)
REMARK    1  A    between atoms: C_1  and  C_2
REMARK    2  A    between atoms: C_4  and  N_5
REMARK    3  A    between atoms: C_4  and  C_15
REMARK    4  A    between atoms: C_9  and  C_10
REMARK    5  A    between atoms: C_18  and  O_19
REMARK    6  A    between atoms: O_19  and  C_20
REMARK                            x       y       z     vdW  Elec       q    Type
REMARK                         _______ _______ _______ _____ _____    ______ ____
ROOT
ATOM      1  C   UNL     1      47.972   9.185  16.709  0.00  0.00    +0.000 C 
ATOM      2  C   UNL     1      48.789   8.599  15.610  0.00  0.00    +0.000 C 
ATOM      3  C   UNL     1      48.640   7.145  15.306  0.00  0.00    +0.000 C 
ATOM      4  C   UNL     1      48.248   8.160  14.242  0.00  0.00    +0.000 C 
ENDROOT
BRANCH   4   5
ATOM      5  N   UNL     1      46.812   8.294  13.895  0.00  0.00    +0.000 N 
ATOM      6  C   UNL     1      46.168   7.366  13.046  0.00  0.00    +0.000 A 
ATOM      7  C   UNL     1      46.442   6.005  13.083  0.00  0.00    +0.000 A 
ATOM      8  C   UNL     1      45.719   5.117  12.287  0.00  0.00    +0.000 A 
ATOM      9  C   UNL     1      44.734   5.628  11.466  0.00  0.00    +0.000 A 
ATOM     10  N   UNL     1      44.471   6.953  11.416  0.00  0.00    +0.000 NA
ATOM     11  N   UNL     1      45.196   7.820  12.220  0.00  0.00    +0.000 NA
ATOM     12  H   UNL     1      46.510   9.218  13.589  0.00  0.00    +0.000 HD
BRANCH   9  13
ATOM     13  C   UNL     1      43.908   4.718  10.617  0.00  0.00    +0.000 C 
ATOM     14  N   UNL     1      44.215   4.666   9.292  0.00  0.00    +0.000 N 
ATOM     15  O   UNL     1      42.993   4.054  11.093  0.00  0.00    +0.000 OA
ATOM     16  H   UNL     1      44.958   5.232   8.909  0.00  0.00    +0.000 HD
ATOM     17  H   UNL     1      43.662   4.078   8.682  0.00  0.00    +0.000 HD
ENDBRANCH   9  13
ENDBRANCH   4   5
BRANCH   4  18
ATOM     18  C   UNL     1      49.185   8.491  13.074  0.00  0.00    +0.000 A 
ATOM     19  C   UNL     1      49.448   9.808  12.666  0.00  0.00    +0.000 A 
ATOM     20  C   UNL     1      50.329  10.092  11.615  0.00  0.00    +0.000 A 
ATOM     21  C   UNL     1      50.999   9.057  10.966  0.00  0.00    +0.000 A 
ATOM     22  C   UNL     1      50.718   7.739  11.317  0.00  0.00    +0.000 A 
ATOM     23  C   UNL     1      49.824   7.462  12.357  0.00  0.00    +0.000 A 
BRANCH  21  24
ATOM     24  O   UNL     1      51.921   9.214   9.971  0.00  0.00    +0.000 OA
BRANCH  24  25
ATOM     25  C   UNL     1      52.725   8.074   9.712  0.00  0.00    +0.000 C 
ATOM     26  F   UNL     1      52.458   7.668   8.445  0.00  0.00    +0.000 F 
ATOM     27  F   UNL     1      54.026   8.451   9.736  0.00  0.00    +0.000 F 
ENDBRANCH  24  25
ENDBRANCH  21  24
ENDBRANCH   4  18
TORSDOF 5
ENDMDL
