MODEL 1
REMARK VINA RESULT:    -5.631      0.000      0.000
REMARK INTER + INTRA:          -6.967
REMARK INTER:                  -6.619
REMARK INTRA:                  -0.348
REMARK UNBOUND:                -0.348
REMARK  Name = 
REMARK  6 active torsions:
REMARK  status: ('A' for Active; 'I' for Inactive)
REMARK    1  A    between atoms: C_1  and  C_2
REMARK    2  A    between atoms: C_4  and  C_5
REMARK    3  A    between atoms: C_4  and  C_6
REMARK    4  A    between atoms: C_13  and  C_14
REMARK    5  A    between atoms: C_15  and  C_16
REMARK    6  A    between atoms: C_19  and  C_20
REMARK                            x       y       z     vdW  Elec       q    Type
REMARK                         _______ _______ _______ _____ _____    ______ ____
ROOT
ATOM      1  C   UNL     1      45.271   8.972  12.891  0.00  0.00    +0.000 C 
ATOM      2  C   UNL     1      46.680   8.524  13.255  0.00  0.00    +0.000 C 
ATOM      3  C   UNL     1      47.775   8.986  12.292  0.00  0.00    +0.000 C 
ATOM      4  C   UNL     1      49.016   8.054  12.542  0.00  0.00    +0.000 C 
ATOM      5  C   UNL     1      49.422   7.389  11.200  0.00  0.00    +0.000 C 
ATOM      6  C   UNL     1      48.470   6.936  13.520  0.00  0.00    +0.000 C 
ATOM      7  C   UNL     1      48.897   7.106  14.990  0.00  0.00    +0.000 C 
ATOM      8  C   UNL     1      46.910   7.014  13.420  0.00  0.00    +0.000 C 
ENDROOT
BRANCH   4   9
ATOM      9  C   UNL     1      50.235   8.850  13.039  0.00  0.00    +0.000 A 
ATOM     10  C   UNL     1      51.539   8.413  12.823  0.00  0.00    +0.000 A 
ATOM     11  C   UNL     1      52.590   9.215  13.247  0.00  0.00    +0.000 A 
ATOM     12  F   UNL     1      53.850   8.808  13.045  0.00  0.00    +0.000 F 
ATOM     13  C   UNL     1      52.362  10.429  13.866  0.00  0.00    +0.000 A 
ATOM     14  C   UNL     1      51.050  10.796  14.048  0.00  0.00    +0.000 A 
ATOM     15  N   UNL     1      50.004  10.036  13.656  0.00  0.00    +0.000 NA
ENDBRANCH   4   9
BRANCH   8  16
ATOM     16  C   UNL     1      46.301   6.076  12.386  0.00  0.00    +0.000 A 
ATOM     17  C   UNL     1      45.800   4.828  12.790  0.00  0.00    +0.000 A 
ATOM     18  C   UNL     1      45.225   3.960  11.859  0.00  0.00    +0.000 A 
ATOM     19  C   UNL     1      45.181   4.355  10.531  0.00  0.00    +0.000 A 
ATOM     20  N   UNL     1      45.651   5.549  10.090  0.00  0.00    +0.000 NA
ATOM     21  C   UNL     1      46.178   6.366  11.027  0.00  0.00    +0.000 A 
BRANCH  19  22
ATOM     22  C   UNL     1      44.624   3.450   9.479  0.00  0.00    +0.000 C 
ATOM     23  N   UNL     1      44.231   4.070   8.325  0.00  0.00    +0.000 N 
ATOM     24  O   UNL     1      44.536   2.238   9.626  0.00  0.00    +0.000 OA
ATOM     25  H   UNL     1      44.345   5.076   8.237  0.00  0.00    +0.000 HD
ATOM     26  H   UNL     1      43.884   3.524   7.549  0.00  0.00    +0.000 HD
ENDBRANCH  19  22
ENDBRANCH   8  16
TORSDOF 3
ENDMDL
MODEL 2
REMARK VINA RESULT:    -4.987      2.099      2.504
REMARK INTER + INTRA:          -6.210
REMARK INTER:                  -5.854
REMARK INTRA:                  -0.356
REMARK UNBOUND:                -0.348
REMARK  Name = 
REMARK  6 active torsions:
REMARK  status: ('A' for Active; 'I' for Inactive)
REMARK    1  A    between atoms: C_1  and  C_2
REMARK    2  A    between atoms: C_4  and  C_5
REMARK    3  A    between atoms: C_4  and  C_6
REMARK    4  A    between atoms: C_13  and  C_14
REMARK    5  A    between atoms: C_15  and  C_16
REMARK    6  A    between atoms: C_19  and  C_20
REMARK                            x       y       z     vdW  Elec       q    Type
REMARK                         _______ _______ _______ _____ _____    ______ ____
ROOT
ATOM      1  C   UNL     1      46.378  10.252  12.077  0.00  0.00    +0.000 C 
ATOM      2  C   UNL     1      47.793   9.915  12.529  0.00  0.00    +0.000 C 
ATOM      3  C   UNL     1      48.751   9.515  11.406  0.00  0.00    +0.000 C 
ATOM      4  C   UNL     1      49.950   8.759  12.086  0.00  0.00    +0.000 C 
ATOM      5  C   UNL     1      50.094   7.358  11.432  0.00  0.00    +0.000 C 
ATOM      6  C   UNL     1      49.489   8.574  13.588  0.00  0.00    +0.000 C 
ATOM      7  C   UNL     1      50.151   9.542  14.586  0.00  0.00    +0.000 C 
ATOM      8  C   UNL     1      47.941   8.809  13.586  0.00  0.00    +0.000 C 
ENDROOT
BRANCH   4   9
ATOM      9  C   UNL     1      51.284   9.495  11.874  0.00  0.00    +0.000 A 
ATOM     10  C   UNL     1      52.509   8.840  11.955  0.00  0.00    +0.000 A 
ATOM     11  C   UNL     1      53.668   9.557  11.691  0.00  0.00    +0.000 A 
ATOM     12  F   UNL     1      54.854   8.940  11.765  0.00  0.00    +0.000 F 
ATOM     13  C   UNL     1      53.621  10.895  11.347  0.00  0.00    +0.000 A 
ATOM     14  C   UNL     1      52.377  11.477  11.287  0.00  0.00    +0.000 A 
ATOM     15  N   UNL     1      51.231  10.811  11.546  0.00  0.00    +0.000 NA
ENDBRANCH   4   9
BRANCH   8  16
ATOM     16  C   UNL     1      47.114   7.541  13.423  0.00  0.00    +0.000 A 
ATOM     17  C   UNL     1      47.667   6.302  13.782  0.00  0.00    +0.000 A 
ATOM     18  C   UNL     1      46.920   5.128  13.654  0.00  0.00    +0.000 A 
ATOM     19  C   UNL     1      45.633   5.220  13.146  0.00  0.00    +0.000 A 
ATOM     20  N   UNL     1      45.054   6.392  12.784  0.00  0.00    +0.000 NA
ATOM     21  C   UNL     1      45.804   7.504  12.946  0.00  0.00    +0.000 A 
BRANCH  19  22
ATOM     22  C   UNL     1      44.802   3.995  12.936  0.00  0.00    +0.000 C 
ATOM     23  N   UNL     1      45.472   2.917  12.426  0.00  0.00    +0.000 N 
ATOM     24  O   UNL     1      43.610   3.948  13.211  0.00  0.00    +0.000 OA
ATOM     25  H   UNL     1      46.466   2.994  12.236  0.00  0.00    +0.000 HD
ATOM     26  H   UNL     1      44.991   2.038  12.295  0.00  0.00    +0.000 HD
ENDBRANCH  19  22
ENDBRANCH   8  16
TORSDOF 3
ENDMDL
MODEL 3
REMARK VINA RESULT:    -4.845      4.057      7.336
REMARK INTER + INTRA:          -6.043
REMARK INTER:                  -5.701
REMARK INTRA:                  -0.343
REMARK UNBOUND:                -0.348
REMARK  Name = 
REMARK  6 active torsions:
REMARK  status: ('A' for Active; 'I' for Inactive)
REMARK    1  A    between atoms: C_1  and  C_2
REMARK    2  A    between atoms: C_4  and  C_5
REMARK    3  A    between atoms: C_4  and  C_6
REMARK    4  A    between atoms: C_13  and  C_14
REMARK    5  A    between atoms: C_15  and  C_16
REMARK    6  A    between atoms: C_19  and  C_20
REMARK                            x       y       z     vdW  Elec       q    Type
REMARK                         _______ _______ _______ _____ _____    ______ ____
ROOT
ATOM      1  C   UNL     1      49.154   7.011  14.809  0.00  0.00    +0.000 C 
ATOM      2  C   UNL     1      47.907   7.263  13.972  0.00  0.00    +0.000 C 
ATOM      3  C   UNL     1      47.506   6.112  13.047  0.00  0.00    +0.000 C 
ATOM      4  C   UNL     1      46.549   6.723  11.960  0.00  0.00    +0.000 C 
ATOM      5  C   UNL     1      47.124   6.409  10.553  0.00  0.00    +0.000 C 
ATOM      6  C   UNL     1      46.628   8.283  12.206  0.00  0.00    +0.000 C 
ATOM      7  C   UNL     1      45.409   8.881  12.934  0.00  0.00    +0.000 C 
ATOM      8  C   UNL     1      47.912   8.509  13.073  0.00  0.00    +0.000 C 
ENDROOT
BRANCH   4   9
ATOM      9  C   UNL     1      45.143   6.099  12.022  0.00  0.00    +0.000 A 
ATOM     10  C   UNL     1      44.756   5.258  13.061  0.00  0.00    +0.000 A 
ATOM     11  C   UNL     1      43.451   4.782  13.082  0.00  0.00    +0.000 A 
ATOM     12  F   UNL     1      43.063   3.973  14.076  0.00  0.00    +0.000 F 
ATOM     13  C   UNL     1      42.544   5.132  12.101  0.00  0.00    +0.000 A 
ATOM     14  C   UNL     1      42.997   5.964  11.105  0.00  0.00    +0.000 A 
ATOM     15  N   UNL     1      44.260   6.438  11.049  0.00  0.00    +0.000 NA
ENDBRANCH   4   9
BRANCH   8  16
ATOM     16  C   UNL     1      49.168   8.809  12.265  0.00  0.00    +0.000 A 
ATOM     17  C   UNL     1      49.378  10.103  11.765  0.00  0.00    +0.000 A 
ATOM     18  C   UNL     1      50.531  10.403  11.034  0.00  0.00    +0.000 A 
ATOM     19  C   UNL     1      51.445   9.386  10.804  0.00  0.00    +0.000 A 
ATOM     20  N   UNL     1      51.289   8.120  11.265  0.00  0.00    +0.000 NA
ATOM     21  C   UNL     1      50.171   7.881  11.985  0.00  0.00    +0.000 A 
BRANCH  19  22
ATOM     22  C   UNL     1      52.673   9.630   9.985  0.00  0.00    +0.000 C 
ATOM     23  N   UNL     1      52.848   8.779   8.929  0.00  0.00    +0.000 N 
ATOM     24  O   UNL     1      53.463  10.533  10.228  0.00  0.00    +0.000 OA
ATOM     25  H   UNL     1      52.154   8.059   8.751  0.00  0.00    +0.000 HD
ATOM     26  H   UNL     1      53.630   8.904   8.302  0.00  0.00    +0.000 HD
ENDBRANCH  19  22
ENDBRANCH   8  16
TORSDOF 3
ENDMDL
MODEL 4
REMARK VINA RESULT:    -4.831      4.037      7.655
REMARK INTER + INTRA:          -6.027
REMARK INTER:                  -5.670
REMARK INTRA:                  -0.357
REMARK UNBOUND:                -0.348
REMARK  Name = 
REMARK  6 active torsions:
REMARK  status: ('A' for Active; 'I' for Inactive)
REMARK    1  A    between atoms: C_1  and  C_2
REMARK    2  A    between atoms: C_4  and  C_5
REMARK    3  A    between atoms: C_4  and  C_6
REMARK    4  A    between atoms: C_13  and  C_14
REMARK    5  A    between atoms: C_15  and  C_16
REMARK    6  A    between atoms: C_19  and  C_20
REMARK                            x       y       z     vdW  Elec       q    Type
REMARK                         _______ _______ _______ _____ _____    ______ ____
ROOT
ATOM      1  C   UNL     1      46.769  10.093  12.589  0.00  0.00    +0.000 C 
ATOM      2  C   UNL     1      46.590   8.652  12.127  0.00  0.00    +0.000 C 
ATOM      3  C   UNL     1      46.094   7.686  13.204  0.00  0.00    +0.000 C 
ATOM      4  C   UNL     1      46.438   6.237  12.700  0.00  0.00    +0.000 C 
ATOM      5  C   UNL     1      47.292   5.520  13.781  0.00  0.00    +0.000 C 
ATOM      6  C   UNL     1      47.334   6.475  11.418  0.00  0.00    +0.000 C 
ATOM      7  C   UNL     1      46.607   6.258  10.078  0.00  0.00    +0.000 C 
ATOM      8  C   UNL     1      47.817   7.961  11.511  0.00  0.00    +0.000 C 
ENDROOT
BRANCH   4   9
ATOM      9  C   UNL     1      45.171   5.390  12.492  0.00  0.00    +0.000 A 
ATOM     10  C   UNL     1      43.929   5.969  12.247  0.00  0.00    +0.000 A 
ATOM     11  C   UNL     1      42.842   5.139  12.008  0.00  0.00    +0.000 A 
ATOM     12  F   UNL     1      41.641   5.681  11.770  0.00  0.00    +0.000 F 
ATOM     13  C   UNL     1      42.976   3.763  12.004  0.00  0.00    +0.000 A 
ATOM     14  C   UNL     1      44.231   3.262  12.255  0.00  0.00    +0.000 A 
ATOM     15  N   UNL     1      45.308   4.040  12.500  0.00  0.00    +0.000 NA
ENDBRANCH   4   9
BRANCH   8  16
ATOM     16  C   UNL     1      49.165   8.140  12.198  0.00  0.00    +0.000 A 
ATOM     17  C   UNL     1      50.331   8.234  11.423  0.00  0.00    +0.000 A 
ATOM     18  C   UNL     1      51.575   8.413  12.033  0.00  0.00    +0.000 A 
ATOM     19  C   UNL     1      51.626   8.475  13.417  0.00  0.00    +0.000 A 
ATOM     20  N   UNL     1      50.529   8.389  14.210  0.00  0.00    +0.000 NA
ATOM     21  C   UNL     1      49.345   8.239  13.578  0.00  0.00    +0.000 A 
BRANCH  19  22
ATOM     22  C   UNL     1      52.932   8.614  14.132  0.00  0.00    +0.000 C 
ATOM     23  N   UNL     1      53.636   7.451  14.290  0.00  0.00    +0.000 N 
ATOM     24  O   UNL     1      53.355   9.688  14.537  0.00  0.00    +0.000 OA
ATOM     25  H   UNL     1      53.258   6.586  13.915  0.00  0.00    +0.000 HD
ATOM     26  H   UNL     1      54.549   7.467  14.724  0.00  0.00    +0.000 HD
ENDBRANCH  19  22
ENDBRANCH   8  16
TORSDOF 3
ENDMDL
MODEL 5
REMARK VINA RESULT:    -4.707      2.651      3.532
REMARK INTER + INTRA:          -5.881
REMARK INTER:                  -5.530
REMARK INTRA:                  -0.351
REMARK UNBOUND:                -0.348
REMARK  Name = 
REMARK  6 active torsions:
REMARK  status: ('A' for Active; 'I' for Inactive)
REMARK    1  A    between atoms: C_1  and  C_2
REMARK    2  A    between atoms: C_4  and  C_5
REMARK    3  A    between atoms: C_4  and  C_6
REMARK    4  A    between atoms: C_13  and  C_14
REMARK    5  A    between atoms: C_15  and  C_16
REMARK    6  A    between atoms: C_19  and  C_20
REMARK                            x       y       z     vdW  Elec       q    Type
REMARK                         _______ _______ _______ _____ _____    ______ ____
ROOT
ATOM      1  C   UNL     1      49.698   7.714  11.692  0.00  0.00    +0.000 C 
ATOM      2  C   UNL     1      49.511   8.228  13.114  0.00  0.00    +0.000 C 
ATOM      3  C   UNL     1      50.245   7.428  14.192  0.00  0.00    +0.000 C 
ATOM      4  C   UNL     1      49.560   7.785  15.560  0.00  0.00    +0.000 C 
ATOM      5  C   UNL     1      49.084   6.473  16.240  0.00  0.00    +0.000 C 
ATOM      6  C   UNL     1      48.291   8.635  15.149  0.00  0.00    +0.000 C 
ATOM      7  C   UNL     1      48.437  10.153  15.366  0.00  0.00    +0.000 C 
ATOM      8  C   UNL     1      48.067   8.348  13.626  0.00  0.00    +0.000 C 
ENDROOT
BRANCH   4   9
ATOM      9  C   UNL     1      50.544   8.464  16.530  0.00  0.00    +0.000 A 
ATOM     10  C   UNL     1      51.716   9.069  16.087  0.00  0.00    +0.000 A 
ATOM     11  C   UNL     1      52.524   9.715  17.014  0.00  0.00    +0.000 A 
ATOM     12  F   UNL     1      53.655  10.302  16.603  0.00  0.00    +0.000 F 
ATOM     13  C   UNL     1      52.180   9.770  18.351  0.00  0.00    +0.000 A 
ATOM     14  C   UNL     1      51.009   9.149  18.717  0.00  0.00    +0.000 A 
ATOM     15  N   UNL     1      50.205   8.505  17.844  0.00  0.00    +0.000 NA
ENDBRANCH   4   9
BRANCH   8  16
ATOM     16  C   UNL     1      47.103   7.205  13.339  0.00  0.00    +0.000 A 
ATOM     17  C   UNL     1      45.795   7.490  12.919  0.00  0.00    +0.000 A 
ATOM     18  C   UNL     1      44.900   6.455  12.637  0.00  0.00    +0.000 A 
ATOM     19  C   UNL     1      45.333   5.148  12.801  0.00  0.00    +0.000 A 
ATOM     20  N   UNL     1      46.586   4.820  13.204  0.00  0.00    +0.000 NA
ATOM     21  C   UNL     1      47.424   5.852  13.444  0.00  0.00    +0.000 A 
BRANCH  19  22
ATOM     22  C   UNL     1      44.407   3.997  12.564  0.00  0.00    +0.000 C 
ATOM     23  N   UNL     1      45.008   2.770  12.503  0.00  0.00    +0.000 N 
ATOM     24  O   UNL     1      43.197   4.134  12.447  0.00  0.00    +0.000 OA
ATOM     25  H   UNL     1      46.013   2.701  12.630  0.00  0.00    +0.000 HD
ATOM     26  H   UNL     1      44.447   1.937  12.388  0.00  0.00    +0.000 HD
ENDBRANCH  19  22
ENDBRANCH   8  16
TORSDOF 3
ENDMDL
MODEL 6
REMARK VINA RESULT:    -4.701      2.763      3.766
REMARK INTER + INTRA:          -5.874
REMARK INTER:                  -5.551
REMARK INTRA:                  -0.323
REMARK UNBOUND:                -0.348
REMARK  Name = 
REMARK  6 active torsions:
REMARK  status: ('A' for Active; 'I' for Inactive)
REMARK    1  A    between atoms: C_1  and  C_2
REMARK    2  A    between atoms: C_4  and  C_5
REMARK    3  A    between atoms: C_4  and  C_6
REMARK    4  A    between atoms: C_13  and  C_14
REMARK    5  A    between atoms: C_15  and  C_16
REMARK    6  A    between atoms: C_19  and  C_20
REMARK                            x       y       z     vdW  Elec       q    Type
REMARK                         _______ _______ _______ _____ _____    ______ ____
ROOT
ATOM      1  C   UNL     1      49.554   7.952  11.384  0.00  0.00    +0.000 C 
ATOM      2  C   UNL     1      49.254   8.178  12.860  0.00  0.00    +0.000 C 
ATOM      3  C   UNL     1      49.692   7.045  13.789  0.00  0.00    +0.000 C 
ATOM      4  C   UNL     1      48.888   7.225  15.128  0.00  0.00    +0.000 C 
ATOM      5  C   UNL     1      48.118   5.912  15.431  0.00  0.00    +0.000 C 
ATOM      6  C   UNL     1      47.841   8.366  14.800  0.00  0.00    +0.000 C 
ATOM      7  C   UNL     1      48.196   9.748  15.380  0.00  0.00    +0.000 C 
ATOM      8  C   UNL     1      47.790   8.455  13.238  0.00  0.00    +0.000 C 
ENDROOT
BRANCH   4   9
ATOM      9  C   UNL     1      49.821   7.487  16.323  0.00  0.00    +0.000 A 
ATOM     10  C   UNL     1      49.420   7.255  17.635  0.00  0.00    +0.000 A 
ATOM     11  C   UNL     1      50.338   7.457  18.658  0.00  0.00    +0.000 A 
ATOM     12  F   UNL     1      49.967   7.237  19.926  0.00  0.00    +0.000 F 
ATOM     13  C   UNL     1      51.629   7.872  18.393  0.00  0.00    +0.000 A 
ATOM     14  C   UNL     1      51.954   8.082  17.074  0.00  0.00    +0.000 A 
ATOM     15  N   UNL     1      51.084   7.905  16.056  0.00  0.00    +0.000 NA
ENDBRANCH   4   9
BRANCH   8  16
ATOM     16  C   UNL     1      46.706   7.600  12.596  0.00  0.00    +0.000 A 
ATOM     17  C   UNL     1      45.511   8.200  12.170  0.00  0.00    +0.000 A 
ATOM     18  C   UNL     1      44.510   7.435  11.566  0.00  0.00    +0.000 A 
ATOM     19  C   UNL     1      44.722   6.073  11.419  0.00  0.00    +0.000 A 
ATOM     20  N   UNL     1      45.858   5.446  11.815  0.00  0.00    +0.000 NA
ATOM     21  C   UNL     1      46.807   6.227  12.373  0.00  0.00    +0.000 A 
BRANCH  19  22
ATOM     22  C   UNL     1      43.668   5.192  10.827  0.00  0.00    +0.000 C 
ATOM     23  N   UNL     1      43.918   4.761   9.553  0.00  0.00    +0.000 N 
ATOM     24  O   UNL     1      42.659   4.864  11.437  0.00  0.00    +0.000 OA
ATOM     25  H   UNL     1      44.780   5.039   9.094  0.00  0.00    +0.000 HD
ATOM     26  H   UNL     1      43.276   4.127   9.098  0.00  0.00    +0.000 HD
ENDBRANCH  19  22
ENDBRANCH   8  16
TORSDOF 3
ENDMDL
MODEL 7
REMARK VINA RESULT:    -4.638     12.697     13.729
REMARK INTER + INTRA:          -5.800
REMARK INTER:                  -5.557
REMARK INTRA:                  -0.242
REMARK UNBOUND:                -0.348
REMARK  Name = 
REMARK  6 active torsions:
REMARK  status: ('A' for Active; 'I' for Inactive)
REMARK    1  A    between atoms: C_1  and  C_2
REMARK    2  A    between atoms: C_4  and  C_5
REMARK    3  A    between atoms: C_4  and  C_6
REMARK    4  A    between atoms: C_13  and  C_14
REMARK    5  A    between atoms: C_15  and  C_16
REMARK    6  A    between atoms: C_19  and  C_20
REMARK                            x       y       z     vdW  Elec       q    Type
REMARK                         _______ _______ _______ _____ _____    ______ ____
ROOT
ATOM      1  C   UNL     1      38.577  -0.375  16.198  0.00  0.00    +0.000 C 
ATOM      2  C   UNL     1      38.990  -1.780  15.779  0.00  0.00    +0.000 C 
ATOM      3  C   UNL     1      40.468  -1.938  15.418  0.00  0.00    +0.000 C 
ATOM      4  C   UNL     1      40.585  -3.259  14.574  0.00  0.00    +0.000 C 
ATOM      5  C   UNL     1      41.258  -2.927  13.215  0.00  0.00    +0.000 C 
ATOM      6  C   UNL     1      39.085  -3.684  14.309  0.00  0.00    +0.000 C 
ATOM      7  C   UNL     1      38.583  -4.848  15.184  0.00  0.00    +0.000 C 
ATOM      8  C   UNL     1      38.226  -2.408  14.602  0.00  0.00    +0.000 C 
ENDROOT
BRANCH   4   9
ATOM      9  C   UNL     1      41.471  -4.305  15.272  0.00  0.00    +0.000 A 
ATOM     10  C   UNL     1      42.004  -4.092  16.540  0.00  0.00    +0.000 A 
ATOM     11  C   UNL     1      42.745  -5.107  17.131  0.00  0.00    +0.000 A 
ATOM     12  F   UNL     1      43.263  -4.917  18.351  0.00  0.00    +0.000 F 
ATOM     13  C   UNL     1      42.951  -6.313  16.488  0.00  0.00    +0.000 A 
ATOM     14  C   UNL     1      42.396  -6.453  15.238  0.00  0.00    +0.000 A 
ATOM     15  N   UNL     1      41.679  -5.483  14.630  0.00  0.00    +0.000 NA
ENDBRANCH   4   9
BRANCH   8  16
ATOM     16  C   UNL     1      37.951  -1.543  13.379  0.00  0.00    +0.000 A 
ATOM     17  C   UNL     1      38.190  -2.060  12.096  0.00  0.00    +0.000 A 
ATOM     18  C   UNL     1      37.930  -1.288  10.961  0.00  0.00    +0.000 A 
ATOM     19  C   UNL     1      37.451   0.001  11.138  0.00  0.00    +0.000 A 
ATOM     20  N   UNL     1      37.205   0.547  12.355  0.00  0.00    +0.000 NA
ATOM     21  C   UNL     1      37.449  -0.243  13.424  0.00  0.00    +0.000 A 
BRANCH  19  22
ATOM     22  C   UNL     1      37.202   0.895   9.965  0.00  0.00    +0.000 C 
ATOM     23  N   UNL     1      36.325   0.405   9.036  0.00  0.00    +0.000 N 
ATOM     24  O   UNL     1      37.729   1.992   9.844  0.00  0.00    +0.000 OA
ATOM     25  H   UNL     1      35.892  -0.501   9.189  0.00  0.00    +0.000 HD
ATOM     26  H   UNL     1      36.070   0.966   8.235  0.00  0.00    +0.000 HD
ENDBRANCH  19  22
ENDBRANCH   8  16
TORSDOF 3
ENDMDL
MODEL 8
REMARK VINA RESULT:    -4.520      2.996      4.249
REMARK INTER + INTRA:          -5.661
REMARK INTER:                  -5.471
REMARK INTRA:                  -0.190
REMARK UNBOUND:                -0.348
REMARK  Name = 
REMARK  6 active torsions:
REMARK  status: ('A' for Active; 'I' for Inactive)
REMARK    1  A    between atoms: C_1  and  C_2
REMARK    2  A    between atoms: C_4  and  C_5
REMARK    3  A    between atoms: C_4  and  C_6
REMARK    4  A    between atoms: C_13  and  C_14
REMARK    5  A    between atoms: C_15  and  C_16
REMARK    6  A    between atoms: C_19  and  C_20
REMARK                            x       y       z     vdW  Elec       q    Type
REMARK                         _______ _______ _______ _____ _____    ______ ____
ROOT
ATOM      1  C   UNL     1      46.488   5.102  13.148  0.00  0.00    +0.000 C 
ATOM      2  C   UNL     1      47.709   6.012  13.168  0.00  0.00    +0.000 C 
ATOM      3  C   UNL     1      47.969   6.716  14.501  0.00  0.00    +0.000 C 
ATOM      4  C   UNL     1      48.918   7.930  14.191  0.00  0.00    +0.000 C 
ATOM      5  C   UNL     1      48.250   9.232  14.707  0.00  0.00    +0.000 C 
ATOM      6  C   UNL     1      48.978   7.981  12.611  0.00  0.00    +0.000 C 
ATOM      7  C   UNL     1      50.276   7.420  11.999  0.00  0.00    +0.000 C 
ATOM      8  C   UNL     1      47.761   7.130  12.114  0.00  0.00    +0.000 C 
ENDROOT
BRANCH   4   9
ATOM      9  C   UNL     1      50.269   7.797  14.915  0.00  0.00    +0.000 A 
ATOM     10  C   UNL     1      51.195   8.836  14.943  0.00  0.00    +0.000 A 
ATOM     11  C   UNL     1      52.367   8.665  15.668  0.00  0.00    +0.000 A 
ATOM     12  F   UNL     1      53.267   9.655  15.706  0.00  0.00    +0.000 F 
ATOM     13  C   UNL     1      52.619   7.494  16.358  0.00  0.00    +0.000 A 
ATOM     14  C   UNL     1      51.661   6.512  16.285  0.00  0.00    +0.000 A 
ATOM     15  N   UNL     1      50.515   6.641  15.582  0.00  0.00    +0.000 NA
ENDBRANCH   4   9
BRANCH   8  16
ATOM     16  C   UNL     1      46.495   7.938  11.858  0.00  0.00    +0.000 A 
ATOM     17  C   UNL     1      46.520   9.333  12.010  0.00  0.00    +0.000 A 
ATOM     18  C   UNL     1      45.373  10.093  11.766  0.00  0.00    +0.000 A 
ATOM     19  C   UNL     1      44.214   9.432  11.391  0.00  0.00    +0.000 A 
ATOM     20  N   UNL     1      44.138   8.087  11.231  0.00  0.00    +0.000 NA
ATOM     21  C   UNL     1      45.276   7.394  11.456  0.00  0.00    +0.000 A 
BRANCH  19  22
ATOM     22  C   UNL     1      42.941  10.183  11.165  0.00  0.00    +0.000 C 
ATOM     23  N   UNL     1      42.568  11.016  12.184  0.00  0.00    +0.000 N 
ATOM     24  O   UNL     1      42.281  10.077  10.139  0.00  0.00    +0.000 OA
ATOM     25  H   UNL     1      43.159  11.092  13.006  0.00  0.00    +0.000 HD
ATOM     26  H   UNL     1      41.742  11.592  12.091  0.00  0.00    +0.000 HD
ENDBRANCH  19  22
ENDBRANCH   8  16
TORSDOF 3
ENDMDL
MODEL 9
REMARK VINA RESULT:    -4.396     13.390     15.224
REMARK INTER + INTRA:          -5.516
REMARK INTER:                  -5.208
REMARK INTRA:                  -0.307
REMARK UNBOUND:                -0.348
REMARK  Name = 
REMARK  6 active torsions:
REMARK  status: ('A' for Active; 'I' for Inactive)
REMARK    1  A    between atoms: C_1  and  C_2
REMARK    2  A    between atoms: C_4  and  C_5
REMARK    3  A    between atoms: C_4  and  C_6
REMARK    4  A    between atoms: C_13  and  C_14
REMARK    5  A    between atoms: C_15  and  C_16
REMARK    6  A    between atoms: C_19  and  C_20
REMARK                            x       y       z     vdW  Elec       q    Type
REMARK                         _______ _______ _______ _____ _____    ______ ____
ROOT
ATOM      1  C   UNL     1      40.242  -6.234  18.337  0.00  0.00    +0.000 C 
ATOM      2  C   UNL     1      40.335  -5.078  17.349  0.00  0.00    +0.000 C 
ATOM      3  C   UNL     1      40.129  -5.463  15.883  0.00  0.00    +0.000 C 
ATOM      4  C   UNL     1      40.731  -4.294  15.023  0.00  0.00    +0.000 C 
ATOM      5  C   UNL     1      41.789  -4.881  14.051  0.00  0.00    +0.000 C 
ATOM      6  C   UNL     1      41.465  -3.373  16.079  0.00  0.00    +0.000 C 
ATOM      7  C   UNL     1      40.707  -2.083  16.443  0.00  0.00    +0.000 C 
ATOM      8  C   UNL     1      41.633  -4.255  17.362  0.00  0.00    +0.000 C 
ENDROOT
BRANCH   4   9
ATOM      9  C   UNL     1      39.657  -3.609  14.160  0.00  0.00    +0.000 A 
ATOM     10  C   UNL     1      39.978  -2.918  12.995  0.00  0.00    +0.000 A 
ATOM     11  C   UNL     1      38.948  -2.378  12.235  0.00  0.00    +0.000 A 
ATOM     12  F   UNL     1      39.241  -1.712  11.111  0.00  0.00    +0.000 F 
ATOM     13  C   UNL     1      37.627  -2.520  12.613  0.00  0.00    +0.000 A 
ATOM     14  C   UNL     1      37.385  -3.213  13.776  0.00  0.00    +0.000 A 
ATOM     15  N   UNL     1      38.362  -3.743  14.543  0.00  0.00    +0.000 NA
ENDBRANCH   4   9
BRANCH   8  16
ATOM     16  C   UNL     1      42.959  -5.001  17.441  0.00  0.00    +0.000 A 
ATOM     17  C   UNL     1      43.953  -4.556  18.325  0.00  0.00    +0.000 A 
ATOM     18  C   UNL     1      45.170  -5.236  18.423  0.00  0.00    +0.000 A 
ATOM     19  C   UNL     1      45.373  -6.342  17.612  0.00  0.00    +0.000 A 
ATOM     20  N   UNL     1      44.444  -6.810  16.741  0.00  0.00    +0.000 NA
ATOM     21  C   UNL     1      43.274  -6.137  16.696  0.00  0.00    +0.000 A 
BRANCH  19  22
ATOM     22  C   UNL     1      46.673  -7.080  17.633  0.00  0.00    +0.000 C 
ATOM     23  N   UNL     1      47.383  -6.977  18.797  0.00  0.00    +0.000 N 
ATOM     24  O   UNL     1      47.074  -7.743  16.685  0.00  0.00    +0.000 OA
ATOM     25  H   UNL     1      47.000  -6.436  19.567  0.00  0.00    +0.000 HD
ATOM     26  H   UNL     1      48.251  -7.482  18.907  0.00  0.00    +0.000 HD
ENDBRANCH  19  22
ENDBRANCH   8  16
TORSDOF 3
ENDMDL
