MODEL 1
REMARK VINA RESULT:    -8.298      0.000      0.000
REMARK INTER + INTRA:         -13.524
REMARK INTER:                 -12.179
REMARK INTRA:                  -1.345
REMARK UNBOUND:                -1.345
REMARK  Name = 
REMARK  9 active torsions:
REMARK  status: ('A' for Active; 'I' for Inactive)
REMARK    1  A    between atoms: C_1  and  O_2
REMARK    2  A    between atoms: O_2  and  C_3
REMARK    3  A    between atoms: C_10  and  C_11
REMARK    4  A    between atoms: N_13  and  C_14
REMARK    5  A    between atoms: C_14  and  C_15
REMARK    6  A    between atoms: C_18  and  N_19
REMARK    7  A    between atoms: N_19  and  C_20
REMARK    8  A    between atoms: C_20  and  C_21
REMARK    9  A    between atoms: C_21  and  C_22
REMARK                            x       y       z     vdW  Elec       q    Type
REMARK                         _______ _______ _______ _____ _____    ______ ____
ROOT
ATOM      1  C   UNL     1      47.065   8.317  13.415  0.00  0.00    +0.000 C 
ENDROOT
BRANCH   1   2
ATOM      2  C   UNL     1      46.221   7.501  12.466  0.00  0.00    +0.000 A 
ATOM      3  C   UNL     1      46.716   6.315  11.915  0.00  0.00    +0.000 A 
ATOM      4  C   UNL     1      45.909   5.518  11.096  0.00  0.00    +0.000 A 
ATOM      5  C   UNL     1      44.582   5.869  10.825  0.00  0.00    +0.000 A 
ATOM      6  C   UNL     1      44.123   7.101  11.299  0.00  0.00    +0.000 A 
ATOM      7  C   UNL     1      44.925   7.904  12.120  0.00  0.00    +0.000 A 
BRANCH   5   8
ATOM      8  N   UNL     1      43.694   5.059  10.098  0.00  0.00    +0.000 N 
ATOM      9  H   UNL     1      43.162   5.612   9.429  0.00  0.00    +0.000 HD
BRANCH   8  10
ATOM     10  C   UNL     1      44.228   3.820   9.517  0.00  0.00    +0.000 C 
BRANCH  10  11
ATOM     11  C   UNL     1      44.818   4.079   8.120  0.00  0.00    +0.000 C 
BRANCH  11  12
ATOM     12  C   UNL     1      45.861   3.067   7.729  0.00  0.00    +0.000 A 
ATOM     13  C   UNL     1      45.806   1.760   8.220  0.00  0.00    +0.000 A 
ATOM     14  C   UNL     1      46.794   0.866   7.837  0.00  0.00    +0.000 A 
ATOM     15  N   UNL     1      47.818   1.183   7.017  0.00  0.00    +0.000 NA
ATOM     16  C   UNL     1      47.849   2.450   6.552  0.00  0.00    +0.000 A 
ATOM     17  C   UNL     1      46.908   3.415   6.872  0.00  0.00    +0.000 A 
ENDBRANCH  11  12
ENDBRANCH  10  11
ENDBRANCH   8  10
ENDBRANCH   5   8
ENDBRANCH   1   2
BRANCH   1  20
ATOM     18  C   UNL     1      48.801   7.146  14.718  0.00  0.00    +0.000 C 
ATOM     19  O   UNL     1      49.674   7.445  13.905  0.00  0.00    +0.000 OA
ATOM     20  N   UNL     1      47.501   7.534  14.544  0.00  0.00    +0.000 N 
ATOM     21  H   UNL     1      46.786   7.180  15.162  0.00  0.00    +0.000 HD
BRANCH  18  29
ATOM     22  C   UNL     1      47.382   4.357  16.165  0.00  0.00    +0.000 A 
ATOM     23  N   UNL     1      46.985   3.353  16.971  0.00  0.00    +0.000 NA
ATOM     24  C   UNL     1      47.656   3.143  18.103  0.00  0.00    +0.000 A 
ATOM     25  N   UNL     1      48.708   3.832  18.538  0.00  0.00    +0.000 NA
ATOM     26  C   UNL     1      49.062   4.835  17.715  0.00  0.00    +0.000 A 
ATOM     27  S   UNL     1      50.399   5.805  18.113  0.00  0.00    +0.000 S 
ATOM     28  C   UNL     1      50.190   6.748  16.720  0.00  0.00    +0.000 A 
ATOM     29  C   UNL     1      49.114   6.364  15.930  0.00  0.00    +0.000 A 
ATOM     30  C   UNL     1      48.458   5.191  16.516  0.00  0.00    +0.000 A 
BRANCH  22  32
ATOM     31  C   UNL     1      46.983   3.464  14.040  0.00  0.00    +0.000 C 
ATOM     32  O   UNL     1      46.723   4.518  14.963  0.00  0.00    +0.000 OA
ENDBRANCH  22  32
ENDBRANCH  18  29
ENDBRANCH   1  20
TORSDOF 8
ENDMDL
MODEL 2
REMARK VINA RESULT:    -7.902      1.544      2.125
REMARK INTER + INTRA:         -12.942
REMARK INTER:                 -12.021
REMARK INTRA:                  -0.922
REMARK UNBOUND:                -1.345
REMARK  Name = 
REMARK  9 active torsions:
REMARK  status: ('A' for Active; 'I' for Inactive)
REMARK    1  A    between atoms: C_1  and  O_2
REMARK    2  A    between atoms: O_2  and  C_3
REMARK    3  A    between atoms: C_10  and  C_11
REMARK    4  A    between atoms: N_13  and  C_14
REMARK    5  A    between atoms: C_14  and  C_15
REMARK    6  A    between atoms: C_18  and  N_19
REMARK    7  A    between atoms: N_19  and  C_20
REMARK    8  A    between atoms: C_20  and  C_21
REMARK    9  A    between atoms: C_21  and  C_22
REMARK                            x       y       z     vdW  Elec       q    Type
REMARK                         _______ _______ _______ _____ _____    ______ ____
ROOT
ATOM      1  C   UNL     1      48.243   6.779  13.337  0.00  0.00    +0.000 C 
ENDROOT
BRANCH   1   2
ATOM      2  C   UNL     1      47.022   6.131  12.730  0.00  0.00    +0.000 A 
ATOM      3  C   UNL     1      46.454   6.643  11.559  0.00  0.00    +0.000 A 
ATOM      4  C   UNL     1      45.369   6.000  10.953  0.00  0.00    +0.000 A 
ATOM      5  C   UNL     1      44.838   4.819  11.484  0.00  0.00    +0.000 A 
ATOM      6  C   UNL     1      45.346   4.366  12.704  0.00  0.00    +0.000 A 
ATOM      7  C   UNL     1      46.433   5.005  13.317  0.00  0.00    +0.000 A 
BRANCH   5   8
ATOM      8  N   UNL     1      43.821   4.075  10.865  0.00  0.00    +0.000 N 
ATOM      9  H   UNL     1      43.110   4.688  10.470  0.00  0.00    +0.000 HD
BRANCH   8  10
ATOM     10  C   UNL     1      44.229   3.006   9.944  0.00  0.00    +0.000 C 
BRANCH  10  11
ATOM     11  C   UNL     1      44.684   3.589   8.594  0.00  0.00    +0.000 C 
BRANCH  11  12
ATOM     12  C   UNL     1      45.801   2.802   7.964  0.00  0.00    +0.000 A 
ATOM     13  C   UNL     1      46.696   3.414   7.083  0.00  0.00    +0.000 A 
ATOM     14  C   UNL     1      47.704   2.646   6.522  0.00  0.00    +0.000 A 
ATOM     15  N   UNL     1      47.874   1.331   6.770  0.00  0.00    +0.000 NA
ATOM     16  C   UNL     1      47.000   0.760   7.627  0.00  0.00    +0.000 A 
ATOM     17  C   UNL     1      45.963   1.443   8.242  0.00  0.00    +0.000 A 
ENDBRANCH  11  12
ENDBRANCH  10  11
ENDBRANCH   8  10
ENDBRANCH   5   8
ENDBRANCH   1   2
BRANCH   1  20
ATOM     18  C   UNL     1      49.267   6.914  15.577  0.00  0.00    +0.000 C 
ATOM     19  O   UNL     1      50.400   6.971  15.104  0.00  0.00    +0.000 OA
ATOM     20  N   UNL     1      48.163   6.816  14.776  0.00  0.00    +0.000 N 
ATOM     21  H   UNL     1      47.257   6.655  15.190  0.00  0.00    +0.000 HD
BRANCH  18  29
ATOM     22  C   UNL     1      48.980   4.488  18.009  0.00  0.00    +0.000 A 
ATOM     23  N   UNL     1      48.749   3.763  19.121  0.00  0.00    +0.000 NA
ATOM     24  C   UNL     1      48.474   4.407  20.254  0.00  0.00    +0.000 A 
ATOM     25  N   UNL     1      48.400   5.726  20.417  0.00  0.00    +0.000 NA
ATOM     26  C   UNL     1      48.620   6.412  19.282  0.00  0.00    +0.000 A 
ATOM     27  S   UNL     1      48.581   8.111  19.316  0.00  0.00    +0.000 S 
ATOM     28  C   UNL     1      48.902   8.199  17.654  0.00  0.00    +0.000 A 
ATOM     29  C   UNL     1      49.038   6.963  17.035  0.00  0.00    +0.000 A 
ATOM     30  C   UNL     1      48.901   5.891  18.026  0.00  0.00    +0.000 A 
BRANCH  22  32
ATOM     31  C   UNL     1      48.692   2.542  16.743  0.00  0.00    +0.000 C 
ATOM     32  O   UNL     1      49.333   3.810  16.860  0.00  0.00    +0.000 OA
ENDBRANCH  22  32
ENDBRANCH  18  29
ENDBRANCH   1  20
TORSDOF 8
ENDMDL
MODEL 3
REMARK VINA RESULT:    -7.640      1.902      3.589
REMARK INTER + INTRA:         -12.559
REMARK INTER:                 -11.046
REMARK INTRA:                  -1.513
REMARK UNBOUND:                -1.345
REMARK  Name = 
REMARK  9 active torsions:
REMARK  status: ('A' for Active; 'I' for Inactive)
REMARK    1  A    between atoms: C_1  and  O_2
REMARK    2  A    between atoms: O_2  and  C_3
REMARK    3  A    between atoms: C_10  and  C_11
REMARK    4  A    between atoms: N_13  and  C_14
REMARK    5  A    between atoms: C_14  and  C_15
REMARK    6  A    between atoms: C_18  and  N_19
REMARK    7  A    between atoms: N_19  and  C_20
REMARK    8  A    between atoms: C_20  and  C_21
REMARK    9  A    between atoms: C_21  and  C_22
REMARK                            x       y       z     vdW  Elec       q    Type
REMARK                         _______ _______ _______ _____ _____    ______ ____
ROOT
ATOM      1  C   UNL     1      47.022   4.318  14.764  0.00  0.00    +0.000 C 
ENDROOT
BRANCH   1   2
ATOM      2  C   UNL     1      46.283   4.434  13.452  0.00  0.00    +0.000 A 
ATOM      3  C   UNL     1      45.695   3.309  12.866  0.00  0.00    +0.000 A 
ATOM      4  C   UNL     1      44.945   3.428  11.690  0.00  0.00    +0.000 A 
ATOM      5  C   UNL     1      44.744   4.672  11.082  0.00  0.00    +0.000 A 
ATOM      6  C   UNL     1      45.414   5.776  11.617  0.00  0.00    +0.000 A 
ATOM      7  C   UNL     1      46.165   5.665  12.794  0.00  0.00    +0.000 A 
BRANCH   5   8
ATOM      8  N   UNL     1      43.919   4.869   9.963  0.00  0.00    +0.000 N 
ATOM      9  H   UNL     1      43.800   5.861   9.768  0.00  0.00    +0.000 HD
BRANCH   8  10
ATOM     10  C   UNL     1      44.214   4.082   8.758  0.00  0.00    +0.000 C 
BRANCH  10  11
ATOM     11  C   UNL     1      45.617   4.410   8.217  0.00  0.00    +0.000 C 
BRANCH  11  12
ATOM     12  C   UNL     1      46.334   3.202   7.680  0.00  0.00    +0.000 A 
ATOM     13  C   UNL     1      46.101   1.935   8.221  0.00  0.00    +0.000 A 
ATOM     14  C   UNL     1      46.792   0.854   7.697  0.00  0.00    +0.000 A 
ATOM     15  N   UNL     1      47.689   0.949   6.693  0.00  0.00    +0.000 NA
ATOM     16  C   UNL     1      47.896   2.181   6.184  0.00  0.00    +0.000 A 
ATOM     17  C   UNL     1      47.253   3.323   6.634  0.00  0.00    +0.000 A 
ENDBRANCH  11  12
ENDBRANCH  10  11
ENDBRANCH   8  10
ENDBRANCH   5   8
ENDBRANCH   1   2
BRANCH   1  20
ATOM     18  C   UNL     1      48.592   5.677  16.094  0.00  0.00    +0.000 C 
ATOM     19  O   UNL     1      49.050   4.681  16.652  0.00  0.00    +0.000 OA
ATOM     20  N   UNL     1      47.597   5.579  15.161  0.00  0.00    +0.000 N 
ATOM     21  H   UNL     1      47.161   6.415  14.805  0.00  0.00    +0.000 HD
BRANCH  18  29
ATOM     22  C   UNL     1      49.831   8.224  14.129  0.00  0.00    +0.000 A 
ATOM     23  N   UNL     1      50.419   9.324  13.621  0.00  0.00    +0.000 NA
ATOM     24  C   UNL     1      50.797  10.288  14.460  0.00  0.00    +0.000 A 
ATOM     25  N   UNL     1      50.652  10.286  15.783  0.00  0.00    +0.000 NA
ATOM     26  C   UNL     1      50.076   9.165  16.252  0.00  0.00    +0.000 A 
ATOM     27  S   UNL     1      49.799   9.006  17.921  0.00  0.00    +0.000 S 
ATOM     28  C   UNL     1      49.130   7.463  17.712  0.00  0.00    +0.000 A 
ATOM     29  C   UNL     1      49.104   7.029  16.392  0.00  0.00    +0.000 A 
ATOM     30  C   UNL     1      49.644   8.071  15.513  0.00  0.00    +0.000 A 
BRANCH  22  32
ATOM     31  C   UNL     1      49.227   7.765  11.916  0.00  0.00    +0.000 C 
ATOM     32  O   UNL     1      49.382   7.266  13.242  0.00  0.00    +0.000 OA
ENDBRANCH  22  32
ENDBRANCH  18  29
ENDBRANCH   1  20
TORSDOF 8
ENDMDL
MODEL 4
REMARK VINA RESULT:    -7.543      2.208      3.537
REMARK INTER + INTRA:         -12.416
REMARK INTER:                 -11.131
REMARK INTRA:                  -1.285
REMARK UNBOUND:                -1.345
REMARK  Name = 
REMARK  9 active torsions:
REMARK  status: ('A' for Active; 'I' for Inactive)
REMARK    1  A    between atoms: C_1  and  O_2
REMARK    2  A    between atoms: O_2  and  C_3
REMARK    3  A    between atoms: C_10  and  C_11
REMARK    4  A    between atoms: N_13  and  C_14
REMARK    5  A    between atoms: C_14  and  C_15
REMARK    6  A    between atoms: C_18  and  N_19
REMARK    7  A    between atoms: N_19  and  C_20
REMARK    8  A    between atoms: C_20  and  C_21
REMARK    9  A    between atoms: C_21  and  C_22
REMARK                            x       y       z     vdW  Elec       q    Type
REMARK                         _______ _______ _______ _____ _____    ______ ____
ROOT
ATOM      1  C   UNL     1      47.371   4.021  15.220  0.00  0.00    +0.000 C 
ENDROOT
BRANCH   1   2
ATOM      2  C   UNL     1      46.682   4.485  13.959  0.00  0.00    +0.000 A 
ATOM      3  C   UNL     1      46.851   5.793  13.496  0.00  0.00    +0.000 A 
ATOM      4  C   UNL     1      46.275   6.202  12.289  0.00  0.00    +0.000 A 
ATOM      5  C   UNL     1      45.535   5.313  11.501  0.00  0.00    +0.000 A 
ATOM      6  C   UNL     1      45.288   4.037  12.015  0.00  0.00    +0.000 A 
ATOM      7  C   UNL     1      45.862   3.620  13.223  0.00  0.00    +0.000 A 
BRANCH   5   8
ATOM      8  N   UNL     1      45.022   5.635  10.235  0.00  0.00    +0.000 N 
ATOM      9  H   UNL     1      44.791   6.626  10.176  0.00  0.00    +0.000 HD
BRANCH   8  10
ATOM     10  C   UNL     1      45.760   5.151   9.061  0.00  0.00    +0.000 C 
BRANCH  10  11
ATOM     11  C   UNL     1      45.013   3.989   8.383  0.00  0.00    +0.000 C 
BRANCH  11  12
ATOM     12  C   UNL     1      45.940   2.992   7.743  0.00  0.00    +0.000 A 
ATOM     13  C   UNL     1      46.063   1.699   8.258  0.00  0.00    +0.000 A 
ATOM     14  C   UNL     1      46.936   0.819   7.638  0.00  0.00    +0.000 A 
ATOM     15  N   UNL     1      47.686   1.136   6.562  0.00  0.00    +0.000 NA
ATOM     16  C   UNL     1      47.549   2.389   6.079  0.00  0.00    +0.000 A 
ATOM     17  C   UNL     1      46.701   3.340   6.624  0.00  0.00    +0.000 A 
ENDBRANCH  11  12
ENDBRANCH  10  11
ENDBRANCH   8  10
ENDBRANCH   5   8
ENDBRANCH   1   2
BRANCH   1  20
ATOM     18  C   UNL     1      48.121   4.952  17.377  0.00  0.00    +0.000 C 
ATOM     19  O   UNL     1      48.790   3.951  17.626  0.00  0.00    +0.000 OA
ATOM     20  N   UNL     1      47.398   5.058  16.221  0.00  0.00    +0.000 N 
ATOM     21  H   UNL     1      46.769   5.836  16.094  0.00  0.00    +0.000 HD
BRANCH  18  29
ATOM     22  C   UNL     1      48.666   8.334  16.992  0.00  0.00    +0.000 A 
ATOM     23  N   UNL     1      48.900   9.653  17.140  0.00  0.00    +0.000 NA
ATOM     24  C   UNL     1      48.786  10.186  18.356  0.00  0.00    +0.000 A 
ATOM     25  N   UNL     1      48.455   9.544  19.473  0.00  0.00    +0.000 NA
ATOM     26  C   UNL     1      48.246   8.229  19.286  0.00  0.00    +0.000 A 
ATOM     27  S   UNL     1      47.796   7.261  20.609  0.00  0.00    +0.000 S 
ATOM     28  C   UNL     1      47.750   5.872  19.638  0.00  0.00    +0.000 A 
ATOM     29  C   UNL     1      48.075   6.098  18.307  0.00  0.00    +0.000 A 
ATOM     30  C   UNL     1      48.341   7.524  18.093  0.00  0.00    +0.000 A 
BRANCH  22  32
ATOM     31  C   UNL     1      50.045   7.489  15.302  0.00  0.00    +0.000 C 
ATOM     32  O   UNL     1      48.719   7.810  15.716  0.00  0.00    +0.000 OA
ENDBRANCH  22  32
ENDBRANCH  18  29
ENDBRANCH   1  20
TORSDOF 8
ENDMDL
MODEL 5
REMARK VINA RESULT:    -7.507      2.544      3.420
REMARK INTER + INTRA:         -12.363
REMARK INTER:                 -11.178
REMARK INTRA:                  -1.186
REMARK UNBOUND:                -1.345
REMARK  Name = 
REMARK  9 active torsions:
REMARK  status: ('A' for Active; 'I' for Inactive)
REMARK    1  A    between atoms: C_1  and  O_2
REMARK    2  A    between atoms: O_2  and  C_3
REMARK    3  A    between atoms: C_10  and  C_11
REMARK    4  A    between atoms: N_13  and  C_14
REMARK    5  A    between atoms: C_14  and  C_15
REMARK    6  A    between atoms: C_18  and  N_19
REMARK    7  A    between atoms: N_19  and  C_20
REMARK    8  A    between atoms: C_20  and  C_21
REMARK    9  A    between atoms: C_21  and  C_22
REMARK                            x       y       z     vdW  Elec       q    Type
REMARK                         _______ _______ _______ _____ _____    ______ ____
ROOT
ATOM      1  C   UNL     1      47.388   4.156  15.031  0.00  0.00    +0.000 C 
ENDROOT
BRANCH   1   2
ATOM      2  C   UNL     1      46.643   4.367  13.735  0.00  0.00    +0.000 A 
ATOM      3  C   UNL     1      45.974   3.306  13.119  0.00  0.00    +0.000 A 
ATOM      4  C   UNL     1      45.219   3.516  11.958  0.00  0.00    +0.000 A 
ATOM      5  C   UNL     1      45.095   4.791  11.397  0.00  0.00    +0.000 A 
ATOM      6  C   UNL     1      45.843   5.828  11.960  0.00  0.00    +0.000 A 
ATOM      7  C   UNL     1      46.599   5.626  13.122  0.00  0.00    +0.000 A 
BRANCH   5   8
ATOM      8  N   UNL     1      44.271   5.081  10.297  0.00  0.00    +0.000 N 
ATOM      9  H   UNL     1      44.385   6.049  10.002  0.00  0.00    +0.000 HD
BRANCH   8  10
ATOM     10  C   UNL     1      44.285   4.136   9.173  0.00  0.00    +0.000 C 
BRANCH  10  11
ATOM     11  C   UNL     1      45.481   4.407   8.243  0.00  0.00    +0.000 C 
BRANCH  11  12
ATOM     12  C   UNL     1      46.175   3.148   7.802  0.00  0.00    +0.000 A 
ATOM     13  C   UNL     1      47.165   3.186   6.816  0.00  0.00    +0.000 A 
ATOM     14  C   UNL     1      47.771   1.999   6.438  0.00  0.00    +0.000 A 
ATOM     15  N   UNL     1      47.457   0.795   6.961  0.00  0.00    +0.000 NA
ATOM     16  C   UNL     1      46.501   0.781   7.913  0.00  0.00    +0.000 A 
ATOM     17  C   UNL     1      45.840   1.913   8.363  0.00  0.00    +0.000 A 
ENDBRANCH  11  12
ENDBRANCH  10  11
ENDBRANCH   8  10
ENDBRANCH   5   8
ENDBRANCH   1   2
BRANCH   1  20
ATOM     18  C   UNL     1      48.585   5.690  16.546  0.00  0.00    +0.000 C 
ATOM     19  O   UNL     1      49.549   4.930  16.625  0.00  0.00    +0.000 OA
ATOM     20  N   UNL     1      47.491   5.378  15.789  0.00  0.00    +0.000 N 
ATOM     21  H   UNL     1      46.669   5.962  15.833  0.00  0.00    +0.000 HD
BRANCH  18  29
ATOM     22  C   UNL     1      47.813   6.606  19.779  0.00  0.00    +0.000 A 
ATOM     23  N   UNL     1      47.495   7.239  20.925  0.00  0.00    +0.000 NA
ATOM     24  C   UNL     1      47.589   8.567  20.964  0.00  0.00    +0.000 A 
ATOM     25  N   UNL     1      47.976   9.363  19.970  0.00  0.00    +0.000 NA
ATOM     26  C   UNL     1      48.269   8.695  18.840  0.00  0.00    +0.000 A 
ATOM     27  S   UNL     1      48.798   9.559  17.476  0.00  0.00    +0.000 S 
ATOM     28  C   UNL     1      48.924   8.135  16.564  0.00  0.00    +0.000 A 
ATOM     29  C   UNL     1      48.567   6.984  17.255  0.00  0.00    +0.000 A 
ATOM     30  C   UNL     1      48.205   7.323  18.635  0.00  0.00    +0.000 A 
BRANCH  22  32
ATOM     31  C   UNL     1      48.971   4.638  20.287  0.00  0.00    +0.000 C 
ATOM     32  O   UNL     1      47.779   5.226  19.774  0.00  0.00    +0.000 OA
ENDBRANCH  22  32
ENDBRANCH  18  29
ENDBRANCH   1  20
TORSDOF 8
ENDMDL
MODEL 6
REMARK VINA RESULT:    -7.002      2.369      3.197
REMARK INTER + INTRA:         -11.622
REMARK INTER:                 -10.579
REMARK INTRA:                  -1.043
REMARK UNBOUND:                -1.345
REMARK  Name = 
REMARK  9 active torsions:
REMARK  status: ('A' for Active; 'I' for Inactive)
REMARK    1  A    between atoms: C_1  and  O_2
REMARK    2  A    between atoms: O_2  and  C_3
REMARK    3  A    between atoms: C_10  and  C_11
REMARK    4  A    between atoms: N_13  and  C_14
REMARK    5  A    between atoms: C_14  and  C_15
REMARK    6  A    between atoms: C_18  and  N_19
REMARK    7  A    between atoms: N_19  and  C_20
REMARK    8  A    between atoms: C_20  and  C_21
REMARK    9  A    between atoms: C_21  and  C_22
REMARK                            x       y       z     vdW  Elec       q    Type
REMARK                         _______ _______ _______ _____ _____    ______ ____
ROOT
ATOM      1  C   UNL     1      47.035   4.505  15.611  0.00  0.00    +0.000 C 
ENDROOT
BRANCH   1   2
ATOM      2  C   UNL     1      46.604   4.745  14.184  0.00  0.00    +0.000 A 
ATOM      3  C   UNL     1      45.936   3.749  13.466  0.00  0.00    +0.000 A 
ATOM      4  C   UNL     1      45.468   3.995  12.170  0.00  0.00    +0.000 A 
ATOM      5  C   UNL     1      45.635   5.247  11.566  0.00  0.00    +0.000 A 
ATOM      6  C   UNL     1      46.386   6.206  12.250  0.00  0.00    +0.000 A 
ATOM      7  C   UNL     1      46.857   5.966  13.548  0.00  0.00    +0.000 A 
BRANCH   5   8
ATOM      8  N   UNL     1      45.098   5.585  10.314  0.00  0.00    +0.000 N 
ATOM      9  H   UNL     1      44.836   6.569  10.283  0.00  0.00    +0.000 HD
BRANCH   8  10
ATOM     10  C   UNL     1      45.841   5.155   9.121  0.00  0.00    +0.000 C 
BRANCH  10  11
ATOM     11  C   UNL     1      45.080   4.049   8.370  0.00  0.00    +0.000 C 
BRANCH  11  12
ATOM     12  C   UNL     1      45.995   3.050   7.716  0.00  0.00    +0.000 A 
ATOM     13  C   UNL     1      46.129   1.759   8.235  0.00  0.00    +0.000 A 
ATOM     14  C   UNL     1      46.991   0.877   7.602  0.00  0.00    +0.000 A 
ATOM     15  N   UNL     1      47.719   1.190   6.510  0.00  0.00    +0.000 NA
ATOM     16  C   UNL     1      47.571   2.441   6.024  0.00  0.00    +0.000 A 
ATOM     17  C   UNL     1      46.733   3.393   6.581  0.00  0.00    +0.000 A 
ENDBRANCH  11  12
ENDBRANCH  10  11
ENDBRANCH   8  10
ENDBRANCH   5   8
ENDBRANCH   1   2
BRANCH   1  20
ATOM     18  C   UNL     1      48.869   5.661  16.787  0.00  0.00    +0.000 C 
ATOM     19  O   UNL     1      48.086   6.204  17.565  0.00  0.00    +0.000 OA
ATOM     20  N   UNL     1      48.428   4.819  15.804  0.00  0.00    +0.000 N 
ATOM     21  H   UNL     1      49.076   4.478  15.110  0.00  0.00    +0.000 HD
BRANCH  18  29
ATOM     22  C   UNL     1      51.498   3.661  17.773  0.00  0.00    +0.000 A 
ATOM     23  N   UNL     1      52.673   3.140  18.176  0.00  0.00    +0.000 NA
ATOM     24  C   UNL     1      53.761   3.909  18.123  0.00  0.00    +0.000 A 
ATOM     25  N   UNL     1      53.819   5.170  17.703  0.00  0.00    +0.000 NA
ATOM     26  C   UNL     1      52.624   5.658  17.325  0.00  0.00    +0.000 A 
ATOM     27  S   UNL     1      52.522   7.251  16.743  0.00  0.00    +0.000 S 
ATOM     28  C   UNL     1      50.847   7.114  16.523  0.00  0.00    +0.000 A 
ATOM     29  C   UNL     1      50.325   5.879  16.885  0.00  0.00    +0.000 A 
ATOM     30  C   UNL     1      51.404   4.994  17.336  0.00  0.00    +0.000 A 
BRANCH  22  32
ATOM     31  C   UNL     1      50.556   1.698  16.920  0.00  0.00    +0.000 C 
ATOM     32  O   UNL     1      50.394   2.833  17.766  0.00  0.00    +0.000 OA
ENDBRANCH  22  32
ENDBRANCH  18  29
ENDBRANCH   1  20
TORSDOF 8
ENDMDL
MODEL 7
REMARK VINA RESULT:    -6.252      1.975      3.605
REMARK INTER + INTRA:         -10.521
REMARK INTER:                 -10.034
REMARK INTRA:                  -0.487
REMARK UNBOUND:                -1.345
REMARK  Name = 
REMARK  9 active torsions:
REMARK  status: ('A' for Active; 'I' for Inactive)
REMARK    1  A    between atoms: C_1  and  O_2
REMARK    2  A    between atoms: O_2  and  C_3
REMARK    3  A    between atoms: C_10  and  C_11
REMARK    4  A    between atoms: N_13  and  C_14
REMARK    5  A    between atoms: C_14  and  C_15
REMARK    6  A    between atoms: C_18  and  N_19
REMARK    7  A    between atoms: N_19  and  C_20
REMARK    8  A    between atoms: C_20  and  C_21
REMARK    9  A    between atoms: C_21  and  C_22
REMARK                            x       y       z     vdW  Elec       q    Type
REMARK                         _______ _______ _______ _____ _____    ______ ____
ROOT
ATOM      1  C   UNL     1      46.716   4.770  15.063  0.00  0.00    +0.000 C 
ENDROOT
BRANCH   1   2
ATOM      2  C   UNL     1      46.270   4.903  13.627  0.00  0.00    +0.000 A 
ATOM      3  C   UNL     1      46.409   6.118  12.949  0.00  0.00    +0.000 A 
ATOM      4  C   UNL     1      46.066   6.224  11.596  0.00  0.00    +0.000 A 
ATOM      5  C   UNL     1      45.600   5.116  10.879  0.00  0.00    +0.000 A 
ATOM      6  C   UNL     1      45.372   3.931  11.584  0.00  0.00    +0.000 A 
ATOM      7  C   UNL     1      45.712   3.819  12.939  0.00  0.00    +0.000 A 
BRANCH   5   8
ATOM      8  N   UNL     1      45.339   5.135   9.500  0.00  0.00    +0.000 N 
ATOM      9  H   UNL     1      46.197   5.004   8.965  0.00  0.00    +0.000 HD
BRANCH   8  10
ATOM     10  C   UNL     1      44.230   4.306   9.009  0.00  0.00    +0.000 C 
BRANCH  10  11
ATOM     11  C   UNL     1      44.606   2.814   9.037  0.00  0.00    +0.000 C 
BRANCH  11  12
ATOM     12  C   UNL     1      45.674   2.461   8.038  0.00  0.00    +0.000 A 
ATOM     13  C   UNL     1      45.984   3.329   6.988  0.00  0.00    +0.000 A 
ATOM     14  C   UNL     1      46.971   2.956   6.089  0.00  0.00    +0.000 A 
ATOM     15  N   UNL     1      47.653   1.794   6.160  0.00  0.00    +0.000 NA
ATOM     16  C   UNL     1      47.340   0.972   7.184  0.00  0.00    +0.000 A 
ATOM     17  C   UNL     1      46.374   1.256   8.137  0.00  0.00    +0.000 A 
ENDBRANCH  11  12
ENDBRANCH  10  11
ENDBRANCH   8  10
ENDBRANCH   5   8
ENDBRANCH   1   2
BRANCH   1  20
ATOM     18  C   UNL     1      48.562   5.582  16.484  0.00  0.00    +0.000 C 
ATOM     19  O   UNL     1      47.893   5.443  17.507  0.00  0.00    +0.000 OA
ATOM     20  N   UNL     1      48.053   5.276  15.252  0.00  0.00    +0.000 N 
ATOM     21  H   UNL     1      48.578   5.506  14.422  0.00  0.00    +0.000 HD
BRANCH  18  29
ATOM     22  C   UNL     1      50.340   7.852  14.595  0.00  0.00    +0.000 A 
ATOM     23  N   UNL     1      51.273   8.609  13.985  0.00  0.00    +0.000 NA
ATOM     24  C   UNL     1      52.518   8.586  14.458  0.00  0.00    +0.000 A 
ATOM     25  N   UNL     1      52.958   7.881  15.497  0.00  0.00    +0.000 NA
ATOM     26  C   UNL     1      52.002   7.127  16.068  0.00  0.00    +0.000 A 
ATOM     27  S   UNL     1      52.388   6.176  17.422  0.00  0.00    +0.000 S 
ATOM     28  C   UNL     1      50.805   5.579  17.516  0.00  0.00    +0.000 A 
ATOM     29  C   UNL     1      49.953   6.072  16.535  0.00  0.00    +0.000 A 
ATOM     30  C   UNL     1      50.670   7.029  15.686  0.00  0.00    +0.000 A 
BRANCH  22  32
ATOM     31  C   UNL     1      48.304   8.992  14.755  0.00  0.00    +0.000 C 
ATOM     32  O   UNL     1      49.041   7.939  14.139  0.00  0.00    +0.000 OA
ENDBRANCH  22  32
ENDBRANCH  18  29
ENDBRANCH   1  20
TORSDOF 8
ENDMDL
MODEL 8
REMARK VINA RESULT:    -5.537      3.924      6.550
REMARK INTER + INTRA:          -9.471
REMARK INTER:                  -7.199
REMARK INTRA:                  -2.272
REMARK UNBOUND:                -1.345
REMARK  Name = 
REMARK  9 active torsions:
REMARK  status: ('A' for Active; 'I' for Inactive)
REMARK    1  A    between atoms: C_1  and  O_2
REMARK    2  A    between atoms: O_2  and  C_3
REMARK    3  A    between atoms: C_10  and  C_11
REMARK    4  A    between atoms: N_13  and  C_14
REMARK    5  A    between atoms: C_14  and  C_15
REMARK    6  A    between atoms: C_18  and  N_19
REMARK    7  A    between atoms: N_19  and  C_20
REMARK    8  A    between atoms: C_20  and  C_21
REMARK    9  A    between atoms: C_21  and  C_22
REMARK                            x       y       z     vdW  Elec       q    Type
REMARK                         _______ _______ _______ _____ _____    ______ ____
ROOT
ATOM      1  C   UNL     1      46.189   5.539  13.454  0.00  0.00    +0.000 C 
ENDROOT
BRANCH   1   2
ATOM      2  C   UNL     1      46.679   6.825  12.833  0.00  0.00    +0.000 A 
ATOM      3  C   UNL     1      45.897   7.983  12.887  0.00  0.00    +0.000 A 
ATOM      4  C   UNL     1      46.381   9.195  12.380  0.00  0.00    +0.000 A 
ATOM      5  C   UNL     1      47.663   9.287  11.828  0.00  0.00    +0.000 A 
ATOM      6  C   UNL     1      48.401   8.109  11.688  0.00  0.00    +0.000 A 
ATOM      7  C   UNL     1      47.923   6.892  12.194  0.00  0.00    +0.000 A 
BRANCH   5   8
ATOM      8  N   UNL     1      48.242  10.493  11.399  0.00  0.00    +0.000 N 
ATOM      9  H   UNL     1      47.735  11.293  11.772  0.00  0.00    +0.000 HD
BRANCH   8  10
ATOM     10  C   UNL     1      49.699  10.629  11.529  0.00  0.00    +0.000 C 
BRANCH  10  11
ATOM     11  C   UNL     1      50.073  11.263  12.880  0.00  0.00    +0.000 C 
BRANCH  11  12
ATOM     12  C   UNL     1      50.946  10.373  13.722  0.00  0.00    +0.000 A 
ATOM     13  C   UNL     1      51.247  10.714  15.044  0.00  0.00    +0.000 A 
ATOM     14  C   UNL     1      52.062   9.866  15.777  0.00  0.00    +0.000 A 
ATOM     15  N   UNL     1      52.593   8.725  15.290  0.00  0.00    +0.000 NA
ATOM     16  C   UNL     1      52.286   8.414  14.012  0.00  0.00    +0.000 A 
ATOM     17  C   UNL     1      51.478   9.192  13.199  0.00  0.00    +0.000 A 
ENDBRANCH  11  12
ENDBRANCH  10  11
ENDBRANCH   8  10
ENDBRANCH   5   8
ENDBRANCH   1   2
BRANCH   1  20
ATOM     18  C   UNL     1      47.329   4.138  15.133  0.00  0.00    +0.000 C 
ATOM     19  O   UNL     1      47.369   3.177  14.368  0.00  0.00    +0.000 OA
ATOM     20  N   UNL     1      46.765   5.326  14.758  0.00  0.00    +0.000 N 
ATOM     21  H   UNL     1      46.642   6.059  15.439  0.00  0.00    +0.000 HD
BRANCH  18  29
ATOM     22  C   UNL     1      49.817   5.893  16.750  0.00  0.00    +0.000 A 
ATOM     23  N   UNL     1      50.779   6.350  17.575  0.00  0.00    +0.000 NA
ATOM     24  C   UNL     1      50.908   5.786  18.776  0.00  0.00    +0.000 A 
ATOM     25  N   UNL     1      50.168   4.795  19.268  0.00  0.00    +0.000 NA
ATOM     26  C   UNL     1      49.231   4.357  18.409  0.00  0.00    +0.000 A 
ATOM     27  S   UNL     1      48.186   3.105  18.885  0.00  0.00    +0.000 S 
ATOM     28  C   UNL     1      47.398   3.126  17.384  0.00  0.00    +0.000 A 
ATOM     29  C   UNL     1      47.901   4.064  16.492  0.00  0.00    +0.000 A 
ATOM     30  C   UNL     1      48.983   4.825  17.125  0.00  0.00    +0.000 A 
BRANCH  22  32
ATOM     31  C   UNL     1      48.987   7.788  15.659  0.00  0.00    +0.000 C 
ATOM     32  O   UNL     1      49.650   6.532  15.538  0.00  0.00    +0.000 OA
ENDBRANCH  22  32
ENDBRANCH  18  29
ENDBRANCH   1  20
TORSDOF 8
ENDMDL
MODEL 9
REMARK VINA RESULT:    -5.346      3.083      4.344
REMARK INTER + INTRA:          -9.191
REMARK INTER:                  -8.300
REMARK INTRA:                  -0.891
REMARK UNBOUND:                -1.345
REMARK  Name = 
REMARK  9 active torsions:
REMARK  status: ('A' for Active; 'I' for Inactive)
REMARK    1  A    between atoms: C_1  and  O_2
REMARK    2  A    between atoms: O_2  and  C_3
REMARK    3  A    between atoms: C_10  and  C_11
REMARK    4  A    between atoms: N_13  and  C_14
REMARK    5  A    between atoms: C_14  and  C_15
REMARK    6  A    between atoms: C_18  and  N_19
REMARK    7  A    between atoms: N_19  and  C_20
REMARK    8  A    between atoms: C_20  and  C_21
REMARK    9  A    between atoms: C_21  and  C_22
REMARK                            x       y       z     vdW  Elec       q    Type
REMARK                         _______ _______ _______ _____ _____    ______ ____
ROOT
ATOM      1  C   UNL     1      48.123   4.731  16.850  0.00  0.00    +0.000 C 
ENDROOT
BRANCH   1   2
ATOM      2  C   UNL     1      47.652   5.113  15.468  0.00  0.00    +0.000 A 
ATOM      3  C   UNL     1      48.094   6.297  14.868  0.00  0.00    +0.000 A 
ATOM      4  C   UNL     1      47.719   6.615  13.558  0.00  0.00    +0.000 A 
ATOM      5  C   UNL     1      46.915   5.753  12.805  0.00  0.00    +0.000 A 
ATOM      6  C   UNL     1      46.397   4.622  13.441  0.00  0.00    +0.000 A 
ATOM      7  C   UNL     1      46.769   4.296  14.752  0.00  0.00    +0.000 A 
BRANCH   5   8
ATOM      8  N   UNL     1      46.592   5.968  11.455  0.00  0.00    +0.000 N 
ATOM      9  H   UNL     1      46.956   5.219  10.870  0.00  0.00    +0.000 HD
BRANCH   8  10
ATOM     10  C   UNL     1      45.200   6.314  11.139  0.00  0.00    +0.000 C 
BRANCH  10  11
ATOM     11  C   UNL     1      44.354   5.046  10.926  0.00  0.00    +0.000 C 
BRANCH  11  12
ATOM     12  C   UNL     1      44.913   4.141   9.863  0.00  0.00    +0.000 A 
ATOM     13  C   UNL     1      45.535   4.672   8.729  0.00  0.00    +0.000 A 
ATOM     14  C   UNL     1      46.028   3.798   7.773  0.00  0.00    +0.000 A 
ATOM     15  N   UNL     1      45.939   2.454   7.865  0.00  0.00    +0.000 NA
ATOM     16  C   UNL     1      45.338   1.963   8.970  0.00  0.00    +0.000 A 
ATOM     17  C   UNL     1      44.818   2.753   9.983  0.00  0.00    +0.000 A 
ENDBRANCH  11  12
ENDBRANCH  10  11
ENDBRANCH   8  10
ENDBRANCH   5   8
ENDBRANCH   1   2
BRANCH   1  20
ATOM     18  C   UNL     1      50.114   5.762  17.878  0.00  0.00    +0.000 C 
ATOM     19  O   UNL     1      49.424   6.465  18.614  0.00  0.00    +0.000 OA
ATOM     20  N   UNL     1      49.549   4.892  16.987  0.00  0.00    +0.000 N 
ATOM     21  H   UNL     1      50.132   4.413  16.318  0.00  0.00    +0.000 HD
BRANCH  18  29
ATOM     22  C   UNL     1      52.559   3.335  18.004  0.00  0.00    +0.000 A 
ATOM     23  N   UNL     1      53.689   2.614  18.139  0.00  0.00    +0.000 NA
ATOM     24  C   UNL     1      54.848   3.263  18.244  0.00  0.00    +0.000 A 
ATOM     25  N   UNL     1      55.020   4.583  18.227  0.00  0.00    +0.000 NA
ATOM     26  C   UNL     1      53.868   5.266  18.107  0.00  0.00    +0.000 A 
ATOM     27  S   UNL     1      53.909   6.964  18.051  0.00  0.00    +0.000 S 
ATOM     28  C   UNL     1      52.221   7.049  17.925  0.00  0.00    +0.000 A 
ATOM     29  C   UNL     1      51.588   5.812  17.929  0.00  0.00    +0.000 A 
ATOM     30  C   UNL     1      52.586   4.740  18.005  0.00  0.00    +0.000 A 
BRANCH  22  32
ATOM     31  C   UNL     1      51.566   1.332  17.316  0.00  0.00    +0.000 C 
ATOM     32  O   UNL     1      51.374   2.649  17.826  0.00  0.00    +0.000 OA
ENDBRANCH  22  32
ENDBRANCH  18  29
ENDBRANCH   1  20
TORSDOF 8
ENDMDL
