MODEL 1
REMARK VINA RESULT:    -7.025      0.000      0.000
REMARK INTER + INTRA:          -9.098
REMARK INTER:                  -8.667
REMARK INTRA:                  -0.431
REMARK UNBOUND:                -0.431
REMARK  Name = 
REMARK  4 active torsions:
REMARK  status: ('A' for Active; 'I' for Inactive)
REMARK    1  A    between atoms: C_2  and  C_3
REMARK    2  A    between atoms: C_5  and  O_6
REMARK    3  A    between atoms: O_6  and  C_7
REMARK    4  A    between atoms: C_7  and  C_8
REMARK                            x       y       z     vdW  Elec       q    Type
REMARK                         _______ _______ _______ _____ _____    ______ ____
ROOT
ATOM      1  O   UNL     1      44.188   4.610  10.557  0.00  0.00    +0.000 OA
ENDROOT
BRANCH   1   4
ATOM      2  C   UNL     1      46.608   4.738  13.333  0.00  0.00    +0.000 A 
ATOM      3  C   UNL     1      45.595   4.217  12.534  0.00  0.00    +0.000 A 
ATOM      4  C   UNL     1      45.172   4.964  11.439  0.00  0.00    +0.000 A 
ATOM      5  C   UNL     1      45.780   6.191  11.185  0.00  0.00    +0.000 A 
ATOM      6  C   UNL     1      46.786   6.627  12.032  0.00  0.00    +0.000 A 
ATOM      7  N   UNL     1      47.212   5.927  13.102  0.00  0.00    +0.000 NA
BRANCH   2   9
ATOM      8  N   UNL     1      47.490   3.439  15.403  0.00  0.00    +0.000 NA
ATOM      9  C   UNL     1      47.064   4.010  14.485  0.00  0.00    +0.000 C 
ENDBRANCH   2   9
ENDBRANCH   1   4
BRANCH   1  10
ATOM     10  C   UNL     1      44.128   3.238  10.156  0.00  0.00    +0.000 C 
BRANCH  10  11
ATOM     11  C   UNL     1      45.043   2.987   8.984  0.00  0.00    +0.000 A 
ATOM     12  C   UNL     1      45.645   1.735   8.802  0.00  0.00    +0.000 A 
ATOM     13  C   UNL     1      46.510   1.531   7.729  0.00  0.00    +0.000 A 
ATOM     14  C   UNL     1      46.755   2.597   6.883  0.00  0.00    +0.000 A 
ATOM     15 CL   UNL     1      47.807   2.431   5.539  0.00  0.00    +0.000 Cl
ATOM     16  N   UNL     1      46.216   3.823   7.031  0.00  0.00    +0.000 NA
ATOM     17  C   UNL     1      45.376   3.989   8.078  0.00  0.00    +0.000 A 
ENDBRANCH  10  11
ENDBRANCH   1  10
TORSDOF 4
ENDMDL
MODEL 2
REMARK VINA RESULT:    -6.807      1.023      1.391
REMARK INTER + INTRA:          -8.829
REMARK INTER:                  -8.406
REMARK INTRA:                  -0.423
REMARK UNBOUND:                -0.431
REMARK  Name = 
REMARK  4 active torsions:
REMARK  status: ('A' for Active; 'I' for Inactive)
REMARK    1  A    between atoms: C_2  and  C_3
REMARK    2  A    between atoms: C_5  and  O_6
REMARK    3  A    between atoms: O_6  and  C_7
REMARK    4  A    between atoms: C_7  and  C_8
REMARK                            x       y       z     vdW  Elec       q    Type
REMARK                         _______ _______ _______ _____ _____    ______ ____
ROOT
ATOM      1  O   UNL     1      44.327   5.507  10.887  0.00  0.00    +0.000 OA
ENDROOT
BRANCH   1   4
ATOM      2  C   UNL     1      46.884   4.845  13.456  0.00  0.00    +0.000 A 
ATOM      3  C   UNL     1      45.706   4.663  12.738  0.00  0.00    +0.000 A 
ATOM      4  C   UNL     1      45.435   5.534  11.689  0.00  0.00    +0.000 A 
ATOM      5  C   UNL     1      46.351   6.542  11.395  0.00  0.00    +0.000 A 
ATOM      6  C   UNL     1      47.501   6.644  12.161  0.00  0.00    +0.000 A 
ATOM      7  N   UNL     1      47.787   5.818  13.187  0.00  0.00    +0.000 NA
BRANCH   2   9
ATOM      8  N   UNL     1      47.451   3.333  15.491  0.00  0.00    +0.000 NA
ATOM      9  C   UNL     1      47.196   3.981  14.562  0.00  0.00    +0.000 C 
ENDBRANCH   2   9
ENDBRANCH   1   4
BRANCH   1  10
ATOM     10  C   UNL     1      43.832   4.223  10.495  0.00  0.00    +0.000 C 
BRANCH  10  11
ATOM     11  C   UNL     1      44.763   3.575   9.503  0.00  0.00    +0.000 A 
ATOM     12  C   UNL     1      45.351   4.326   8.477  0.00  0.00    +0.000 A 
ATOM     13  C   UNL     1      46.187   3.703   7.552  0.00  0.00    +0.000 A 
ATOM     14  C   UNL     1      46.391   2.341   7.679  0.00  0.00    +0.000 A 
ATOM     15 CL   UNL     1      47.404   1.497   6.583  0.00  0.00    +0.000 Cl
ATOM     16  N   UNL     1      45.831   1.575   8.635  0.00  0.00    +0.000 NA
ATOM     17  C   UNL     1      45.029   2.209   9.522  0.00  0.00    +0.000 A 
ENDBRANCH  10  11
ENDBRANCH   1  10
TORSDOF 4
ENDMDL
MODEL 3
REMARK VINA RESULT:    -6.661      2.780      5.677
REMARK INTER + INTRA:          -8.649
REMARK INTER:                  -8.129
REMARK INTRA:                  -0.520
REMARK UNBOUND:                -0.431
REMARK  Name = 
REMARK  4 active torsions:
REMARK  status: ('A' for Active; 'I' for Inactive)
REMARK    1  A    between atoms: C_2  and  C_3
REMARK    2  A    between atoms: C_5  and  O_6
REMARK    3  A    between atoms: O_6  and  C_7
REMARK    4  A    between atoms: C_7  and  C_8
REMARK                            x       y       z     vdW  Elec       q    Type
REMARK                         _______ _______ _______ _____ _____    ______ ____
ROOT
ATOM      1  O   UNL     1      43.406   3.559  10.497  0.00  0.00    +0.000 OA
ENDROOT
BRANCH   1   4
ATOM      2  C   UNL     1      45.889   1.983   8.276  0.00  0.00    +0.000 A 
ATOM      3  C   UNL     1      44.886   2.053   9.238  0.00  0.00    +0.000 A 
ATOM      4  C   UNL     1      44.382   3.305   9.572  0.00  0.00    +0.000 A 
ATOM      5  C   UNL     1      44.893   4.431   8.930  0.00  0.00    +0.000 A 
ATOM      6  C   UNL     1      45.888   4.264   7.980  0.00  0.00    +0.000 A 
ATOM      7  N   UNL     1      46.398   3.064   7.640  0.00  0.00    +0.000 NA
BRANCH   2   9
ATOM      8  N   UNL     1      46.869  -0.318   7.572  0.00  0.00    +0.000 NA
ATOM      9  C   UNL     1      46.453   0.711   7.913  0.00  0.00    +0.000 C 
ENDBRANCH   2   9
ENDBRANCH   1   4
BRANCH   1  10
ATOM     10  C   UNL     1      43.638   3.113  11.836  0.00  0.00    +0.000 C 
BRANCH  10  11
ATOM     11  C   UNL     1      44.769   3.887  12.464  0.00  0.00    +0.000 A 
ATOM     12  C   UNL     1      45.912   3.228  12.937  0.00  0.00    +0.000 A 
ATOM     13  C   UNL     1      46.933   3.958  13.541  0.00  0.00    +0.000 A 
ATOM     14  C   UNL     1      46.765   5.325  13.665  0.00  0.00    +0.000 A 
ATOM     15 CL   UNL     1      47.974   6.298  14.396  0.00  0.00    +0.000 Cl
ATOM     16  N   UNL     1      45.677   5.999  13.245  0.00  0.00    +0.000 NA
ATOM     17  C   UNL     1      44.704   5.264  12.658  0.00  0.00    +0.000 A 
ENDBRANCH  10  11
ENDBRANCH   1  10
TORSDOF 4
ENDMDL
MODEL 4
REMARK VINA RESULT:    -6.643      2.151      2.918
REMARK INTER + INTRA:          -8.627
REMARK INTER:                  -8.193
REMARK INTRA:                  -0.434
REMARK UNBOUND:                -0.431
REMARK  Name = 
REMARK  4 active torsions:
REMARK  status: ('A' for Active; 'I' for Inactive)
REMARK    1  A    between atoms: C_2  and  C_3
REMARK    2  A    between atoms: C_5  and  O_6
REMARK    3  A    between atoms: O_6  and  C_7
REMARK    4  A    between atoms: C_7  and  C_8
REMARK                            x       y       z     vdW  Elec       q    Type
REMARK                         _______ _______ _______ _____ _____    ______ ____
ROOT
ATOM      1  O   UNL     1      43.788   3.308   9.761  0.00  0.00    +0.000 OA
ENDROOT
BRANCH   1   4
ATOM      2  C   UNL     1      44.547   6.026  12.130  0.00  0.00    +0.000 A 
ATOM      3  C   UNL     1      44.548   5.337  10.921  0.00  0.00    +0.000 A 
ATOM      4  C   UNL     1      43.881   4.119  10.859  0.00  0.00    +0.000 A 
ATOM      5  C   UNL     1      43.237   3.643  11.999  0.00  0.00    +0.000 A 
ATOM      6  C   UNL     1      43.284   4.401  13.158  0.00  0.00    +0.000 A 
ATOM      7  N   UNL     1      43.927   5.583  13.249  0.00  0.00    +0.000 NA
BRANCH   2   9
ATOM      8  N   UNL     1      45.840   8.274  12.297  0.00  0.00    +0.000 NA
ATOM      9  C   UNL     1      45.240   7.280  12.246  0.00  0.00    +0.000 C 
ENDBRANCH   2   9
ENDBRANCH   1   4
BRANCH   1  10
ATOM     10  C   UNL     1      44.663   2.177   9.703  0.00  0.00    +0.000 C 
BRANCH  10  11
ATOM     11  C   UNL     1      45.564   2.264   8.498  0.00  0.00    +0.000 A 
ATOM     12  C   UNL     1      45.637   3.442   7.742  0.00  0.00    +0.000 A 
ATOM     13  C   UNL     1      46.454   3.494   6.614  0.00  0.00    +0.000 A 
ATOM     14  C   UNL     1      47.158   2.354   6.273  0.00  0.00    +0.000 A 
ATOM     15 CL   UNL     1      48.186   2.332   4.900  0.00  0.00    +0.000 Cl
ATOM     16  N   UNL     1      47.103   1.194   6.956  0.00  0.00    +0.000 NA
ATOM     17  C   UNL     1      46.306   1.176   8.049  0.00  0.00    +0.000 A 
ENDBRANCH  10  11
ENDBRANCH   1  10
TORSDOF 4
ENDMDL
MODEL 5
REMARK VINA RESULT:    -6.499      1.529      2.704
REMARK INTER + INTRA:          -8.449
REMARK INTER:                  -7.987
REMARK INTRA:                  -0.462
REMARK UNBOUND:                -0.431
REMARK  Name = 
REMARK  4 active torsions:
REMARK  status: ('A' for Active; 'I' for Inactive)
REMARK    1  A    between atoms: C_2  and  C_3
REMARK    2  A    between atoms: C_5  and  O_6
REMARK    3  A    between atoms: O_6  and  C_7
REMARK    4  A    between atoms: C_7  and  C_8
REMARK                            x       y       z     vdW  Elec       q    Type
REMARK                         _______ _______ _______ _____ _____    ______ ____
ROOT
ATOM      1  O   UNL     1      44.795   3.315  11.327  0.00  0.00    +0.000 OA
ENDROOT
BRANCH   1   4
ATOM      2  C   UNL     1      45.080   6.947  11.878  0.00  0.00    +0.000 A 
ATOM      3  C   UNL     1      44.611   5.765  11.313  0.00  0.00    +0.000 A 
ATOM      4  C   UNL     1      45.134   4.563  11.774  0.00  0.00    +0.000 A 
ATOM      5  C   UNL     1      46.096   4.588  12.781  0.00  0.00    +0.000 A 
ATOM      6  C   UNL     1      46.500   5.812  13.289  0.00  0.00    +0.000 A 
ATOM      7  N   UNL     1      46.013   6.993  12.858  0.00  0.00    +0.000 NA
BRANCH   2   9
ATOM      8  N   UNL     1      44.191   9.221  10.991  0.00  0.00    +0.000 NA
ATOM      9  C   UNL     1      44.582   8.214  11.420  0.00  0.00    +0.000 C 
ENDBRANCH   2   9
ENDBRANCH   1   4
BRANCH   1  10
ATOM     10  C   UNL     1      44.081   3.231  10.091  0.00  0.00    +0.000 C 
BRANCH  10  11
ATOM     11  C   UNL     1      45.029   2.970   8.947  0.00  0.00    +0.000 A 
ATOM     12  C   UNL     1      45.629   1.714   8.787  0.00  0.00    +0.000 A 
ATOM     13  C   UNL     1      46.524   1.501   7.741  0.00  0.00    +0.000 A 
ATOM     14  C   UNL     1      46.799   2.563   6.899  0.00  0.00    +0.000 A 
ATOM     15 CL   UNL     1      47.889   2.386   5.586  0.00  0.00    +0.000 Cl
ATOM     16  N   UNL     1      46.263   3.792   7.025  0.00  0.00    +0.000 NA
ATOM     17  C   UNL     1      45.394   3.967   8.047  0.00  0.00    +0.000 A 
ENDBRANCH  10  11
ENDBRANCH   1  10
TORSDOF 4
ENDMDL
MODEL 6
REMARK VINA RESULT:    -6.389      2.780      6.156
REMARK INTER + INTRA:          -8.313
REMARK INTER:                  -7.994
REMARK INTRA:                  -0.319
REMARK UNBOUND:                -0.431
REMARK  Name = 
REMARK  4 active torsions:
REMARK  status: ('A' for Active; 'I' for Inactive)
REMARK    1  A    between atoms: C_2  and  C_3
REMARK    2  A    between atoms: C_5  and  O_6
REMARK    3  A    between atoms: O_6  and  C_7
REMARK    4  A    between atoms: C_7  and  C_8
REMARK                            x       y       z     vdW  Elec       q    Type
REMARK                         _______ _______ _______ _____ _____    ______ ____
ROOT
ATOM      1  O   UNL     1      44.503   4.706   8.978  0.00  0.00    +0.000 OA
ENDROOT
BRANCH   1   4
ATOM      2  C   UNL     1      46.675   2.192   7.385  0.00  0.00    +0.000 A 
ATOM      3  C   UNL     1      46.175   3.457   7.681  0.00  0.00    +0.000 A 
ATOM      4  C   UNL     1      45.119   3.551   8.581  0.00  0.00    +0.000 A 
ATOM      5  C   UNL     1      44.611   2.386   9.150  0.00  0.00    +0.000 A 
ATOM      6  C   UNL     1      45.176   1.170   8.800  0.00  0.00    +0.000 A 
ATOM      7  N   UNL     1      46.197   1.048   7.928  0.00  0.00    +0.000 NA
BRANCH   2   9
ATOM      8  N   UNL     1      48.591   1.882   5.658  0.00  0.00    +0.000 NA
ATOM      9  C   UNL     1      47.753   2.044   6.446  0.00  0.00    +0.000 C 
ENDBRANCH   2   9
ENDBRANCH   1   4
BRANCH   1  10
ATOM     10  C   UNL     1      43.786   4.676  10.216  0.00  0.00    +0.000 C 
BRANCH  10  11
ATOM     11  C   UNL     1      44.730   4.845  11.380  0.00  0.00    +0.000 A 
ATOM     12  C   UNL     1      45.682   5.873  11.385  0.00  0.00    +0.000 A 
ATOM     13  C   UNL     1      46.565   5.995  12.457  0.00  0.00    +0.000 A 
ATOM     14  C   UNL     1      46.471   5.070  13.480  0.00  0.00    +0.000 A 
ATOM     15 CL   UNL     1      47.519   5.150  14.836  0.00  0.00    +0.000 Cl
ATOM     16  N   UNL     1      45.587   4.055  13.509  0.00  0.00    +0.000 NA
ATOM     17  C   UNL     1      44.740   3.964  12.457  0.00  0.00    +0.000 A 
ENDBRANCH  10  11
ENDBRANCH   1  10
TORSDOF 4
ENDMDL
MODEL 7
REMARK VINA RESULT:    -6.324      1.533      2.451
REMARK INTER + INTRA:          -8.234
REMARK INTER:                  -7.753
REMARK INTRA:                  -0.481
REMARK UNBOUND:                -0.431
REMARK  Name = 
REMARK  4 active torsions:
REMARK  status: ('A' for Active; 'I' for Inactive)
REMARK    1  A    between atoms: C_2  and  C_3
REMARK    2  A    between atoms: C_5  and  O_6
REMARK    3  A    between atoms: O_6  and  C_7
REMARK    4  A    between atoms: C_7  and  C_8
REMARK                            x       y       z     vdW  Elec       q    Type
REMARK                         _______ _______ _______ _____ _____    ______ ____
ROOT
ATOM      1  O   UNL     1      44.794   5.748  11.012  0.00  0.00    +0.000 OA
ENDROOT
BRANCH   1   4
ATOM      2  C   UNL     1      47.816   6.259  13.057  0.00  0.00    +0.000 A 
ATOM      3  C   UNL     1      46.944   6.432  11.987  0.00  0.00    +0.000 A 
ATOM      4  C   UNL     1      45.757   5.707  11.983  0.00  0.00    +0.000 A 
ATOM      5  C   UNL     1      45.487   4.848  13.045  0.00  0.00    +0.000 A 
ATOM      6  C   UNL     1      46.412   4.744  14.072  0.00  0.00    +0.000 A 
ATOM      7  N   UNL     1      47.572   5.431  14.100  0.00  0.00    +0.000 NA
BRANCH   2   9
ATOM      8  N   UNL     1      50.069   7.546  13.187  0.00  0.00    +0.000 NA
ATOM      9  C   UNL     1      49.063   6.973  13.095  0.00  0.00    +0.000 C 
ENDBRANCH   2   9
ENDBRANCH   1   4
BRANCH   1  10
ATOM     10  C   UNL     1      44.175   4.510  10.649  0.00  0.00    +0.000 C 
BRANCH  10  11
ATOM     11  C   UNL     1      44.985   3.801   9.593  0.00  0.00    +0.000 A 
ATOM     12  C   UNL     1      45.654   4.526   8.598  0.00  0.00    +0.000 A 
ATOM     13  C   UNL     1      46.374   3.851   7.614  0.00  0.00    +0.000 A 
ATOM     14  C   UNL     1      46.384   2.469   7.652  0.00  0.00    +0.000 A 
ATOM     15 CL   UNL     1      47.245   1.562   6.479  0.00  0.00    +0.000 Cl
ATOM     16  N   UNL     1      45.739   1.730   8.576  0.00  0.00    +0.000 NA
ATOM     17  C   UNL     1      45.053   2.413   9.521  0.00  0.00    +0.000 A 
ENDBRANCH  10  11
ENDBRANCH   1  10
TORSDOF 4
ENDMDL
MODEL 8
REMARK VINA RESULT:    -5.660      2.817      6.344
REMARK INTER + INTRA:          -7.414
REMARK INTER:                  -6.943
REMARK INTRA:                  -0.471
REMARK UNBOUND:                -0.431
REMARK  Name = 
REMARK  4 active torsions:
REMARK  status: ('A' for Active; 'I' for Inactive)
REMARK    1  A    between atoms: C_2  and  C_3
REMARK    2  A    between atoms: C_5  and  O_6
REMARK    3  A    between atoms: O_6  and  C_7
REMARK    4  A    between atoms: C_7  and  C_8
REMARK                            x       y       z     vdW  Elec       q    Type
REMARK                         _______ _______ _______ _____ _____    ______ ____
ROOT
ATOM      1  O   UNL     1      44.393   5.490  10.706  0.00  0.00    +0.000 OA
ENDROOT
BRANCH   1   4
ATOM      2  C   UNL     1      45.617   3.240   8.057  0.00  0.00    +0.000 A 
ATOM      3  C   UNL     1      45.402   4.442   8.725  0.00  0.00    +0.000 A 
ATOM      4  C   UNL     1      44.700   4.409   9.925  0.00  0.00    +0.000 A 
ATOM      5  C   UNL     1      44.248   3.184  10.410  0.00  0.00    +0.000 A 
ATOM      6  C   UNL     1      44.514   2.037   9.679  0.00  0.00    +0.000 A 
ATOM      7  N   UNL     1      45.187   2.039   8.511  0.00  0.00    +0.000 NA
BRANCH   2   9
ATOM      8  N   UNL     1      46.844   3.183   5.767  0.00  0.00    +0.000 NA
ATOM      9  C   UNL     1      46.321   3.228   6.804  0.00  0.00    +0.000 C 
ENDBRANCH   2   9
ENDBRANCH   1   4
BRANCH   1  10
ATOM     10  C   UNL     1      44.357   5.287  12.122  0.00  0.00    +0.000 C 
BRANCH  10  11
ATOM     11  C   UNL     1      45.632   5.777  12.760  0.00  0.00    +0.000 A 
ATOM     12  C   UNL     1      45.981   7.133  12.713  0.00  0.00    +0.000 A 
ATOM     13  C   UNL     1      47.178   7.562  13.284  0.00  0.00    +0.000 A 
ATOM     14  C   UNL     1      47.993   6.611  13.869  0.00  0.00    +0.000 A 
ATOM     15 CL   UNL     1      49.482   7.054  14.595  0.00  0.00    +0.000 Cl
ATOM     16  N   UNL     1      47.709   5.295  13.920  0.00  0.00    +0.000 NA
ATOM     17  C   UNL     1      46.538   4.909  13.362  0.00  0.00    +0.000 A 
ENDBRANCH  10  11
ENDBRANCH   1  10
TORSDOF 4
ENDMDL
MODEL 9
REMARK VINA RESULT:    -5.429      3.361      6.100
REMARK INTER + INTRA:          -7.130
REMARK INTER:                  -6.763
REMARK INTRA:                  -0.367
REMARK UNBOUND:                -0.431
REMARK  Name = 
REMARK  4 active torsions:
REMARK  status: ('A' for Active; 'I' for Inactive)
REMARK    1  A    between atoms: C_2  and  C_3
REMARK    2  A    between atoms: C_5  and  O_6
REMARK    3  A    between atoms: O_6  and  C_7
REMARK    4  A    between atoms: C_7  and  C_8
REMARK                            x       y       z     vdW  Elec       q    Type
REMARK                         _______ _______ _______ _____ _____    ______ ____
ROOT
ATOM      1  O   UNL     1      45.250   5.440  13.418  0.00  0.00    +0.000 OA
ENDROOT
BRANCH   1   4
ATOM      2  C   UNL     1      44.653   3.875  10.136  0.00  0.00    +0.000 A 
ATOM      3  C   UNL     1      45.223   4.745  11.060  0.00  0.00    +0.000 A 
ATOM      4  C   UNL     1      44.805   4.662  12.384  0.00  0.00    +0.000 A 
ATOM      5  C   UNL     1      43.846   3.714  12.731  0.00  0.00    +0.000 A 
ATOM      6  C   UNL     1      43.338   2.885  11.743  0.00  0.00    +0.000 A 
ATOM      7  N   UNL     1      43.721   2.946  10.452  0.00  0.00    +0.000 NA
BRANCH   2   9
ATOM      8  N   UNL     1      45.413   3.989   7.654  0.00  0.00    +0.000 NA
ATOM      9  C   UNL     1      45.040   3.938   8.753  0.00  0.00    +0.000 C 
ENDBRANCH   2   9
ENDBRANCH   1   4
BRANCH   1  10
ATOM     10  C   UNL     1      46.662   5.492  13.640  0.00  0.00    +0.000 C 
BRANCH  10  11
ATOM     11  C   UNL     1      47.255   6.725  13.006  0.00  0.00    +0.000 A 
ATOM     12  C   UNL     1      48.579   6.728  12.548  0.00  0.00    +0.000 A 
ATOM     13  C   UNL     1      49.117   7.887  11.991  0.00  0.00    +0.000 A 
ATOM     14  C   UNL     1      48.312   9.009  11.929  0.00  0.00    +0.000 A 
ATOM     15 CL   UNL     1      48.897  10.476  11.258  0.00  0.00    +0.000 Cl
ATOM     16  N   UNL     1      47.042   9.059  12.375  0.00  0.00    +0.000 NA
ATOM     17  C   UNL     1      46.545   7.918  12.905  0.00  0.00    +0.000 A 
ENDBRANCH  10  11
ENDBRANCH   1  10
TORSDOF 4
ENDMDL
