MODEL 1
REMARK VINA RESULT:    -8.889      0.000      0.000
REMARK INTER + INTRA:         -12.825
REMARK INTER:                 -12.007
REMARK INTRA:                  -0.818
REMARK UNBOUND:                -0.818
REMARK  Name = 
REMARK  6 active torsions:
REMARK  status: ('A' for Active; 'I' for Inactive)
REMARK    1  A    between atoms: C_2  and  C_25
REMARK    2  A    between atoms: N_3  and  C_4
REMARK    3  A    between atoms: C_4  and  C_5
REMARK    4  A    between atoms: C_8  and  C_9
REMARK    5  A    between atoms: C_9  and  N_10
REMARK    6  A    between atoms: C_11  and  C_13
REMARK                            x       y       z     vdW  Elec       q    Type
REMARK                         _______ _______ _______ _____ _____    ______ ____
ROOT
ATOM      1  C   UNL     1      43.255   4.100  11.591  0.00  0.00    +0.000 C 
ATOM      2  C   UNL     1      44.139   2.995  12.185  0.00  0.00    +0.000 C 
ATOM      3  C   UNL     1      45.554   3.483  12.477  0.00  0.00    +0.000 C 
ATOM      4  C   UNL     1      45.559   4.692  13.429  0.00  0.00    +0.000 C 
ATOM      5  C   UNL     1      44.599   5.798  12.953  0.00  0.00    +0.000 C 
ATOM      6  C   UNL     1      43.207   5.269  12.590  0.00  0.00    +0.000 C 
ENDROOT
BRANCH   1   7
ATOM      7  C   UNL     1      43.716   4.595  10.203  0.00  0.00    +0.000 C 
BRANCH   7  10
ATOM      8  O   UNL     1      45.823   5.098   8.447  0.00  0.00    +0.000 OA
ATOM      9  C   UNL     1      45.454   3.937   8.604  0.00  0.00    +0.000 C 
ATOM     10  N   UNL     1      44.393   3.589   9.416  0.00  0.00    +0.000 N 
ATOM     11  H   UNL     1      44.332   2.622   9.694  0.00  0.00    +0.000 HD
BRANCH   9  12
ATOM     12  C   UNL     1      46.125   2.818   7.974  0.00  0.00    +0.000 A 
ATOM     13  C   UNL     1      47.000   2.747   6.903  0.00  0.00    +0.000 A 
ATOM     14  C   UNL     1      47.353   1.389   6.704  0.00  0.00    +0.000 A 
ATOM     15  C   UNL     1      46.698   0.657   7.666  0.00  0.00    +0.000 A 
ATOM     16  N   UNL     1      45.974   1.527   8.440  0.00  0.00    +0.000 N 
ATOM     17  H   UNL     1      45.401   1.280   9.237  0.00  0.00    +0.000 HD
ENDBRANCH   9  12
ENDBRANCH   7  10
ENDBRANCH   1   7
BRANCH   4  18
ATOM     18  C   UNL     1      46.974   5.271  13.608  0.00  0.00    +0.000 C 
BRANCH  18  19
ATOM     19  N   UNL     1      47.272   5.563  14.996  0.00  0.00    +0.000 N 
ATOM     20  C   UNL     1      48.459   6.137  15.384  0.00  0.00    +0.000 C 
ATOM     21  O   UNL     1      49.313   6.497  14.579  0.00  0.00    +0.000 OA
ATOM     22  H   UNL     1      46.770   5.027  15.695  0.00  0.00    +0.000 HD
BRANCH  20  23
ATOM     23  C   UNL     1      48.620   6.370  16.824  0.00  0.00    +0.000 A 
ATOM     24  C   UNL     1      48.895   7.652  17.281  0.00  0.00    +0.000 A 
ATOM     25  S   UNL     1      49.008   7.763  18.978  0.00  0.00    +0.000 S 
ATOM     26  C   UNL     1      48.740   6.093  19.161  0.00  0.00    +0.000 A 
ATOM     27  N   UNL     1      48.738   5.516  20.393  0.00  0.00    +0.000 NA
ATOM     28  C   UNL     1      48.557   4.238  20.382  0.00  0.00    +0.000 A 
ATOM     29  N   UNL     1      48.370   3.484  19.252  0.00  0.00    +0.000 N 
ATOM     30  C   UNL     1      48.321   4.030  17.990  0.00  0.00    +0.000 A 
ATOM     31  O   UNL     1      48.079   3.341  17.004  0.00  0.00    +0.000 OA
ATOM     32  C   UNL     1      48.545   5.462  17.944  0.00  0.00    +0.000 A 
ATOM     33  H   UNL     1      48.221   2.488  19.317  0.00  0.00    +0.000 HD
ENDBRANCH  20  23
ENDBRANCH  18  19
ENDBRANCH   4  18
TORSDOF 6
ENDMDL
MODEL 2
REMARK VINA RESULT:    -8.837      1.446      2.075
REMARK INTER + INTRA:         -12.754
REMARK INTER:                 -12.118
REMARK INTRA:                  -0.636
REMARK UNBOUND:                -0.818
REMARK  Name = 
REMARK  6 active torsions:
REMARK  status: ('A' for Active; 'I' for Inactive)
REMARK    1  A    between atoms: C_2  and  C_25
REMARK    2  A    between atoms: N_3  and  C_4
REMARK    3  A    between atoms: C_4  and  C_5
REMARK    4  A    between atoms: C_8  and  C_9
REMARK    5  A    between atoms: C_9  and  N_10
REMARK    6  A    between atoms: C_11  and  C_13
REMARK                            x       y       z     vdW  Elec       q    Type
REMARK                         _______ _______ _______ _____ _____    ______ ____
ROOT
ATOM      1  C   UNL     1      43.070   3.988  11.468  0.00  0.00    +0.000 C 
ATOM      2  C   UNL     1      44.046   2.951  12.039  0.00  0.00    +0.000 C 
ATOM      3  C   UNL     1      45.416   3.551  12.335  0.00  0.00    +0.000 C 
ATOM      4  C   UNL     1      45.325   4.739  13.308  0.00  0.00    +0.000 C 
ATOM      5  C   UNL     1      44.272   5.769  12.856  0.00  0.00    +0.000 C 
ATOM      6  C   UNL     1      42.928   5.131  12.488  0.00  0.00    +0.000 C 
ENDROOT
BRANCH   1   7
ATOM      7  C   UNL     1      43.479   4.544  10.088  0.00  0.00    +0.000 C 
BRANCH   7  10
ATOM      8  O   UNL     1      45.774   5.152   8.625  0.00  0.00    +0.000 OA
ATOM      9  C   UNL     1      45.361   3.996   8.614  0.00  0.00    +0.000 C 
ATOM     10  N   UNL     1      44.210   3.603   9.269  0.00  0.00    +0.000 N 
ATOM     11  H   UNL     1      44.096   2.615   9.432  0.00  0.00    +0.000 HD
BRANCH   9  12
ATOM     12  C   UNL     1      46.066   2.926   7.938  0.00  0.00    +0.000 A 
ATOM     13  C   UNL     1      46.871   2.915   6.811  0.00  0.00    +0.000 A 
ATOM     14  C   UNL     1      47.305   1.586   6.585  0.00  0.00    +0.000 A 
ATOM     15  C   UNL     1      46.769   0.810   7.587  0.00  0.00    +0.000 A 
ATOM     16  N   UNL     1      46.039   1.628   8.409  0.00  0.00    +0.000 N 
ATOM     17  H   UNL     1      45.539   1.343   9.242  0.00  0.00    +0.000 HD
ENDBRANCH   9  12
ENDBRANCH   7  10
ENDBRANCH   1   7
BRANCH   4  18
ATOM     18  C   UNL     1      46.687   5.433  13.493  0.00  0.00    +0.000 C 
BRANCH  18  19
ATOM     19  N   UNL     1      47.198   5.282  14.841  0.00  0.00    +0.000 N 
ATOM     20  C   UNL     1      47.591   4.065  15.341  0.00  0.00    +0.000 C 
ATOM     21  O   UNL     1      47.598   3.041  14.662  0.00  0.00    +0.000 OA
ATOM     22  H   UNL     1      46.931   5.992  15.514  0.00  0.00    +0.000 HD
BRANCH  20  23
ATOM     23  C   UNL     1      48.084   4.066  16.724  0.00  0.00    +0.000 A 
ATOM     24  C   UNL     1      47.546   3.173  17.640  0.00  0.00    +0.000 A 
ATOM     25  S   UNL     1      48.256   3.271  19.187  0.00  0.00    +0.000 S 
ATOM     26  C   UNL     1      49.275   4.543  18.700  0.00  0.00    +0.000 A 
ATOM     27  N   UNL     1      50.139   5.120  19.577  0.00  0.00    +0.000 NA
ATOM     28  C   UNL     1      50.826   6.096  19.083  0.00  0.00    +0.000 A 
ATOM     29  N   UNL     1      50.733   6.542  17.790  0.00  0.00    +0.000 N 
ATOM     30  C   UNL     1      49.906   5.960  16.858  0.00  0.00    +0.000 A 
ATOM     31  O   UNL     1      49.898   6.332  15.688  0.00  0.00    +0.000 OA
ATOM     32  C   UNL     1      49.092   4.874  17.369  0.00  0.00    +0.000 A 
ATOM     33  H   UNL     1      51.311   7.302  17.466  0.00  0.00    +0.000 HD
ENDBRANCH  20  23
ENDBRANCH  18  19
ENDBRANCH   4  18
TORSDOF 6
ENDMDL
MODEL 3
REMARK VINA RESULT:    -8.208      1.997      2.460
REMARK INTER + INTRA:         -11.905
REMARK INTER:                 -11.261
REMARK INTRA:                  -0.644
REMARK UNBOUND:                -0.818
REMARK  Name = 
REMARK  6 active torsions:
REMARK  status: ('A' for Active; 'I' for Inactive)
REMARK    1  A    between atoms: C_2  and  C_25
REMARK    2  A    between atoms: N_3  and  C_4
REMARK    3  A    between atoms: C_4  and  C_5
REMARK    4  A    between atoms: C_8  and  C_9
REMARK    5  A    between atoms: C_9  and  N_10
REMARK    6  A    between atoms: C_11  and  C_13
REMARK                            x       y       z     vdW  Elec       q    Type
REMARK                         _______ _______ _______ _____ _____    ______ ____
ROOT
ATOM      1  C   UNL     1      44.065   5.937  11.290  0.00  0.00    +0.000 C 
ATOM      2  C   UNL     1      43.661   5.810  12.765  0.00  0.00    +0.000 C 
ATOM      3  C   UNL     1      44.380   4.660  13.462  0.00  0.00    +0.000 C 
ATOM      4  C   UNL     1      45.910   4.802  13.374  0.00  0.00    +0.000 C 
ATOM      5  C   UNL     1      46.378   5.051  11.928  0.00  0.00    +0.000 C 
ATOM      6  C   UNL     1      45.586   6.158  11.223  0.00  0.00    +0.000 C 
ENDROOT
BRANCH   1   7
ATOM      7  C   UNL     1      43.656   4.730  10.420  0.00  0.00    +0.000 C 
BRANCH   7  10
ATOM      8  O   UNL     1      44.076   2.079   9.662  0.00  0.00    +0.000 OA
ATOM      9  C   UNL     1      44.786   2.950   9.168  0.00  0.00    +0.000 C 
ATOM     10  N   UNL     1      44.687   4.285   9.510  0.00  0.00    +0.000 N 
ATOM     11  H   UNL     1      45.106   4.948   8.877  0.00  0.00    +0.000 HD
BRANCH   9  12
ATOM     12  C   UNL     1      45.775   2.660   8.149  0.00  0.00    +0.000 A 
ATOM     13  C   UNL     1      46.319   3.435   7.140  0.00  0.00    +0.000 A 
ATOM     14  C   UNL     1      47.251   2.645   6.422  0.00  0.00    +0.000 A 
ATOM     15  C   UNL     1      47.270   1.405   7.017  0.00  0.00    +0.000 A 
ATOM     16  N   UNL     1      46.392   1.426   8.069  0.00  0.00    +0.000 N 
ATOM     17  H   UNL     1      46.203   0.661   8.703  0.00  0.00    +0.000 HD
ENDBRANCH   9  12
ENDBRANCH   7  10
ENDBRANCH   1   7
BRANCH   4  18
ATOM     18  C   UNL     1      46.632   3.570  13.951  0.00  0.00    +0.000 C 
BRANCH  18  19
ATOM     19  N   UNL     1      47.658   3.938  14.905  0.00  0.00    +0.000 N 
ATOM     20  C   UNL     1      47.432   3.935  16.260  0.00  0.00    +0.000 C 
ATOM     21  O   UNL     1      46.370   3.562  16.752  0.00  0.00    +0.000 OA
ATOM     22  H   UNL     1      48.410   4.527  14.565  0.00  0.00    +0.000 HD
BRANCH  20  23
ATOM     23  C   UNL     1      48.565   4.334  17.103  0.00  0.00    +0.000 A 
ATOM     24  C   UNL     1      48.524   5.551  17.771  0.00  0.00    +0.000 A 
ATOM     25  S   UNL     1      49.894   5.844  18.742  0.00  0.00    +0.000 S 
ATOM     26  C   UNL     1      50.613   4.377  18.267  0.00  0.00    +0.000 A 
ATOM     27  N   UNL     1      51.841   4.020  18.729  0.00  0.00    +0.000 NA
ATOM     28  C   UNL     1      52.281   2.900  18.260  0.00  0.00    +0.000 A 
ATOM     29  N   UNL     1      51.601   2.100  17.380  0.00  0.00    +0.000 N 
ATOM     30  C   UNL     1      50.339   2.399  16.921  0.00  0.00    +0.000 A 
ATOM     31  O   UNL     1      49.723   1.628  16.191  0.00  0.00    +0.000 OA
ATOM     32  C   UNL     1      49.808   3.662  17.397  0.00  0.00    +0.000 A 
ATOM     33  H   UNL     1      51.998   1.227  17.064  0.00  0.00    +0.000 HD
ENDBRANCH  20  23
ENDBRANCH  18  19
ENDBRANCH   4  18
TORSDOF 6
ENDMDL
MODEL 4
REMARK VINA RESULT:    -7.841      4.241      5.035
REMARK INTER + INTRA:         -11.409
REMARK INTER:                 -10.375
REMARK INTRA:                  -1.034
REMARK UNBOUND:                -0.818
REMARK  Name = 
REMARK  6 active torsions:
REMARK  status: ('A' for Active; 'I' for Inactive)
REMARK    1  A    between atoms: C_2  and  C_25
REMARK    2  A    between atoms: N_3  and  C_4
REMARK    3  A    between atoms: C_4  and  C_5
REMARK    4  A    between atoms: C_8  and  C_9
REMARK    5  A    between atoms: C_9  and  N_10
REMARK    6  A    between atoms: C_11  and  C_13
REMARK                            x       y       z     vdW  Elec       q    Type
REMARK                         _______ _______ _______ _____ _____    ______ ____
ROOT
ATOM      1  C   UNL     1      44.272   3.145  12.411  0.00  0.00    +0.000 C 
ATOM      2  C   UNL     1      45.686   3.739  12.474  0.00  0.00    +0.000 C 
ATOM      3  C   UNL     1      45.735   5.167  11.943  0.00  0.00    +0.000 C 
ATOM      4  C   UNL     1      44.770   6.096  12.701  0.00  0.00    +0.000 C 
ATOM      5  C   UNL     1      43.350   5.503  12.778  0.00  0.00    +0.000 C 
ATOM      6  C   UNL     1      43.335   4.041  13.238  0.00  0.00    +0.000 C 
ENDROOT
BRANCH   1   7
ATOM      7  C   UNL     1      43.727   2.972  10.977  0.00  0.00    +0.000 C 
BRANCH   7  10
ATOM      8  O   UNL     1      44.212   4.126   8.485  0.00  0.00    +0.000 OA
ATOM      9  C   UNL     1      44.901   3.172   8.833  0.00  0.00    +0.000 C 
ATOM     10  N   UNL     1      44.711   2.503  10.027  0.00  0.00    +0.000 N 
ATOM     11  H   UNL     1      45.470   1.925  10.349  0.00  0.00    +0.000 HD
BRANCH   9  12
ATOM     12  C   UNL     1      46.004   2.678   8.034  0.00  0.00    +0.000 A 
ATOM     13  C   UNL     1      46.911   3.322   7.210  0.00  0.00    +0.000 A 
ATOM     14  C   UNL     1      47.786   2.351   6.663  0.00  0.00    +0.000 A 
ATOM     15  C   UNL     1      47.407   1.132   7.176  0.00  0.00    +0.000 A 
ATOM     16  N   UNL     1      46.344   1.339   8.016  0.00  0.00    +0.000 N 
ATOM     17  H   UNL     1      45.859   0.629   8.550  0.00  0.00    +0.000 HD
ENDBRANCH   9  12
ENDBRANCH   7  10
ENDBRANCH   1   7
BRANCH   4  18
ATOM     18  C   UNL     1      44.715   7.499  12.071  0.00  0.00    +0.000 C 
BRANCH  18  19
ATOM     19  N   UNL     1      46.038   8.039  11.827  0.00  0.00    +0.000 N 
ATOM     20  C   UNL     1      46.331   9.368  12.012  0.00  0.00    +0.000 C 
ATOM     21  O   UNL     1      45.512  10.170  12.455  0.00  0.00    +0.000 OA
ATOM     22  H   UNL     1      46.635   7.520  11.193  0.00  0.00    +0.000 HD
BRANCH  20  23
ATOM     23  C   UNL     1      47.713   9.770  11.722  0.00  0.00    +0.000 A 
ATOM     24  C   UNL     1      47.951  10.966  11.059  0.00  0.00    +0.000 A 
ATOM     25  S   UNL     1      49.606  11.309  10.840  0.00  0.00    +0.000 S 
ATOM     26  C   UNL     1      50.063   9.847  11.581  0.00  0.00    +0.000 A 
ATOM     27  N   UNL     1      51.374   9.502  11.696  0.00  0.00    +0.000 NA
ATOM     28  C   UNL     1      51.575   8.352  12.247  0.00  0.00    +0.000 A 
ATOM     29  N   UNL     1      50.586   7.518  12.701  0.00  0.00    +0.000 N 
ATOM     30  C   UNL     1      49.251   7.845  12.645  0.00  0.00    +0.000 A 
ATOM     31  O   UNL     1      48.392   7.112  13.126  0.00  0.00    +0.000 OA
ATOM     32  C   UNL     1      48.968   9.118  12.010  0.00  0.00    +0.000 A 
ATOM     33  H   UNL     1      50.815   6.637  13.135  0.00  0.00    +0.000 HD
ENDBRANCH  20  23
ENDBRANCH  18  19
ENDBRANCH   4  18
TORSDOF 6
ENDMDL
MODEL 5
REMARK VINA RESULT:    -7.785      3.371      8.317
REMARK INTER + INTRA:         -11.333
REMARK INTER:                 -10.292
REMARK INTRA:                  -1.041
REMARK UNBOUND:                -0.818
REMARK  Name = 
REMARK  6 active torsions:
REMARK  status: ('A' for Active; 'I' for Inactive)
REMARK    1  A    between atoms: C_2  and  C_25
REMARK    2  A    between atoms: N_3  and  C_4
REMARK    3  A    between atoms: C_4  and  C_5
REMARK    4  A    between atoms: C_8  and  C_9
REMARK    5  A    between atoms: C_9  and  N_10
REMARK    6  A    between atoms: C_11  and  C_13
REMARK                            x       y       z     vdW  Elec       q    Type
REMARK                         _______ _______ _______ _____ _____    ______ ____
ROOT
ATOM      1  C   UNL     1      48.638   4.429  19.041  0.00  0.00    +0.000 C 
ATOM      2  C   UNL     1      49.838   5.385  19.004  0.00  0.00    +0.000 C 
ATOM      3  C   UNL     1      50.086   5.946  17.608  0.00  0.00    +0.000 C 
ATOM      4  C   UNL     1      48.849   6.674  17.053  0.00  0.00    +0.000 C 
ATOM      5  C   UNL     1      47.578   5.811  17.168  0.00  0.00    +0.000 C 
ATOM      6  C   UNL     1      47.394   5.195  18.559  0.00  0.00    +0.000 C 
ENDROOT
BRANCH   1   7
ATOM      7  C   UNL     1      48.835   3.142  18.211  0.00  0.00    +0.000 C 
BRANCH   7  10
ATOM      8  O   UNL     1      50.110   1.739  16.166  0.00  0.00    +0.000 OA
ATOM      9  C   UNL     1      50.724   1.941  17.210  0.00  0.00    +0.000 C 
ATOM     10  N   UNL     1      50.166   2.586  18.297  0.00  0.00    +0.000 N 
ATOM     11  H   UNL     1      50.805   2.942  18.990  0.00  0.00    +0.000 HD
BRANCH   9  12
ATOM     12  C   UNL     1      52.108   1.548  17.386  0.00  0.00    +0.000 A 
ATOM     13  C   UNL     1      53.209   2.232  17.872  0.00  0.00    +0.000 A 
ATOM     14  C   UNL     1      54.331   1.367  17.819  0.00  0.00    +0.000 A 
ATOM     15  C   UNL     1      53.890   0.165  17.316  0.00  0.00    +0.000 A 
ATOM     16  N   UNL     1      52.546   0.276  17.074  0.00  0.00    +0.000 N 
ATOM     17  H   UNL     1      51.943  -0.453  16.714  0.00  0.00    +0.000 HD
ENDBRANCH   9  12
ENDBRANCH   7  10
ENDBRANCH   1   7
BRANCH   4  18
ATOM     18  C   UNL     1      49.052   7.112  15.592  0.00  0.00    +0.000 C 
BRANCH  18  19
ATOM     19  N   UNL     1      47.880   6.859  14.778  0.00  0.00    +0.000 N 
ATOM     20  C   UNL     1      47.972   6.463  13.466  0.00  0.00    +0.000 C 
ATOM     21  O   UNL     1      49.047   6.236  12.918  0.00  0.00    +0.000 OA
ATOM     22  H   UNL     1      47.018   7.312  15.063  0.00  0.00    +0.000 HD
BRANCH  20  23
ATOM     23  C   UNL     1      46.699   6.248  12.768  0.00  0.00    +0.000 A 
ATOM     24  C   UNL     1      46.054   7.326  12.177  0.00  0.00    +0.000 A 
ATOM     25  S   UNL     1      44.614   6.902  11.369  0.00  0.00    +0.000 S 
ATOM     26  C   UNL     1      44.776   5.270  11.821  0.00  0.00    +0.000 A 
ATOM     27  N   UNL     1      43.839   4.351  11.465  0.00  0.00    +0.000 NA
ATOM     28  C   UNL     1      44.069   3.158  11.904  0.00  0.00    +0.000 A 
ATOM     29  N   UNL     1      45.155   2.800  12.661  0.00  0.00    +0.000 N 
ATOM     30  C   UNL     1      46.148   3.686  13.007  0.00  0.00    +0.000 A 
ATOM     31  O   UNL     1      47.145   3.321  13.622  0.00  0.00    +0.000 OA
ATOM     32  C   UNL     1      45.925   5.047  12.560  0.00  0.00    +0.000 A 
ATOM     33  H   UNL     1      45.280   1.844  12.960  0.00  0.00    +0.000 HD
ENDBRANCH  20  23
ENDBRANCH  18  19
ENDBRANCH   4  18
TORSDOF 6
ENDMDL
MODEL 6
REMARK VINA RESULT:    -7.537      3.975      5.853
REMARK INTER + INTRA:         -10.998
REMARK INTER:                 -10.218
REMARK INTRA:                  -0.780
REMARK UNBOUND:                -0.818
REMARK  Name = 
REMARK  6 active torsions:
REMARK  status: ('A' for Active; 'I' for Inactive)
REMARK    1  A    between atoms: C_2  and  C_25
REMARK    2  A    between atoms: N_3  and  C_4
REMARK    3  A    between atoms: C_4  and  C_5
REMARK    4  A    between atoms: C_8  and  C_9
REMARK    5  A    between atoms: C_9  and  N_10
REMARK    6  A    between atoms: C_11  and  C_13
REMARK                            x       y       z     vdW  Elec       q    Type
REMARK                         _______ _______ _______ _____ _____    ______ ____
ROOT
ATOM      1  C   UNL     1      46.370   7.784  11.729  0.00  0.00    +0.000 C 
ATOM      2  C   UNL     1      47.718   7.148  12.097  0.00  0.00    +0.000 C 
ATOM      3  C   UNL     1      47.626   6.292  13.356  0.00  0.00    +0.000 C 
ATOM      4  C   UNL     1      46.570   5.180  13.218  0.00  0.00    +0.000 C 
ATOM      5  C   UNL     1      45.217   5.735  12.735  0.00  0.00    +0.000 C 
ATOM      6  C   UNL     1      45.346   6.656  11.517  0.00  0.00    +0.000 C 
ENDROOT
BRANCH   1   7
ATOM      7  C   UNL     1      45.849   8.799  12.768  0.00  0.00    +0.000 C 
BRANCH   7  10
ATOM      8  O   UNL     1      45.267  10.935  11.073  0.00  0.00    +0.000 OA
ATOM      9  C   UNL     1      44.335  10.335  11.602  0.00  0.00    +0.000 C 
ATOM     10  N   UNL     1      44.520   9.294  12.491  0.00  0.00    +0.000 N 
ATOM     11  H   UNL     1      43.726   8.697  12.661  0.00  0.00    +0.000 HD
BRANCH   9  12
ATOM     12  C   UNL     1      42.949  10.645  11.315  0.00  0.00    +0.000 A 
ATOM     13  C   UNL     1      42.203  10.556  10.152  0.00  0.00    +0.000 A 
ATOM     14  C   UNL     1      40.885  10.996  10.432  0.00  0.00    +0.000 A 
ATOM     15  C   UNL     1      40.846  11.330  11.766  0.00  0.00    +0.000 A 
ATOM     16  N   UNL     1      42.089  11.099  12.296  0.00  0.00    +0.000 N 
ATOM     17  H   UNL     1      42.361  11.239  13.261  0.00  0.00    +0.000 HD
ENDBRANCH   9  12
ENDBRANCH   7  10
ENDBRANCH   1   7
BRANCH   4  18
ATOM     18  C   UNL     1      46.378   4.410  14.538  0.00  0.00    +0.000 C 
BRANCH  18  19
ATOM     19  N   UNL     1      47.518   4.549  15.421  0.00  0.00    +0.000 N 
ATOM     20  C   UNL     1      47.545   3.988  16.675  0.00  0.00    +0.000 C 
ATOM     21  O   UNL     1      46.635   3.281  17.101  0.00  0.00    +0.000 OA
ATOM     22  H   UNL     1      48.130   5.341  15.259  0.00  0.00    +0.000 HD
BRANCH  20  23
ATOM     23  C   UNL     1      48.766   4.216  17.456  0.00  0.00    +0.000 A 
ATOM     24  C   UNL     1      48.866   5.352  18.248  0.00  0.00    +0.000 A 
ATOM     25  S   UNL     1      50.325   5.446  19.126  0.00  0.00    +0.000 S 
ATOM     26  C   UNL     1      50.894   3.995  18.443  0.00  0.00    +0.000 A 
ATOM     27  N   UNL     1      52.124   3.510  18.760  0.00  0.00    +0.000 NA
ATOM     28  C   UNL     1      52.442   2.421  18.143  0.00  0.00    +0.000 A 
ATOM     29  N   UNL     1      51.638   1.769  17.244  0.00  0.00    +0.000 N 
ATOM     30  C   UNL     1      50.371   2.199  16.926  0.00  0.00    +0.000 A 
ATOM     31  O   UNL     1      49.646   1.555  16.174  0.00  0.00    +0.000 OA
ATOM     32  C   UNL     1      49.974   3.435  17.574  0.00  0.00    +0.000 A 
ATOM     33  H   UNL     1      51.945   0.913  16.807  0.00  0.00    +0.000 HD
ENDBRANCH  20  23
ENDBRANCH  18  19
ENDBRANCH   4  18
TORSDOF 6
ENDMDL
MODEL 7
REMARK VINA RESULT:    -7.098      1.874      2.703
REMARK INTER + INTRA:         -10.406
REMARK INTER:                  -9.885
REMARK INTRA:                  -0.520
REMARK UNBOUND:                -0.818
REMARK  Name = 
REMARK  6 active torsions:
REMARK  status: ('A' for Active; 'I' for Inactive)
REMARK    1  A    between atoms: C_2  and  C_25
REMARK    2  A    between atoms: N_3  and  C_4
REMARK    3  A    between atoms: C_4  and  C_5
REMARK    4  A    between atoms: C_8  and  C_9
REMARK    5  A    between atoms: C_9  and  N_10
REMARK    6  A    between atoms: C_11  and  C_13
REMARK                            x       y       z     vdW  Elec       q    Type
REMARK                         _______ _______ _______ _____ _____    ______ ____
ROOT
ATOM      1  C   UNL     1      43.950   5.393  11.160  0.00  0.00    +0.000 C 
ATOM      2  C   UNL     1      43.566   5.456  12.645  0.00  0.00    +0.000 C 
ATOM      3  C   UNL     1      44.587   4.754  13.534  0.00  0.00    +0.000 C 
ATOM      4  C   UNL     1      46.000   5.339  13.358  0.00  0.00    +0.000 C 
ATOM      5  C   UNL     1      46.406   5.415  11.875  0.00  0.00    +0.000 C 
ATOM      6  C   UNL     1      45.329   6.052  10.989  0.00  0.00    +0.000 C 
ENDROOT
BRANCH   1   7
ATOM      7  C   UNL     1      43.957   3.966  10.573  0.00  0.00    +0.000 C 
BRANCH   7  10
ATOM      8  O   UNL     1      44.388   1.557   9.236  0.00  0.00    +0.000 OA
ATOM      9  C   UNL     1      45.068   2.530   8.924  0.00  0.00    +0.000 C 
ATOM     10  N   UNL     1      44.962   3.754   9.556  0.00  0.00    +0.000 N 
ATOM     11  H   UNL     1      45.349   4.550   9.072  0.00  0.00    +0.000 HD
BRANCH   9  12
ATOM     12  C   UNL     1      46.024   2.493   7.836  0.00  0.00    +0.000 A 
ATOM     13  C   UNL     1      47.012   1.582   7.503  0.00  0.00    +0.000 A 
ATOM     14  C   UNL     1      47.664   2.038   6.331  0.00  0.00    +0.000 A 
ATOM     15  C   UNL     1      47.053   3.213   5.961  0.00  0.00    +0.000 A 
ATOM     16  N   UNL     1      46.053   3.472   6.862  0.00  0.00    +0.000 N 
ATOM     17  H   UNL     1      45.420   4.261   6.840  0.00  0.00    +0.000 HD
ENDBRANCH   9  12
ENDBRANCH   7  10
ENDBRANCH   1   7
BRANCH   4  18
ATOM     18  C   UNL     1      47.051   4.536  14.147  0.00  0.00    +0.000 C 
BRANCH  18  19
ATOM     19  N   UNL     1      47.138   4.962  15.529  0.00  0.00    +0.000 N 
ATOM     20  C   UNL     1      48.238   5.619  16.024  0.00  0.00    +0.000 C 
ATOM     21  O   UNL     1      49.188   5.943  15.317  0.00  0.00    +0.000 OA
ATOM     22  H   UNL     1      46.556   4.469  16.198  0.00  0.00    +0.000 HD
BRANCH  20  23
ATOM     23  C   UNL     1      48.184   5.985  17.445  0.00  0.00    +0.000 A 
ATOM     24  C   UNL     1      48.097   4.985  18.404  0.00  0.00    +0.000 A 
ATOM     25  S   UNL     1      48.089   5.572  20.005  0.00  0.00    +0.000 S 
ATOM     26  C   UNL     1      48.154   7.186  19.471  0.00  0.00    +0.000 A 
ATOM     27  N   UNL     1      48.148   8.216  20.360  0.00  0.00    +0.000 NA
ATOM     28  C   UNL     1      48.164   9.387  19.817  0.00  0.00    +0.000 A 
ATOM     29  N   UNL     1      48.195   9.623  18.467  0.00  0.00    +0.000 N 
ATOM     30  C   UNL     1      48.246   8.614  17.534  0.00  0.00    +0.000 A 
ATOM     31  O   UNL     1      48.347   8.855  16.335  0.00  0.00    +0.000 OA
ATOM     32  C   UNL     1      48.203   7.275  18.091  0.00  0.00    +0.000 A 
ATOM     33  H   UNL     1      48.220  10.567  18.110  0.00  0.00    +0.000 HD
ENDBRANCH  20  23
ENDBRANCH  18  19
ENDBRANCH   4  18
TORSDOF 6
ENDMDL
MODEL 8
REMARK VINA RESULT:    -6.955      3.044      4.456
REMARK INTER + INTRA:         -10.212
REMARK INTER:                  -9.559
REMARK INTRA:                  -0.653
REMARK UNBOUND:                -0.818
REMARK  Name = 
REMARK  6 active torsions:
REMARK  status: ('A' for Active; 'I' for Inactive)
REMARK    1  A    between atoms: C_2  and  C_25
REMARK    2  A    between atoms: N_3  and  C_4
REMARK    3  A    between atoms: C_4  and  C_5
REMARK    4  A    between atoms: C_8  and  C_9
REMARK    5  A    between atoms: C_9  and  N_10
REMARK    6  A    between atoms: C_11  and  C_13
REMARK                            x       y       z     vdW  Elec       q    Type
REMARK                         _______ _______ _______ _____ _____    ______ ____
ROOT
ATOM      1  C   UNL     1      47.806   8.043  12.133  0.00  0.00    +0.000 C 
ATOM      2  C   UNL     1      48.025   9.265  13.036  0.00  0.00    +0.000 C 
ATOM      3  C   UNL     1      47.901   8.918  14.515  0.00  0.00    +0.000 C 
ATOM      4  C   UNL     1      48.884   7.808  14.930  0.00  0.00    +0.000 C 
ATOM      5  C   UNL     1      48.801   6.591  13.990  0.00  0.00    +0.000 C 
ATOM      6  C   UNL     1      48.848   6.974  12.506  0.00  0.00    +0.000 C 
ENDROOT
BRANCH   1   7
ATOM      7  C   UNL     1      46.381   7.456  12.205  0.00  0.00    +0.000 C 
BRANCH   7  10
ATOM      8  O   UNL     1      44.469   5.457  12.555  0.00  0.00    +0.000 OA
ATOM      9  C   UNL     1      45.145   5.448  11.531  0.00  0.00    +0.000 C 
ATOM     10  N   UNL     1      46.147   6.367  11.284  0.00  0.00    +0.000 N 
ATOM     11  H   UNL     1      46.459   6.453  10.330  0.00  0.00    +0.000 HD
BRANCH   9  12
ATOM     12  C   UNL     1      44.931   4.488  10.467  0.00  0.00    +0.000 A 
ATOM     13  C   UNL     1      44.525   3.165  10.482  0.00  0.00    +0.000 A 
ATOM     14  C   UNL     1      44.485   2.694   9.146  0.00  0.00    +0.000 A 
ATOM     15  C   UNL     1      44.852   3.744   8.337  0.00  0.00    +0.000 A 
ATOM     16  N   UNL     1      45.102   4.827   9.139  0.00  0.00    +0.000 N 
ATOM     17  H   UNL     1      45.379   5.749   8.825  0.00  0.00    +0.000 HD
ENDBRANCH   9  12
ENDBRANCH   7  10
ENDBRANCH   1   7
BRANCH   4  18
ATOM     18  C   UNL     1      48.658   7.360  16.385  0.00  0.00    +0.000 C 
BRANCH  18  19
ATOM     19  N   UNL     1      49.749   6.544  16.880  0.00  0.00    +0.000 N 
ATOM     20  C   UNL     1      49.537   5.329  17.484  0.00  0.00    +0.000 C 
ATOM     21  O   UNL     1      48.420   4.827  17.586  0.00  0.00    +0.000 OA
ATOM     22  H   UNL     1      50.616   7.022  17.099  0.00  0.00    +0.000 HD
BRANCH  20  23
ATOM     23  C   UNL     1      50.738   4.617  17.937  0.00  0.00    +0.000 A 
ATOM     24  C   UNL     1      51.701   5.301  18.667  0.00  0.00    +0.000 A 
ATOM     25  S   UNL     1      53.009   4.323  19.156  0.00  0.00    +0.000 S 
ATOM     26  C   UNL     1      52.358   2.963  18.369  0.00  0.00    +0.000 A 
ATOM     27  N   UNL     1      53.014   1.771  18.378  0.00  0.00    +0.000 NA
ATOM     28  C   UNL     1      52.425   0.834  17.713  0.00  0.00    +0.000 A 
ATOM     29  N   UNL     1      51.235   0.978  17.047  0.00  0.00    +0.000 N 
ATOM     30  C   UNL     1      50.516   2.151  17.048  0.00  0.00    +0.000 A 
ATOM     31  O   UNL     1      49.418   2.229  16.506  0.00  0.00    +0.000 OA
ATOM     32  C   UNL     1      51.148   3.245  17.761  0.00  0.00    +0.000 A 
ATOM     33  H   UNL     1      50.822   0.198  16.557  0.00  0.00    +0.000 HD
ENDBRANCH  20  23
ENDBRANCH  18  19
ENDBRANCH   4  18
TORSDOF 6
ENDMDL
MODEL 9
REMARK VINA RESULT:    -6.856      3.140      8.718
REMARK INTER + INTRA:         -10.079
REMARK INTER:                  -9.254
REMARK INTRA:                  -0.825
REMARK UNBOUND:                -0.818
REMARK  Name = 
REMARK  6 active torsions:
REMARK  status: ('A' for Active; 'I' for Inactive)
REMARK    1  A    between atoms: C_2  and  C_25
REMARK    2  A    between atoms: N_3  and  C_4
REMARK    3  A    between atoms: C_4  and  C_5
REMARK    4  A    between atoms: C_8  and  C_9
REMARK    5  A    between atoms: C_9  and  N_10
REMARK    6  A    between atoms: C_11  and  C_13
REMARK                            x       y       z     vdW  Elec       q    Type
REMARK                         _______ _______ _______ _____ _____    ______ ____
ROOT
ATOM      1  C   UNL     1      50.302   8.625  13.711  0.00  0.00    +0.000 C 
ATOM      2  C   UNL     1      49.991   7.435  12.792  0.00  0.00    +0.000 C 
ATOM      3  C   UNL     1      48.493   7.198  12.643  0.00  0.00    +0.000 C 
ATOM      4  C   UNL     1      47.764   8.444  12.110  0.00  0.00    +0.000 C 
ATOM      5  C   UNL     1      48.123   9.705  12.918  0.00  0.00    +0.000 C 
ATOM      6  C   UNL     1      49.632   9.878  13.122  0.00  0.00    +0.000 C 
ENDROOT
BRANCH   1   7
ATOM      7  C   UNL     1      49.864   8.417  15.176  0.00  0.00    +0.000 C 
BRANCH   7  10
ATOM      8  O   UNL     1      48.549   7.561  17.482  0.00  0.00    +0.000 OA
ATOM      9  C   UNL     1      48.932   6.717  16.678  0.00  0.00    +0.000 C 
ATOM     10  N   UNL     1      49.631   7.035  15.529  0.00  0.00    +0.000 N 
ATOM     11  H   UNL     1      49.667   6.329  14.810  0.00  0.00    +0.000 HD
BRANCH   9  12
ATOM     12  C   UNL     1      48.655   5.304  16.844  0.00  0.00    +0.000 A 
ATOM     13  C   UNL     1      49.387   4.279  17.418  0.00  0.00    +0.000 A 
ATOM     14  C   UNL     1      48.640   3.080  17.306  0.00  0.00    +0.000 A 
ATOM     15  C   UNL     1      47.457   3.398  16.680  0.00  0.00    +0.000 A 
ATOM     16  N   UNL     1      47.465   4.744  16.421  0.00  0.00    +0.000 N 
ATOM     17  H   UNL     1      46.722   5.270  15.979  0.00  0.00    +0.000 HD
ENDBRANCH   9  12
ENDBRANCH   7  10
ENDBRANCH   1   7
BRANCH   4  18
ATOM     18  C   UNL     1      46.236   8.250  12.096  0.00  0.00    +0.000 C 
BRANCH  18  19
ATOM     19  N   UNL     1      45.864   6.878  11.817  0.00  0.00    +0.000 N 
ATOM     20  C   UNL     1      44.583   6.524  11.470  0.00  0.00    +0.000 C 
ATOM     21  O   UNL     1      43.688   7.351  11.312  0.00  0.00    +0.000 OA
ATOM     22  H   UNL     1      46.449   6.153  12.218  0.00  0.00    +0.000 HD
BRANCH  20  23
ATOM     23  C   UNL     1      44.354   5.096  11.220  0.00  0.00    +0.000 A 
ATOM     24  C   UNL     1      43.604   4.356  12.124  0.00  0.00    +0.000 A 
ATOM     25  S   UNL     1      43.394   2.728  11.666  0.00  0.00    +0.000 S 
ATOM     26  C   UNL     1      44.337   2.942  10.267  0.00  0.00    +0.000 A 
ATOM     27  N   UNL     1      44.580   1.903   9.423  0.00  0.00    +0.000 NA
ATOM     28  C   UNL     1      45.339   2.198   8.420  0.00  0.00    +0.000 A 
ATOM     29  N   UNL     1      45.870   3.438   8.180  0.00  0.00    +0.000 N 
ATOM     30  C   UNL     1      45.616   4.527   8.982  0.00  0.00    +0.000 A 
ATOM     31  O   UNL     1      46.045   5.642   8.702  0.00  0.00    +0.000 OA
ATOM     32  C   UNL     1      44.788   4.244  10.139  0.00  0.00    +0.000 A 
ATOM     33  H   UNL     1      46.445   3.603   7.368  0.00  0.00    +0.000 HD
ENDBRANCH  20  23
ENDBRANCH  18  19
ENDBRANCH   4  18
TORSDOF 6
ENDMDL
