MODEL 1
REMARK VINA RESULT:    -7.940      0.000      0.000
REMARK INTER + INTRA:         -11.966
REMARK INTER:                 -11.189
REMARK INTRA:                  -0.777
REMARK UNBOUND:                -0.777
REMARK  Name = 
REMARK  9 active torsions:
REMARK  status: ('A' for Active; 'I' for Inactive)
REMARK    1  A    between atoms: C_1  and  C_2
REMARK    2  A    between atoms: C_2  and  N_3
REMARK    3  A    between atoms: C_2  and  C_26
REMARK    4  A    between atoms: N_3  and  C_4
REMARK    5  A    between atoms: C_6  and  C_7
REMARK    6  A    between atoms: C_12  and  C_13
REMARK    7  A    between atoms: C_13  and  C_14
REMARK    8  A    between atoms: C_14  and  N_15
REMARK    9  A    between atoms: C_19  and  C_20
REMARK                            x       y       z     vdW  Elec       q    Type
REMARK                         _______ _______ _______ _____ _____    ______ ____
ROOT
ATOM      1  C   UNL     1      45.331   7.071  11.858  0.00  0.00    +0.000 A 
ATOM      2  C   UNL     1      46.694   7.364  12.053  0.00  0.00    +0.000 A 
ATOM      3  C   UNL     1      47.522   6.574  12.865  0.00  0.00    +0.000 A 
ATOM      4  C   UNL     1      46.965   5.489  13.540  0.00  0.00    +0.000 A 
ATOM      5  C   UNL     1      45.604   5.201  13.392  0.00  0.00    +0.000 A 
ATOM      6  C   UNL     1      44.774   5.980  12.561  0.00  0.00    +0.000 A 
ENDROOT
BRANCH   3   7
ATOM      7  C   UNL     1      48.969   6.942  12.941  0.00  0.00    +0.000 C 
ATOM      8  N   UNL     1      49.608   7.350  11.802  0.00  0.00    +0.000 N 
ATOM      9  O   UNL     1      49.585   6.906  13.999  0.00  0.00    +0.000 OA
ATOM     10  H   UNL     1      49.178   7.468  10.900  0.00  0.00    +0.000 HD
ATOM     11  H   UNL     1      50.570   7.638  11.909  0.00  0.00    +0.000 HD
ENDBRANCH   3   7
BRANCH   1  12
ATOM     12  N   UNL     1      44.520   7.863  11.002  0.00  0.00    +0.000 N 
ATOM     13  H   UNL     1      43.779   7.288  10.603  0.00  0.00    +0.000 HD
BRANCH  12  15
ATOM     14  C   UNL     1      44.929  10.131  12.054  0.00  0.00    +0.000 C 
ATOM     15  C   UNL     1      44.121   9.171  11.228  0.00  0.00    +0.000 C 
ATOM     16  C   UNL     1      42.888   9.699  10.560  0.00  0.00    +0.000 C 
ENDBRANCH  12  15
ENDBRANCH   1  12
BRANCH   6  17
ATOM     17  C   UNL     1      43.320   5.556  12.415  0.00  0.00    +0.000 C 
BRANCH  17  18
ATOM     18  C   UNL     1      43.045   4.953  11.034  0.00  0.00    +0.000 C 
BRANCH  18  19
ATOM     19  N   UNL     1      43.432   3.531  10.969  0.00  0.00    +0.000 N 
ATOM     20  C   UNL     1      44.310   3.277   9.890  0.00  0.00    +0.000 A 
ATOM     21  C   UNL     1      44.774   1.988   9.624  0.00  0.00    +0.000 A 
ATOM     22  N   UNL     1      45.622   1.679   8.603  0.00  0.00    +0.000 NA
ATOM     23  C   UNL     1      46.025   2.729   7.833  0.00  0.00    +0.000 A 
ATOM     24  C   UNL     1      45.577   4.011   8.104  0.00  0.00    +0.000 A 
ATOM     25  N   UNL     1      44.735   4.300   9.120  0.00  0.00    +0.000 NA
ATOM     26  H   UNL     1      42.623   2.920  10.878  0.00  0.00    +0.000 HD
BRANCH  23  27
ATOM     27  C   UNL     1      46.959   2.555   6.656  0.00  0.00    +0.000 C 
ATOM     28  F   UNL     1      46.642   3.305   5.561  0.00  0.00    +0.000 F 
ATOM     29  F   UNL     1      48.249   2.881   6.965  0.00  0.00    +0.000 F 
ATOM     30  F   UNL     1      47.010   1.265   6.219  0.00  0.00    +0.000 F 
ENDBRANCH  23  27
ENDBRANCH  18  19
ENDBRANCH  17  18
ENDBRANCH   6  17
TORSDOF 7
ENDMDL
MODEL 2
REMARK VINA RESULT:    -7.568      1.722      3.349
REMARK INTER + INTRA:         -11.443
REMARK INTER:                 -10.447
REMARK INTRA:                  -0.996
REMARK UNBOUND:                -0.777
REMARK  Name = 
REMARK  9 active torsions:
REMARK  status: ('A' for Active; 'I' for Inactive)
REMARK    1  A    between atoms: C_1  and  C_2
REMARK    2  A    between atoms: C_2  and  N_3
REMARK    3  A    between atoms: C_2  and  C_26
REMARK    4  A    between atoms: N_3  and  C_4
REMARK    5  A    between atoms: C_6  and  C_7
REMARK    6  A    between atoms: C_12  and  C_13
REMARK    7  A    between atoms: C_13  and  C_14
REMARK    8  A    between atoms: C_14  and  N_15
REMARK    9  A    between atoms: C_19  and  C_20
REMARK                            x       y       z     vdW  Elec       q    Type
REMARK                         _______ _______ _______ _____ _____    ______ ____
ROOT
ATOM      1  C   UNL     1      46.630   5.336  13.823  0.00  0.00    +0.000 A 
ATOM      2  C   UNL     1      47.919   5.883  13.674  0.00  0.00    +0.000 A 
ATOM      3  C   UNL     1      48.222   6.827  12.681  0.00  0.00    +0.000 A 
ATOM      4  C   UNL     1      47.226   7.200  11.781  0.00  0.00    +0.000 A 
ATOM      5  C   UNL     1      45.948   6.641  11.884  0.00  0.00    +0.000 A 
ATOM      6  C   UNL     1      45.634   5.708  12.893  0.00  0.00    +0.000 A 
ENDROOT
BRANCH   3   7
ATOM      7  C   UNL     1      49.607   7.391  12.664  0.00  0.00    +0.000 C 
ATOM      8  N   UNL     1      50.326   7.412  13.828  0.00  0.00    +0.000 N 
ATOM      9  O   UNL     1      50.115   7.811  11.632  0.00  0.00    +0.000 OA
ATOM     10  H   UNL     1      50.021   7.040  14.712  0.00  0.00    +0.000 HD
ATOM     11  H   UNL     1      51.274   7.754  13.760  0.00  0.00    +0.000 HD
ENDBRANCH   3   7
BRANCH   1  12
ATOM     12  N   UNL     1      46.336   4.409  14.858  0.00  0.00    +0.000 N 
ATOM     13  H   UNL     1      45.816   3.620  14.474  0.00  0.00    +0.000 HD
BRANCH  12  15
ATOM     14  C   UNL     1      48.097   2.857  15.810  0.00  0.00    +0.000 C 
ATOM     15  C   UNL     1      47.179   4.042  15.896  0.00  0.00    +0.000 C 
ATOM     16  C   UNL     1      47.262   4.896  17.124  0.00  0.00    +0.000 C 
ENDBRANCH  12  15
ENDBRANCH   1  12
BRANCH   6  17
ATOM     17  C   UNL     1      44.202   5.198  12.965  0.00  0.00    +0.000 C 
BRANCH  17  18
ATOM     18  C   UNL     1      43.626   4.939  11.569  0.00  0.00    +0.000 C 
BRANCH  18  19
ATOM     19  N   UNL     1      43.663   3.507  11.216  0.00  0.00    +0.000 N 
ATOM     20  C   UNL     1      44.472   3.269  10.081  0.00  0.00    +0.000 A 
ATOM     21  C   UNL     1      44.619   1.985   9.555  0.00  0.00    +0.000 A 
ATOM     22  N   UNL     1      45.384   1.690   8.467  0.00  0.00    +0.000 NA
ATOM     23  C   UNL     1      46.038   2.744   7.903  0.00  0.00    +0.000 A 
ATOM     24  C   UNL     1      45.905   4.018   8.432  0.00  0.00    +0.000 A 
ATOM     25  N   UNL     1      45.141   4.293   9.512  0.00  0.00    +0.000 NA
ATOM     26  H   UNL     1      42.733   3.136  11.035  0.00  0.00    +0.000 HD
BRANCH  23  27
ATOM     27  C   UNL     1      46.922   2.588   6.686  0.00  0.00    +0.000 C 
ATOM     28  F   UNL     1      46.587   3.386   5.632  0.00  0.00    +0.000 F 
ATOM     29  F   UNL     1      48.232   2.866   6.956  0.00  0.00    +0.000 F 
ATOM     30  F   UNL     1      46.919   1.314   6.201  0.00  0.00    +0.000 F 
ENDBRANCH  23  27
ENDBRANCH  18  19
ENDBRANCH  17  18
ENDBRANCH   6  17
TORSDOF 7
ENDMDL
MODEL 3
REMARK VINA RESULT:    -7.115      1.741      3.109
REMARK INTER + INTRA:         -10.804
REMARK INTER:                  -9.779
REMARK INTRA:                  -1.025
REMARK UNBOUND:                -0.777
REMARK  Name = 
REMARK  9 active torsions:
REMARK  status: ('A' for Active; 'I' for Inactive)
REMARK    1  A    between atoms: C_1  and  C_2
REMARK    2  A    between atoms: C_2  and  N_3
REMARK    3  A    between atoms: C_2  and  C_26
REMARK    4  A    between atoms: N_3  and  C_4
REMARK    5  A    between atoms: C_6  and  C_7
REMARK    6  A    between atoms: C_12  and  C_13
REMARK    7  A    between atoms: C_13  and  C_14
REMARK    8  A    between atoms: C_14  and  N_15
REMARK    9  A    between atoms: C_19  and  C_20
REMARK                            x       y       z     vdW  Elec       q    Type
REMARK                         _______ _______ _______ _____ _____    ______ ____
ROOT
ATOM      1  C   UNL     1      46.517   6.950  12.302  0.00  0.00    +0.000 A 
ATOM      2  C   UNL     1      47.442   8.009  12.235  0.00  0.00    +0.000 A 
ATOM      3  C   UNL     1      47.040   9.350  12.140  0.00  0.00    +0.000 A 
ATOM      4  C   UNL     1      45.679   9.641  12.061  0.00  0.00    +0.000 A 
ATOM      5  C   UNL     1      44.743   8.603  12.085  0.00  0.00    +0.000 A 
ATOM      6  C   UNL     1      45.141   7.256  12.202  0.00  0.00    +0.000 A 
ENDROOT
BRANCH   3   7
ATOM      7  C   UNL     1      48.111  10.393  12.147  0.00  0.00    +0.000 C 
ATOM      8  N   UNL     1      48.124  11.319  13.154  0.00  0.00    +0.000 N 
ATOM      9  O   UNL     1      48.983  10.423  11.287  0.00  0.00    +0.000 OA
ATOM     10  H   UNL     1      47.491  11.344  13.935  0.00  0.00    +0.000 HD
ATOM     11  H   UNL     1      48.894  11.973  13.149  0.00  0.00    +0.000 HD
ENDBRANCH   3   7
BRANCH   1  12
ATOM     12  N   UNL     1      46.944   5.602  12.435  0.00  0.00    +0.000 N 
ATOM     13  H   UNL     1      47.651   5.395  11.729  0.00  0.00    +0.000 HD
BRANCH  12  15
ATOM     14  C   UNL     1      47.619   5.610  14.876  0.00  0.00    +0.000 C 
ATOM     15  C   UNL     1      47.159   4.922  13.624  0.00  0.00    +0.000 C 
ATOM     16  C   UNL     1      46.838   3.461  13.713  0.00  0.00    +0.000 C 
ENDBRANCH  12  15
ENDBRANCH   1  12
BRANCH   6  17
ATOM     17  C   UNL     1      44.049   6.199  12.282  0.00  0.00    +0.000 C 
BRANCH  17  18
ATOM     18  C   UNL     1      43.734   5.611  10.903  0.00  0.00    +0.000 C 
BRANCH  18  19
ATOM     19  N   UNL     1      43.801   4.137  10.905  0.00  0.00    +0.000 N 
ATOM     20  C   UNL     1      44.594   3.648   9.842  0.00  0.00    +0.000 A 
ATOM     21  C   UNL     1      44.764   2.278   9.638  0.00  0.00    +0.000 A 
ATOM     22  N   UNL     1      45.515   1.744   8.635  0.00  0.00    +0.000 NA
ATOM     23  C   UNL     1      46.132   2.643   7.817  0.00  0.00    +0.000 A 
ATOM     24  C   UNL     1      45.976   4.004   8.026  0.00  0.00    +0.000 A 
ATOM     25  N   UNL     1      45.225   4.517   9.026  0.00  0.00    +0.000 NA
ATOM     26  H   UNL     1      42.878   3.714  10.842  0.00  0.00    +0.000 HD
BRANCH  23  27
ATOM     27  C   UNL     1      46.996   2.216   6.652  0.00  0.00    +0.000 C 
ATOM     28  F   UNL     1      46.627   2.739   5.447  0.00  0.00    +0.000 F 
ATOM     29  F   UNL     1      48.305   2.566   6.821  0.00  0.00    +0.000 F 
ATOM     30  F   UNL     1      47.006   0.863   6.481  0.00  0.00    +0.000 F 
ENDBRANCH  23  27
ENDBRANCH  18  19
ENDBRANCH  17  18
ENDBRANCH   6  17
TORSDOF 7
ENDMDL
MODEL 4
REMARK VINA RESULT:    -6.782      5.105      6.930
REMARK INTER + INTRA:         -10.334
REMARK INTER:                  -9.463
REMARK INTRA:                  -0.872
REMARK UNBOUND:                -0.777
REMARK  Name = 
REMARK  9 active torsions:
REMARK  status: ('A' for Active; 'I' for Inactive)
REMARK    1  A    between atoms: C_1  and  C_2
REMARK    2  A    between atoms: C_2  and  N_3
REMARK    3  A    between atoms: C_2  and  C_26
REMARK    4  A    between atoms: N_3  and  C_4
REMARK    5  A    between atoms: C_6  and  C_7
REMARK    6  A    between atoms: C_12  and  C_13
REMARK    7  A    between atoms: C_13  and  C_14
REMARK    8  A    between atoms: C_14  and  N_15
REMARK    9  A    between atoms: C_19  and  C_20
REMARK                            x       y       z     vdW  Elec       q    Type
REMARK                         _______ _______ _______ _____ _____    ______ ____
ROOT
ATOM      1  C   UNL     1      50.308   4.472  17.831  0.00  0.00    +0.000 A 
ATOM      2  C   UNL     1      51.433   3.639  17.983  0.00  0.00    +0.000 A 
ATOM      3  C   UNL     1      51.424   2.291  17.597  0.00  0.00    +0.000 A 
ATOM      4  C   UNL     1      50.246   1.744  17.090  0.00  0.00    +0.000 A 
ATOM      5  C   UNL     1      49.104   2.541  16.966  0.00  0.00    +0.000 A 
ATOM      6  C   UNL     1      49.115   3.902  17.333  0.00  0.00    +0.000 A 
ENDROOT
BRANCH   3   7
ATOM      7  C   UNL     1      52.698   1.523  17.741  0.00  0.00    +0.000 C 
ATOM      8  N   UNL     1      52.640   0.213  18.130  0.00  0.00    +0.000 N 
ATOM      9  O   UNL     1      53.785   2.033  17.498  0.00  0.00    +0.000 OA
ATOM     10  H   UNL     1      51.798  -0.312  18.296  0.00  0.00    +0.000 HD
ATOM     11  H   UNL     1      53.520  -0.282  18.165  0.00  0.00    +0.000 HD
ENDBRANCH   3   7
BRANCH   1  12
ATOM     12  N   UNL     1      50.350   5.845  18.195  0.00  0.00    +0.000 N 
ATOM     13  H   UNL     1      50.577   5.930  19.186  0.00  0.00    +0.000 HD
BRANCH  12  15
ATOM     14  C   UNL     1      50.661   6.976  15.950  0.00  0.00    +0.000 C 
ATOM     15  C   UNL     1      50.870   6.880  17.434  0.00  0.00    +0.000 C 
ATOM     16  C   UNL     1      51.593   8.007  18.107  0.00  0.00    +0.000 C 
ENDBRANCH  12  15
ENDBRANCH   1  12
BRANCH   6  17
ATOM     17  C   UNL     1      47.843   4.707  17.108  0.00  0.00    +0.000 C 
BRANCH  17  18
ATOM     18  C   UNL     1      47.156   4.317  15.795  0.00  0.00    +0.000 C 
BRANCH  18  19
ATOM     19  N   UNL     1      47.178   5.421  14.815  0.00  0.00    +0.000 N 
ATOM     20  C   UNL     1      46.506   5.072  13.621  0.00  0.00    +0.000 A 
ATOM     21  C   UNL     1      46.436   5.960  12.546  0.00  0.00    +0.000 A 
ATOM     22  N   UNL     1      45.803   5.686  11.372  0.00  0.00    +0.000 NA
ATOM     23  C   UNL     1      45.202   4.465  11.296  0.00  0.00    +0.000 A 
ATOM     24  C   UNL     1      45.258   3.588  12.367  0.00  0.00    +0.000 A 
ATOM     25  N   UNL     1      45.892   3.875  13.525  0.00  0.00    +0.000 NA
ATOM     26  H   UNL     1      48.128   5.703  14.582  0.00  0.00    +0.000 HD
BRANCH  23  27
ATOM     27  C   UNL     1      44.464   4.003  10.060  0.00  0.00    +0.000 C 
ATOM     28  F   UNL     1      44.073   2.696  10.084  0.00  0.00    +0.000 F 
ATOM     29  F   UNL     1      43.325   4.724   9.836  0.00  0.00    +0.000 F 
ATOM     30  F   UNL     1      45.207   4.147   8.927  0.00  0.00    +0.000 F 
ENDBRANCH  23  27
ENDBRANCH  18  19
ENDBRANCH  17  18
ENDBRANCH   6  17
TORSDOF 7
ENDMDL
MODEL 5
REMARK VINA RESULT:    -6.734      2.320      4.021
REMARK INTER + INTRA:         -10.266
REMARK INTER:                  -8.849
REMARK INTRA:                  -1.417
REMARK UNBOUND:                -0.777
REMARK  Name = 
REMARK  9 active torsions:
REMARK  status: ('A' for Active; 'I' for Inactive)
REMARK    1  A    between atoms: C_1  and  C_2
REMARK    2  A    between atoms: C_2  and  N_3
REMARK    3  A    between atoms: C_2  and  C_26
REMARK    4  A    between atoms: N_3  and  C_4
REMARK    5  A    between atoms: C_6  and  C_7
REMARK    6  A    between atoms: C_12  and  C_13
REMARK    7  A    between atoms: C_13  and  C_14
REMARK    8  A    between atoms: C_14  and  N_15
REMARK    9  A    between atoms: C_19  and  C_20
REMARK                            x       y       z     vdW  Elec       q    Type
REMARK                         _______ _______ _______ _____ _____    ______ ____
ROOT
ATOM      1  C   UNL     1      48.003   7.536  12.212  0.00  0.00    +0.000 A 
ATOM      2  C   UNL     1      49.320   7.721  11.750  0.00  0.00    +0.000 A 
ATOM      3  C   UNL     1      49.847   8.993  11.476  0.00  0.00    +0.000 A 
ATOM      4  C   UNL     1      49.023  10.107  11.621  0.00  0.00    +0.000 A 
ATOM      5  C   UNL     1      47.699   9.945  12.041  0.00  0.00    +0.000 A 
ATOM      6  C   UNL     1      47.172   8.672  12.338  0.00  0.00    +0.000 A 
ENDROOT
BRANCH   3   7
ATOM      7  C   UNL     1      51.280   9.071  11.058  0.00  0.00    +0.000 C 
ATOM      8  N   UNL     1      51.814  10.294  10.757  0.00  0.00    +0.000 N 
ATOM      9  O   UNL     1      51.987   8.072  11.001  0.00  0.00    +0.000 OA
ATOM     10  H   UNL     1      51.336  11.176  10.829  0.00  0.00    +0.000 HD
ATOM     11  H   UNL     1      52.798  10.307  10.529  0.00  0.00    +0.000 HD
ENDBRANCH   3   7
BRANCH   1  12
ATOM     12  N   UNL     1      47.502   6.243  12.518  0.00  0.00    +0.000 N 
ATOM     13  H   UNL     1      47.735   5.598  11.764  0.00  0.00    +0.000 HD
BRANCH  12  15
ATOM     14  C   UNL     1      48.208   6.228  14.951  0.00  0.00    +0.000 C 
ATOM     15  C   UNL     1      47.505   5.635  13.764  0.00  0.00    +0.000 C 
ATOM     16  C   UNL     1      46.707   4.386  13.984  0.00  0.00    +0.000 C 
ENDBRANCH  12  15
ENDBRANCH   1  12
BRANCH   6  17
ATOM     17  C   UNL     1      45.740   8.599  12.845  0.00  0.00    +0.000 C 
BRANCH  17  18
ATOM     18  C   UNL     1      44.783   8.096  11.760  0.00  0.00    +0.000 C 
BRANCH  18  19
ATOM     19  N   UNL     1      44.005   6.927  12.212  0.00  0.00    +0.000 N 
ATOM     20  C   UNL     1      44.223   5.802  11.382  0.00  0.00    +0.000 A 
ATOM     21  C   UNL     1      43.557   4.597  11.610  0.00  0.00    +0.000 A 
ATOM     22  N   UNL     1      43.725   3.479  10.850  0.00  0.00    +0.000 NA
ATOM     23  C   UNL     1      44.618   3.589   9.827  0.00  0.00    +0.000 A 
ATOM     24  C   UNL     1      45.290   4.781   9.607  0.00  0.00    +0.000 A 
ATOM     25  N   UNL     1      45.111   5.881  10.370  0.00  0.00    +0.000 NA
ATOM     26  H   UNL     1      43.007   7.122  12.238  0.00  0.00    +0.000 HD
BRANCH  23  27
ATOM     27  C   UNL     1      44.913   2.443   8.886  0.00  0.00    +0.000 C 
ATOM     28  F   UNL     1      46.217   2.042   8.867  0.00  0.00    +0.000 F 
ATOM     29  F   UNL     1      44.188   1.325   9.186  0.00  0.00    +0.000 F 
ATOM     30  F   UNL     1      44.597   2.738   7.593  0.00  0.00    +0.000 F 
ENDBRANCH  23  27
ENDBRANCH  18  19
ENDBRANCH  17  18
ENDBRANCH   6  17
TORSDOF 7
ENDMDL
MODEL 6
REMARK VINA RESULT:    -6.510      2.095      2.851
REMARK INTER + INTRA:          -9.951
REMARK INTER:                  -9.503
REMARK INTRA:                  -0.448
REMARK UNBOUND:                -0.777
REMARK  Name = 
REMARK  9 active torsions:
REMARK  status: ('A' for Active; 'I' for Inactive)
REMARK    1  A    between atoms: C_1  and  C_2
REMARK    2  A    between atoms: C_2  and  N_3
REMARK    3  A    between atoms: C_2  and  C_26
REMARK    4  A    between atoms: N_3  and  C_4
REMARK    5  A    between atoms: C_6  and  C_7
REMARK    6  A    between atoms: C_12  and  C_13
REMARK    7  A    between atoms: C_13  and  C_14
REMARK    8  A    between atoms: C_14  and  N_15
REMARK    9  A    between atoms: C_19  and  C_20
REMARK                            x       y       z     vdW  Elec       q    Type
REMARK                         _______ _______ _______ _____ _____    ______ ____
ROOT
ATOM      1  C   UNL     1      46.876   6.361  12.807  0.00  0.00    +0.000 A 
ATOM      2  C   UNL     1      47.401   5.487  13.778  0.00  0.00    +0.000 A 
ATOM      3  C   UNL     1      46.607   4.537  14.438  0.00  0.00    +0.000 A 
ATOM      4  C   UNL     1      45.243   4.488  14.157  0.00  0.00    +0.000 A 
ATOM      5  C   UNL     1      44.691   5.372  13.225  0.00  0.00    +0.000 A 
ATOM      6  C   UNL     1      45.489   6.314  12.545  0.00  0.00    +0.000 A 
ENDROOT
BRANCH   3   7
ATOM      7  C   UNL     1      47.288   3.616  15.398  0.00  0.00    +0.000 C 
ATOM      8  N   UNL     1      46.980   3.702  16.728  0.00  0.00    +0.000 N 
ATOM      9  O   UNL     1      48.096   2.776  15.019  0.00  0.00    +0.000 OA
ATOM     10  H   UNL     1      46.292   4.316  17.132  0.00  0.00    +0.000 HD
ATOM     11  H   UNL     1      47.425   3.027  17.335  0.00  0.00    +0.000 HD
ENDBRANCH   3   7
BRANCH   1  12
ATOM     12  N   UNL     1      47.705   7.291  12.125  0.00  0.00    +0.000 N 
ATOM     13  H   UNL     1      47.489   7.276  11.128  0.00  0.00    +0.000 HD
BRANCH  12  15
ATOM     14  C   UNL     1      47.817   9.010  13.983  0.00  0.00    +0.000 C 
ATOM     15  C   UNL     1      48.070   8.550  12.575  0.00  0.00    +0.000 C 
ATOM     16  C   UNL     1      48.830   9.473  11.671  0.00  0.00    +0.000 C 
ENDBRANCH  12  15
ENDBRANCH   1  12
BRANCH   6  17
ATOM     17  C   UNL     1      44.812   7.195  11.504  0.00  0.00    +0.000 C 
BRANCH  17  18
ATOM     18  C   UNL     1      44.580   6.439  10.192  0.00  0.00    +0.000 C 
BRANCH  18  19
ATOM     19  N   UNL     1      44.369   4.996  10.419  0.00  0.00    +0.000 N 
ATOM     20  C   UNL     1      45.051   4.211   9.461  0.00  0.00    +0.000 A 
ATOM     21  C   UNL     1      44.959   2.819   9.471  0.00  0.00    +0.000 A 
ATOM     22  N   UNL     1      45.592   2.007   8.578  0.00  0.00    +0.000 NA
ATOM     23  C   UNL     1      46.362   2.640   7.649  0.00  0.00    +0.000 A 
ATOM     24  C   UNL     1      46.466   4.022   7.646  0.00  0.00    +0.000 A 
ATOM     25  N   UNL     1      45.830   4.812   8.538  0.00  0.00    +0.000 NA
ATOM     26  H   UNL     1      43.382   4.749  10.398  0.00  0.00    +0.000 HD
BRANCH  23  27
ATOM     27  C   UNL     1      47.125   1.886   6.582  0.00  0.00    +0.000 C 
ATOM     28  F   UNL     1      46.947   2.356   5.314  0.00  0.00    +0.000 F 
ATOM     29  F   UNL     1      48.473   1.905   6.797  0.00  0.00    +0.000 F 
ATOM     30  F   UNL     1      46.788   0.566   6.539  0.00  0.00    +0.000 F 
ENDBRANCH  23  27
ENDBRANCH  18  19
ENDBRANCH  17  18
ENDBRANCH   6  17
TORSDOF 7
ENDMDL
MODEL 7
REMARK VINA RESULT:    -6.281      5.669      8.000
REMARK INTER + INTRA:          -9.628
REMARK INTER:                  -8.867
REMARK INTRA:                  -0.761
REMARK UNBOUND:                -0.777
REMARK  Name = 
REMARK  9 active torsions:
REMARK  status: ('A' for Active; 'I' for Inactive)
REMARK    1  A    between atoms: C_1  and  C_2
REMARK    2  A    between atoms: C_2  and  N_3
REMARK    3  A    between atoms: C_2  and  C_26
REMARK    4  A    between atoms: N_3  and  C_4
REMARK    5  A    between atoms: C_6  and  C_7
REMARK    6  A    between atoms: C_12  and  C_13
REMARK    7  A    between atoms: C_13  and  C_14
REMARK    8  A    between atoms: C_14  and  N_15
REMARK    9  A    between atoms: C_19  and  C_20
REMARK                            x       y       z     vdW  Elec       q    Type
REMARK                         _______ _______ _______ _____ _____    ______ ____
ROOT
ATOM      1  C   UNL     1      44.574   5.969  11.334  0.00  0.00    +0.000 A 
ATOM      2  C   UNL     1      44.165   7.286  11.050  0.00  0.00    +0.000 A 
ATOM      3  C   UNL     1      44.716   8.399  11.702  0.00  0.00    +0.000 A 
ATOM      4  C   UNL     1      45.666   8.192  12.700  0.00  0.00    +0.000 A 
ATOM      5  C   UNL     1      46.060   6.890  13.028  0.00  0.00    +0.000 A 
ATOM      6  C   UNL     1      45.525   5.771  12.360  0.00  0.00    +0.000 A 
ENDROOT
BRANCH   3   7
ATOM      7  C   UNL     1      44.254   9.752  11.267  0.00  0.00    +0.000 C 
ATOM      8  N   UNL     1      43.733   9.901  10.011  0.00  0.00    +0.000 N 
ATOM      9  O   UNL     1      44.311  10.721  12.015  0.00  0.00    +0.000 OA
ATOM     10  H   UNL     1      43.590   9.160   9.345  0.00  0.00    +0.000 HD
ATOM     11  H   UNL     1      43.386  10.820   9.777  0.00  0.00    +0.000 HD
ENDBRANCH   3   7
BRANCH   1  12
ATOM     12  N   UNL     1      44.029   4.858  10.636  0.00  0.00    +0.000 N 
ATOM     13  H   UNL     1      43.055   5.046  10.400  0.00  0.00    +0.000 HD
BRANCH  12  15
ATOM     14  C   UNL     1      45.650   4.682   8.697  0.00  0.00    +0.000 C 
ATOM     15  C   UNL     1      44.675   4.094   9.677  0.00  0.00    +0.000 C 
ATOM     16  C   UNL     1      44.482   2.608   9.656  0.00  0.00    +0.000 C 
ENDBRANCH  12  15
ENDBRANCH   1  12
BRANCH   6  17
ATOM     17  C   UNL     1      46.057   4.397  12.742  0.00  0.00    +0.000 C 
BRANCH  17  18
ATOM     18  C   UNL     1      47.145   4.494  13.817  0.00  0.00    +0.000 C 
BRANCH  18  19
ATOM     19  N   UNL     1      46.809   3.697  15.012  0.00  0.00    +0.000 N 
ATOM     20  C   UNL     1      47.567   4.096  16.136  0.00  0.00    +0.000 A 
ATOM     21  C   UNL     1      47.432   3.449  17.365  0.00  0.00    +0.000 A 
ATOM     22  N   UNL     1      48.130   3.787  18.485  0.00  0.00    +0.000 NA
ATOM     23  C   UNL     1      48.989   4.836  18.350  0.00  0.00    +0.000 A 
ATOM     24  C   UNL     1      49.115   5.489  17.134  0.00  0.00    +0.000 A 
ATOM     25  N   UNL     1      48.415   5.140  16.033  0.00  0.00    +0.000 NA
ATOM     26  H   UNL     1      46.956   2.701  14.858  0.00  0.00    +0.000 HD
BRANCH  23  27
ATOM     27  C   UNL     1      49.844   5.332  19.495  0.00  0.00    +0.000 C 
ATOM     28  F   UNL     1      51.184   5.355  19.238  0.00  0.00    +0.000 F 
ATOM     29  F   UNL     1      49.520   6.605  19.872  0.00  0.00    +0.000 F 
ATOM     30  F   UNL     1      49.696   4.577  20.619  0.00  0.00    +0.000 F 
ENDBRANCH  23  27
ENDBRANCH  18  19
ENDBRANCH  17  18
ENDBRANCH   6  17
TORSDOF 7
ENDMDL
MODEL 8
REMARK VINA RESULT:    -6.200      4.900      7.341
REMARK INTER + INTRA:          -9.514
REMARK INTER:                  -8.562
REMARK INTRA:                  -0.952
REMARK UNBOUND:                -0.777
REMARK  Name = 
REMARK  9 active torsions:
REMARK  status: ('A' for Active; 'I' for Inactive)
REMARK    1  A    between atoms: C_1  and  C_2
REMARK    2  A    between atoms: C_2  and  N_3
REMARK    3  A    between atoms: C_2  and  C_26
REMARK    4  A    between atoms: N_3  and  C_4
REMARK    5  A    between atoms: C_6  and  C_7
REMARK    6  A    between atoms: C_12  and  C_13
REMARK    7  A    between atoms: C_13  and  C_14
REMARK    8  A    between atoms: C_14  and  N_15
REMARK    9  A    between atoms: C_19  and  C_20
REMARK                            x       y       z     vdW  Elec       q    Type
REMARK                         _______ _______ _______ _____ _____    ______ ____
ROOT
ATOM      1  C   UNL     1      45.205   8.221  12.413  0.00  0.00    +0.000 A 
ATOM      2  C   UNL     1      44.403   7.291  11.723  0.00  0.00    +0.000 A 
ATOM      3  C   UNL     1      44.820   5.973  11.486  0.00  0.00    +0.000 A 
ATOM      4  C   UNL     1      46.090   5.583  11.906  0.00  0.00    +0.000 A 
ATOM      5  C   UNL     1      46.920   6.499  12.559  0.00  0.00    +0.000 A 
ATOM      6  C   UNL     1      46.498   7.819  12.817  0.00  0.00    +0.000 A 
ENDROOT
BRANCH   3   7
ATOM      7  C   UNL     1      43.855   5.056  10.806  0.00  0.00    +0.000 C 
ATOM      8  N   UNL     1      43.999   4.822   9.465  0.00  0.00    +0.000 N 
ATOM      9  O   UNL     1      42.957   4.496  11.423  0.00  0.00    +0.000 OA
ATOM     10  H   UNL     1      44.735   5.186   8.883  0.00  0.00    +0.000 HD
ATOM     11  H   UNL     1      43.358   4.157   9.057  0.00  0.00    +0.000 HD
ENDBRANCH   3   7
BRANCH   1  12
ATOM     12  N   UNL     1      44.749   9.540  12.674  0.00  0.00    +0.000 N 
ATOM     13  H   UNL     1      45.184   9.891  13.527  0.00  0.00    +0.000 HD
BRANCH  12  15
ATOM     14  C   UNL     1      45.656  11.330  11.127  0.00  0.00    +0.000 C 
ATOM     15  C   UNL     1      44.534  10.536  11.733  0.00  0.00    +0.000 C 
ATOM     16  C   UNL     1      43.150  10.786  11.218  0.00  0.00    +0.000 C 
ENDBRANCH  12  15
ENDBRANCH   1  12
BRANCH   6  17
ATOM     17  C   UNL     1      47.446   8.728  13.586  0.00  0.00    +0.000 C 
BRANCH  17  18
ATOM     18  C   UNL     1      48.688   7.971  14.065  0.00  0.00    +0.000 C 
BRANCH  18  19
ATOM     19  N   UNL     1      48.848   8.047  15.529  0.00  0.00    +0.000 N 
ATOM     20  C   UNL     1      48.639   6.791  16.144  0.00  0.00    +0.000 A 
ATOM     21  C   UNL     1      48.708   6.645  17.530  0.00  0.00    +0.000 A 
ATOM     22  N   UNL     1      48.519   5.464  18.182  0.00  0.00    +0.000 NA
ATOM     23  C   UNL     1      48.266   4.386  17.388  0.00  0.00    +0.000 A 
ATOM     24  C   UNL     1      48.210   4.526  16.011  0.00  0.00    +0.000 A 
ATOM     25  N   UNL     1      48.399   5.706  15.380  0.00  0.00    +0.000 NA
ATOM     26  H   UNL     1      48.210   8.722  15.946  0.00  0.00    +0.000 HD
BRANCH  23  27
ATOM     27  C   UNL     1      48.026   3.004  17.954  0.00  0.00    +0.000 C 
ATOM     28  F   UNL     1      48.224   2.897  19.300  0.00  0.00    +0.000 F 
ATOM     29  F   UNL     1      46.750   2.567  17.734  0.00  0.00    +0.000 F 
ATOM     30  F   UNL     1      48.830   2.063  17.385  0.00  0.00    +0.000 F 
ENDBRANCH  23  27
ENDBRANCH  18  19
ENDBRANCH  17  18
ENDBRANCH   6  17
TORSDOF 7
ENDMDL
MODEL 9
REMARK VINA RESULT:    -6.105      6.246      8.636
REMARK INTER + INTRA:          -9.381
REMARK INTER:                  -8.595
REMARK INTRA:                  -0.786
REMARK UNBOUND:                -0.777
REMARK  Name = 
REMARK  9 active torsions:
REMARK  status: ('A' for Active; 'I' for Inactive)
REMARK    1  A    between atoms: C_1  and  C_2
REMARK    2  A    between atoms: C_2  and  N_3
REMARK    3  A    between atoms: C_2  and  C_26
REMARK    4  A    between atoms: N_3  and  C_4
REMARK    5  A    between atoms: C_6  and  C_7
REMARK    6  A    between atoms: C_12  and  C_13
REMARK    7  A    between atoms: C_13  and  C_14
REMARK    8  A    between atoms: C_14  and  N_15
REMARK    9  A    between atoms: C_19  and  C_20
REMARK                            x       y       z     vdW  Elec       q    Type
REMARK                         _______ _______ _______ _____ _____    ______ ____
ROOT
ATOM      1  C   UNL     1      46.061   6.024  12.887  0.00  0.00    +0.000 A 
ATOM      2  C   UNL     1      45.254   5.563  11.829  0.00  0.00    +0.000 A 
ATOM      3  C   UNL     1      45.021   4.198  11.605  0.00  0.00    +0.000 A 
ATOM      4  C   UNL     1      45.646   3.264  12.429  0.00  0.00    +0.000 A 
ATOM      5  C   UNL     1      46.482   3.697  13.463  0.00  0.00    +0.000 A 
ATOM      6  C   UNL     1      46.703   5.067  13.705  0.00  0.00    +0.000 A 
ENDROOT
BRANCH   3   7
ATOM      7  C   UNL     1      44.091   3.831  10.493  0.00  0.00    +0.000 C 
ATOM      8  N   UNL     1      44.032   4.634   9.388  0.00  0.00    +0.000 N 
ATOM      9  O   UNL     1      43.401   2.820  10.542  0.00  0.00    +0.000 OA
ATOM     10  H   UNL     1      44.598   5.451   9.226  0.00  0.00    +0.000 HD
ATOM     11  H   UNL     1      43.430   4.322   8.640  0.00  0.00    +0.000 HD
ENDBRANCH   3   7
BRANCH   1  12
ATOM     12  N   UNL     1      46.255   7.412  13.118  0.00  0.00    +0.000 N 
ATOM     13  H   UNL     1      46.298   7.590  14.122  0.00  0.00    +0.000 HD
BRANCH  12  15
ATOM     14  C   UNL     1      46.785   9.726  12.236  0.00  0.00    +0.000 C 
ATOM     15  C   UNL     1      47.072   8.260  12.388  0.00  0.00    +0.000 C 
ATOM     16  C   UNL     1      48.345   7.737  11.794  0.00  0.00    +0.000 C 
ENDBRANCH  12  15
ENDBRANCH   1  12
BRANCH   6  17
ATOM     17  C   UNL     1      47.581   5.445  14.889  0.00  0.00    +0.000 C 
BRANCH  17  18
ATOM     18  C   UNL     1      47.461   4.426  16.026  0.00  0.00    +0.000 C 
BRANCH  18  19
ATOM     19  N   UNL     1      47.733   5.036  17.342  0.00  0.00    +0.000 N 
ATOM     20  C   UNL     1      49.013   4.683  17.827  0.00  0.00    +0.000 A 
ATOM     21  C   UNL     1      49.460   5.125  19.073  0.00  0.00    +0.000 A 
ATOM     22  N   UNL     1      50.682   4.823  19.595  0.00  0.00    +0.000 NA
ATOM     23  C   UNL     1      51.485   4.052  18.809  0.00  0.00    +0.000 A 
ATOM     24  C   UNL     1      51.048   3.623  17.566  0.00  0.00    +0.000 A 
ATOM     25  N   UNL     1      49.832   3.932  17.063  0.00  0.00    +0.000 NA
ATOM     26  H   UNL     1      47.038   4.768  18.035  0.00  0.00    +0.000 HD
BRANCH  23  27
ATOM     27  C   UNL     1      52.868   3.621  19.244  0.00  0.00    +0.000 C 
ATOM     28  F   UNL     1      53.193   2.337  18.919  0.00  0.00    +0.000 F 
ATOM     29  F   UNL     1      53.849   4.399  18.699  0.00  0.00    +0.000 F 
ATOM     30  F   UNL     1      53.041   3.717  20.593  0.00  0.00    +0.000 F 
ENDBRANCH  23  27
ENDBRANCH  18  19
ENDBRANCH  17  18
ENDBRANCH   6  17
TORSDOF 7
ENDMDL
