MODEL 1
REMARK VINA RESULT:    -8.065      0.000      0.000
REMARK INTER + INTRA:         -10.436
REMARK INTER:                  -9.951
REMARK INTRA:                  -0.486
REMARK UNBOUND:                -0.486
REMARK  Name = 
REMARK  4 active torsions:
REMARK  status: ('A' for Active; 'I' for Inactive)
REMARK    1  A    between atoms: C_2  and  C_4
REMARK    2  A    between atoms: C_7  and  O_8
REMARK    3  A    between atoms: O_8  and  C_9
REMARK    4  A    between atoms: C_9  and  C_10
REMARK                            x       y       z     vdW  Elec       q    Type
REMARK                         _______ _______ _______ _____ _____    ______ ____
ROOT
ATOM      1  C   UNL     1      46.350   4.598  13.325  0.00  0.00    +0.000 A 
ATOM      2  C   UNL     1      46.075   5.579  12.386  0.00  0.00    +0.000 A 
ATOM      3  C   UNL     1      45.324   5.251  11.249  0.00  0.00    +0.000 A 
ATOM      4  C   UNL     1      44.873   3.933  11.113  0.00  0.00    +0.000 A 
ATOM      5  C   UNL     1      45.232   3.028  12.099  0.00  0.00    +0.000 A 
ATOM      6  N   UNL     1      45.943   3.301  13.205  0.00  0.00    +0.000 NA
ENDROOT
BRANCH   1   8
ATOM      7  N   UNL     1      46.733   4.336  15.729  0.00  0.00    +0.000 N 
ATOM      8  C   UNL     1      47.136   4.912  14.557  0.00  0.00    +0.000 C 
ATOM      9  O   UNL     1      48.129   5.643  14.527  0.00  0.00    +0.000 OA
ATOM     10  H   UNL     1      47.331   4.460  16.526  0.00  0.00    +0.000 HD
ATOM     11  H   UNL     1      46.080   3.558  15.715  0.00  0.00    +0.000 HD
ENDBRANCH   1   8
BRANCH   4  12
ATOM     12  O   UNL     1      44.123   3.547  10.025  0.00  0.00    +0.000 OA
BRANCH  12  13
ATOM     13  C   UNL     1      44.596   4.109   8.771  0.00  0.00    +0.000 C 
BRANCH  13  14
ATOM     14  C   UNL     1      45.640   3.209   8.165  0.00  0.00    +0.000 A 
ATOM     15  C   UNL     1      46.631   3.739   7.322  0.00  0.00    +0.000 A 
ATOM     16  C   UNL     1      47.586   2.904   6.739  0.00  0.00    +0.000 A 
ATOM     17  C   UNL     1      47.553   1.533   6.984  0.00  0.00    +0.000 A 
ATOM     18  C   UNL     1      46.562   1.009   7.804  0.00  0.00    +0.000 A 
ATOM     19  F   UNL     1      46.523  -0.311   8.031  0.00  0.00    +0.000 F 
ATOM     20  C   UNL     1      45.608   1.826   8.385  0.00  0.00    +0.000 A 
ENDBRANCH  13  14
ENDBRANCH  12  13
ENDBRANCH   4  12
TORSDOF 4
ENDMDL
MODEL 2
REMARK VINA RESULT:    -7.789      3.678      6.375
REMARK INTER + INTRA:         -10.097
REMARK INTER:                  -9.508
REMARK INTRA:                  -0.588
REMARK UNBOUND:                -0.486
REMARK  Name = 
REMARK  4 active torsions:
REMARK  status: ('A' for Active; 'I' for Inactive)
REMARK    1  A    between atoms: C_2  and  C_4
REMARK    2  A    between atoms: C_7  and  O_8
REMARK    3  A    between atoms: O_8  and  C_9
REMARK    4  A    between atoms: C_9  and  C_10
REMARK                            x       y       z     vdW  Elec       q    Type
REMARK                         _______ _______ _______ _____ _____    ______ ____
ROOT
ATOM      1  C   UNL     1      46.437   2.663   7.517  0.00  0.00    +0.000 A 
ATOM      2  C   UNL     1      45.940   1.640   8.307  0.00  0.00    +0.000 A 
ATOM      3  C   UNL     1      44.926   1.918   9.235  0.00  0.00    +0.000 A 
ATOM      4  C   UNL     1      44.449   3.231   9.318  0.00  0.00    +0.000 A 
ATOM      5  C   UNL     1      45.039   4.181   8.499  0.00  0.00    +0.000 A 
ATOM      6  N   UNL     1      46.006   3.957   7.595  0.00  0.00    +0.000 NA
ENDROOT
BRANCH   1   8
ATOM      7  N   UNL     1      47.484   3.139   5.356  0.00  0.00    +0.000 N 
ATOM      8  C   UNL     1      47.509   2.405   6.508  0.00  0.00    +0.000 C 
ATOM      9  O   UNL     1      48.403   1.578   6.705  0.00  0.00    +0.000 OA
ATOM     10  H   UNL     1      48.269   3.041   4.736  0.00  0.00    +0.000 HD
ATOM     11  H   UNL     1      46.907   3.973   5.296  0.00  0.00    +0.000 HD
ENDBRANCH   1   8
BRANCH   4  12
ATOM     12  O   UNL     1      43.447   3.569  10.200  0.00  0.00    +0.000 OA
BRANCH  12  13
ATOM     13  C   UNL     1      43.673   3.067  11.546  0.00  0.00    +0.000 C 
BRANCH  13  14
ATOM     14  C   UNL     1      44.700   3.917  12.246  0.00  0.00    +0.000 A 
ATOM     15  C   UNL     1      45.823   3.324  12.845  0.00  0.00    +0.000 A 
ATOM     16  C   UNL     1      46.765   4.106  13.516  0.00  0.00    +0.000 A 
ATOM     17  C   UNL     1      46.587   5.485  13.604  0.00  0.00    +0.000 A 
ATOM     18  C   UNL     1      45.466   6.068  13.027  0.00  0.00    +0.000 A 
ATOM     19  F   UNL     1      45.288   7.392  13.122  0.00  0.00    +0.000 F 
ATOM     20  C   UNL     1      44.524   5.302  12.362  0.00  0.00    +0.000 A 
ENDBRANCH  13  14
ENDBRANCH  12  13
ENDBRANCH   4  12
TORSDOF 4
ENDMDL
MODEL 3
REMARK VINA RESULT:    -7.765      3.392      6.086
REMARK INTER + INTRA:         -10.066
REMARK INTER:                  -9.508
REMARK INTRA:                  -0.558
REMARK UNBOUND:                -0.486
REMARK  Name = 
REMARK  4 active torsions:
REMARK  status: ('A' for Active; 'I' for Inactive)
REMARK    1  A    between atoms: C_2  and  C_4
REMARK    2  A    between atoms: C_7  and  O_8
REMARK    3  A    between atoms: O_8  and  C_9
REMARK    4  A    between atoms: C_9  and  C_10
REMARK                            x       y       z     vdW  Elec       q    Type
REMARK                         _______ _______ _______ _____ _____    ______ ____
ROOT
ATOM      1  C   UNL     1      46.404   2.523   7.728  0.00  0.00    +0.000 A 
ATOM      2  C   UNL     1      45.587   1.801   8.583  0.00  0.00    +0.000 A 
ATOM      3  C   UNL     1      44.638   2.477   9.362  0.00  0.00    +0.000 A 
ATOM      4  C   UNL     1      44.548   3.868   9.235  0.00  0.00    +0.000 A 
ATOM      5  C   UNL     1      45.435   4.491   8.369  0.00  0.00    +0.000 A 
ATOM      6  N   UNL     1      46.354   3.882   7.603  0.00  0.00    +0.000 NA
ENDROOT
BRANCH   1   8
ATOM      7  N   UNL     1      48.498   2.569   6.462  0.00  0.00    +0.000 N 
ATOM      8  C   UNL     1      47.419   1.838   6.873  0.00  0.00    +0.000 C 
ATOM      9  O   UNL     1      47.313   0.650   6.560  0.00  0.00    +0.000 OA
ATOM     10  H   UNL     1      49.230   2.073   5.985  0.00  0.00    +0.000 HD
ATOM     11  H   UNL     1      48.711   3.457   6.908  0.00  0.00    +0.000 HD
ENDBRANCH   1   8
BRANCH   4  12
ATOM     12  O   UNL     1      43.631   4.591   9.962  0.00  0.00    +0.000 OA
BRANCH  12  13
ATOM     13  C   UNL     1      43.509   4.145  11.341  0.00  0.00    +0.000 C 
BRANCH  13  14
ATOM     14  C   UNL     1      44.691   4.621  12.142  0.00  0.00    +0.000 A 
ATOM     15  C   UNL     1      45.033   5.983  12.161  0.00  0.00    +0.000 A 
ATOM     16  C   UNL     1      46.143   6.426  12.883  0.00  0.00    +0.000 A 
ATOM     17  C   UNL     1      46.926   5.510  13.583  0.00  0.00    +0.000 A 
ATOM     18  C   UNL     1      46.597   4.161  13.549  0.00  0.00    +0.000 A 
ATOM     19  F   UNL     1      47.356   3.280  14.213  0.00  0.00    +0.000 F 
ATOM     20  C   UNL     1      45.501   3.711  12.833  0.00  0.00    +0.000 A 
ENDBRANCH  13  14
ENDBRANCH  12  13
ENDBRANCH   4  12
TORSDOF 4
ENDMDL
MODEL 4
REMARK VINA RESULT:    -7.660      1.342      1.737
REMARK INTER + INTRA:          -9.936
REMARK INTER:                  -9.526
REMARK INTRA:                  -0.410
REMARK UNBOUND:                -0.486
REMARK  Name = 
REMARK  4 active torsions:
REMARK  status: ('A' for Active; 'I' for Inactive)
REMARK    1  A    between atoms: C_2  and  C_4
REMARK    2  A    between atoms: C_7  and  O_8
REMARK    3  A    between atoms: O_8  and  C_9
REMARK    4  A    between atoms: C_9  and  C_10
REMARK                            x       y       z     vdW  Elec       q    Type
REMARK                         _______ _______ _______ _____ _____    ______ ____
ROOT
ATOM      1  C   UNL     1      46.458   5.000  13.127  0.00  0.00    +0.000 A 
ATOM      2  C   UNL     1      46.252   5.847  12.051  0.00  0.00    +0.000 A 
ATOM      3  C   UNL     1      45.480   5.407  10.966  0.00  0.00    +0.000 A 
ATOM      4  C   UNL     1      44.938   4.118  11.022  0.00  0.00    +0.000 A 
ATOM      5  C   UNL     1      45.233   3.346  12.135  0.00  0.00    +0.000 A 
ATOM      6  N   UNL     1      45.961   3.730  13.196  0.00  0.00    +0.000 NA
ENDROOT
BRANCH   1   8
ATOM      7  N   UNL     1      47.584   6.763  14.399  0.00  0.00    +0.000 N 
ATOM      8  C   UNL     1      47.264   5.438  14.307  0.00  0.00    +0.000 C 
ATOM      9  O   UNL     1      47.615   4.646  15.185  0.00  0.00    +0.000 OA
ATOM     10  H   UNL     1      48.026   7.067  15.248  0.00  0.00    +0.000 HD
ATOM     11  H   UNL     1      47.101   7.445  13.820  0.00  0.00    +0.000 HD
ENDBRANCH   1   8
BRANCH   4  12
ATOM     12  O   UNL     1      44.163   3.627   9.996  0.00  0.00    +0.000 OA
BRANCH  12  13
ATOM     13  C   UNL     1      44.568   4.113   8.686  0.00  0.00    +0.000 C 
BRANCH  13  14
ATOM     14  C   UNL     1      45.465   3.105   8.018  0.00  0.00    +0.000 A 
ATOM     15  C   UNL     1      45.621   1.821   8.567  0.00  0.00    +0.000 A 
ATOM     16  C   UNL     1      46.470   0.892   7.964  0.00  0.00    +0.000 A 
ATOM     17  C   UNL     1      47.178   1.240   6.815  0.00  0.00    +0.000 A 
ATOM     18  C   UNL     1      47.036   2.516   6.285  0.00  0.00    +0.000 A 
ATOM     19  F   UNL     1      47.725   2.854   5.187  0.00  0.00    +0.000 F 
ATOM     20  C   UNL     1      46.200   3.447   6.876  0.00  0.00    +0.000 A 
ENDBRANCH  13  14
ENDBRANCH  12  13
ENDBRANCH   4  12
TORSDOF 4
ENDMDL
MODEL 5
REMARK VINA RESULT:    -7.456      1.118      1.157
REMARK INTER + INTRA:          -9.685
REMARK INTER:                  -9.144
REMARK INTRA:                  -0.541
REMARK UNBOUND:                -0.486
REMARK  Name = 
REMARK  4 active torsions:
REMARK  status: ('A' for Active; 'I' for Inactive)
REMARK    1  A    between atoms: C_2  and  C_4
REMARK    2  A    between atoms: C_7  and  O_8
REMARK    3  A    between atoms: O_8  and  C_9
REMARK    4  A    between atoms: C_9  and  C_10
REMARK                            x       y       z     vdW  Elec       q    Type
REMARK                         _______ _______ _______ _____ _____    ______ ____
ROOT
ATOM      1  C   UNL     1      46.735   5.127  13.675  0.00  0.00    +0.000 A 
ATOM      2  C   UNL     1      45.976   5.876  12.791  0.00  0.00    +0.000 A 
ATOM      3  C   UNL     1      45.113   5.223  11.900  0.00  0.00    +0.000 A 
ATOM      4  C   UNL     1      45.048   3.826  11.948  0.00  0.00    +0.000 A 
ATOM      5  C   UNL     1      45.873   3.176  12.853  0.00  0.00    +0.000 A 
ATOM      6  N   UNL     1      46.708   3.762  13.726  0.00  0.00    +0.000 NA
ENDROOT
BRANCH   1   8
ATOM      7  N   UNL     1      47.827   7.138  14.543  0.00  0.00    +0.000 N 
ATOM      8  C   UNL     1      47.657   5.786  14.649  0.00  0.00    +0.000 C 
ATOM      9  O   UNL     1      48.233   5.150  15.534  0.00  0.00    +0.000 OA
ATOM     10  H   UNL     1      48.357   7.588  15.268  0.00  0.00    +0.000 HD
ATOM     11  H   UNL     1      47.182   7.690  13.985  0.00  0.00    +0.000 HD
ENDBRANCH   1   8
BRANCH   4  12
ATOM     12  O   UNL     1      44.213   3.124  11.109  0.00  0.00    +0.000 OA
BRANCH  12  13
ATOM     13  C   UNL     1      44.076   3.731   9.795  0.00  0.00    +0.000 C 
BRANCH  13  14
ATOM     14  C   UNL     1      45.132   3.194   8.866  0.00  0.00    +0.000 A 
ATOM     15  C   UNL     1      45.814   4.056   7.992  0.00  0.00    +0.000 A 
ATOM     16  C   UNL     1      46.777   3.558   7.113  0.00  0.00    +0.000 A 
ATOM     17  C   UNL     1      47.059   2.194   7.092  0.00  0.00    +0.000 A 
ATOM     18  C   UNL     1      46.371   1.340   7.944  0.00  0.00    +0.000 A 
ATOM     19  F   UNL     1      46.634   0.026   7.916  0.00  0.00    +0.000 F 
ATOM     20  C   UNL     1      45.412   1.822   8.818  0.00  0.00    +0.000 A 
ENDBRANCH  13  14
ENDBRANCH  12  13
ENDBRANCH   4  12
TORSDOF 4
ENDMDL
MODEL 6
REMARK VINA RESULT:    -6.613      1.735      2.407
REMARK INTER + INTRA:          -8.644
REMARK INTER:                  -8.200
REMARK INTRA:                  -0.444
REMARK UNBOUND:                -0.486
REMARK  Name = 
REMARK  4 active torsions:
REMARK  status: ('A' for Active; 'I' for Inactive)
REMARK    1  A    between atoms: C_2  and  C_4
REMARK    2  A    between atoms: C_7  and  O_8
REMARK    3  A    between atoms: O_8  and  C_9
REMARK    4  A    between atoms: C_9  and  C_10
REMARK                            x       y       z     vdW  Elec       q    Type
REMARK                         _______ _______ _______ _____ _____    ______ ____
ROOT
ATOM      1  C   UNL     1      47.204   5.391  14.403  0.00  0.00    +0.000 A 
ATOM      2  C   UNL     1      47.714   6.319  13.511  0.00  0.00    +0.000 A 
ATOM      3  C   UNL     1      47.066   6.525  12.285  0.00  0.00    +0.000 A 
ATOM      4  C   UNL     1      45.912   5.780  12.015  0.00  0.00    +0.000 A 
ATOM      5  C   UNL     1      45.508   4.858  12.968  0.00  0.00    +0.000 A 
ATOM      6  N   UNL     1      46.095   4.634  14.155  0.00  0.00    +0.000 NA
ENDROOT
BRANCH   1   8
ATOM      7  N   UNL     1      47.109   4.571  16.708  0.00  0.00    +0.000 N 
ATOM      8  C   UNL     1      47.860   5.152  15.725  0.00  0.00    +0.000 C 
ATOM      9  O   UNL     1      49.041   5.442  15.928  0.00  0.00    +0.000 OA
ATOM     10  H   UNL     1      47.587   4.312  17.552  0.00  0.00    +0.000 HD
ATOM     11  H   UNL     1      46.230   4.117  16.476  0.00  0.00    +0.000 HD
ENDBRANCH   1   8
BRANCH   4  12
ATOM     12  O   UNL     1      45.222   5.940  10.836  0.00  0.00    +0.000 OA
BRANCH  12  13
ATOM     13  C   UNL     1      44.301   4.850  10.555  0.00  0.00    +0.000 C 
BRANCH  13  14
ATOM     14  C   UNL     1      44.904   3.917   9.538  0.00  0.00    +0.000 A 
ATOM     15  C   UNL     1      44.891   2.529   9.753  0.00  0.00    +0.000 A 
ATOM     16  C   UNL     1      45.469   1.662   8.825  0.00  0.00    +0.000 A 
ATOM     17  C   UNL     1      46.075   2.175   7.679  0.00  0.00    +0.000 A 
ATOM     18  C   UNL     1      46.103   3.549   7.477  0.00  0.00    +0.000 A 
ATOM     19  F   UNL     1      46.695   4.043   6.382  0.00  0.00    +0.000 F 
ATOM     20  C   UNL     1      45.535   4.418   8.393  0.00  0.00    +0.000 A 
ENDBRANCH  13  14
ENDBRANCH  12  13
ENDBRANCH   4  12
TORSDOF 4
ENDMDL
MODEL 7
REMARK VINA RESULT:    -6.577      2.430      2.713
REMARK INTER + INTRA:          -8.601
REMARK INTER:                  -8.409
REMARK INTRA:                  -0.192
REMARK UNBOUND:                -0.486
REMARK  Name = 
REMARK  4 active torsions:
REMARK  status: ('A' for Active; 'I' for Inactive)
REMARK    1  A    between atoms: C_2  and  C_4
REMARK    2  A    between atoms: C_7  and  O_8
REMARK    3  A    between atoms: O_8  and  C_9
REMARK    4  A    between atoms: C_9  and  C_10
REMARK                            x       y       z     vdW  Elec       q    Type
REMARK                         _______ _______ _______ _____ _____    ______ ____
ROOT
ATOM      1  C   UNL     1      45.094   7.392  11.940  0.00  0.00    +0.000 A 
ATOM      2  C   UNL     1      46.083   6.679  11.283  0.00  0.00    +0.000 A 
ATOM      3  C   UNL     1      45.726   5.594  10.470  0.00  0.00    +0.000 A 
ATOM      4  C   UNL     1      44.367   5.279  10.349  0.00  0.00    +0.000 A 
ATOM      5  C   UNL     1      43.466   6.043  11.073  0.00  0.00    +0.000 A 
ATOM      6  N   UNL     1      43.765   7.092  11.857  0.00  0.00    +0.000 NA
ENDROOT
BRANCH   1   8
ATOM      7  N   UNL     1      44.650   9.676  12.700  0.00  0.00    +0.000 N 
ATOM      8  C   UNL     1      45.434   8.562  12.805  0.00  0.00    +0.000 C 
ATOM      9  O   UNL     1      46.372   8.529  13.605  0.00  0.00    +0.000 OA
ATOM     10  H   UNL     1      44.814  10.412  13.363  0.00  0.00    +0.000 HD
ATOM     11  H   UNL     1      43.750   9.623  12.231  0.00  0.00    +0.000 HD
ENDBRANCH   1   8
BRANCH   4  12
ATOM     12  O   UNL     1      43.947   4.234   9.559  0.00  0.00    +0.000 OA
BRANCH  12  13
ATOM     13  C   UNL     1      44.612   2.978   9.866  0.00  0.00    +0.000 C 
BRANCH  13  14
ATOM     14  C   UNL     1      45.489   2.564   8.715  0.00  0.00    +0.000 A 
ATOM     15  C   UNL     1      45.906   3.510   7.765  0.00  0.00    +0.000 A 
ATOM     16  C   UNL     1      46.699   3.126   6.682  0.00  0.00    +0.000 A 
ATOM     17  C   UNL     1      47.072   1.792   6.533  0.00  0.00    +0.000 A 
ATOM     18  C   UNL     1      46.643   0.854   7.463  0.00  0.00    +0.000 A 
ATOM     19  F   UNL     1      46.993  -0.431   7.314  0.00  0.00    +0.000 F 
ATOM     20  C   UNL     1      45.854   1.223   8.539  0.00  0.00    +0.000 A 
ENDBRANCH  13  14
ENDBRANCH  12  13
ENDBRANCH   4  12
TORSDOF 4
ENDMDL
MODEL 8
REMARK VINA RESULT:    -6.538      2.506      3.055
REMARK INTER + INTRA:          -8.552
REMARK INTER:                  -8.041
REMARK INTRA:                  -0.511
REMARK UNBOUND:                -0.486
REMARK  Name = 
REMARK  4 active torsions:
REMARK  status: ('A' for Active; 'I' for Inactive)
REMARK    1  A    between atoms: C_2  and  C_4
REMARK    2  A    between atoms: C_7  and  O_8
REMARK    3  A    between atoms: O_8  and  C_9
REMARK    4  A    between atoms: C_9  and  C_10
REMARK                            x       y       z     vdW  Elec       q    Type
REMARK                         _______ _______ _______ _____ _____    ______ ____
ROOT
ATOM      1  C   UNL     1      46.545   7.367  13.026  0.00  0.00    +0.000 A 
ATOM      2  C   UNL     1      47.009   6.085  13.269  0.00  0.00    +0.000 A 
ATOM      3  C   UNL     1      46.256   4.986  12.831  0.00  0.00    +0.000 A 
ATOM      4  C   UNL     1      45.057   5.236  12.152  0.00  0.00    +0.000 A 
ATOM      5  C   UNL     1      44.676   6.558  11.990  0.00  0.00    +0.000 A 
ATOM      6  N   UNL     1      45.369   7.638  12.388  0.00  0.00    +0.000 NA
ENDROOT
BRANCH   1   8
ATOM      7  N   UNL     1      47.178   8.973  14.762  0.00  0.00    +0.000 N 
ATOM      8  C   UNL     1      47.325   8.563  13.467  0.00  0.00    +0.000 C 
ATOM      9  O   UNL     1      48.094   9.156  12.706  0.00  0.00    +0.000 OA
ATOM     10  H   UNL     1      47.788   9.705  15.080  0.00  0.00    +0.000 HD
ATOM     11  H   UNL     1      46.744   8.358  15.444  0.00  0.00    +0.000 HD
ENDBRANCH   1   8
BRANCH   4  12
ATOM     12  O   UNL     1      44.276   4.203  11.686  0.00  0.00    +0.000 OA
BRANCH  12  13
ATOM     13  C   UNL     1      43.818   4.399  10.320  0.00  0.00    +0.000 C 
BRANCH  13  14
ATOM     14  C   UNL     1      44.705   3.644   9.366  0.00  0.00    +0.000 A 
ATOM     15  C   UNL     1      44.849   2.252   9.483  0.00  0.00    +0.000 A 
ATOM     16  C   UNL     1      45.690   1.552   8.615  0.00  0.00    +0.000 A 
ATOM     17  C   UNL     1      46.402   2.237   7.633  0.00  0.00    +0.000 A 
ATOM     18  C   UNL     1      46.272   3.616   7.532  0.00  0.00    +0.000 A 
ATOM     19  F   UNL     1      46.965   4.277   6.595  0.00  0.00    +0.000 F 
ATOM     20  C   UNL     1      45.444   4.321   8.388  0.00  0.00    +0.000 A 
ENDBRANCH  13  14
ENDBRANCH  12  13
ENDBRANCH   4  12
TORSDOF 4
ENDMDL
MODEL 9
REMARK VINA RESULT:    -5.508      4.228      5.896
REMARK INTER + INTRA:          -7.281
REMARK INTER:                  -6.861
REMARK INTRA:                  -0.420
REMARK UNBOUND:                -0.486
REMARK  Name = 
REMARK  4 active torsions:
REMARK  status: ('A' for Active; 'I' for Inactive)
REMARK    1  A    between atoms: C_2  and  C_4
REMARK    2  A    between atoms: C_7  and  O_8
REMARK    3  A    between atoms: O_8  and  C_9
REMARK    4  A    between atoms: C_9  and  C_10
REMARK                            x       y       z     vdW  Elec       q    Type
REMARK                         _______ _______ _______ _____ _____    ______ ____
ROOT
ATOM      1  C   UNL     1      48.134   4.903  18.191  0.00  0.00    +0.000 A 
ATOM      2  C   UNL     1      47.389   3.826  17.740  0.00  0.00    +0.000 A 
ATOM      3  C   UNL     1      47.138   3.688  16.368  0.00  0.00    +0.000 A 
ATOM      4  C   UNL     1      47.665   4.652  15.500  0.00  0.00    +0.000 A 
ATOM      5  C   UNL     1      48.371   5.704  16.064  0.00  0.00    +0.000 A 
ATOM      6  N   UNL     1      48.638   5.870  17.369  0.00  0.00    +0.000 NA
ENDROOT
BRANCH   1   8
ATOM      7  N   UNL     1      48.589   3.949  20.399  0.00  0.00    +0.000 N 
ATOM      8  C   UNL     1      48.432   5.078  19.645  0.00  0.00    +0.000 C 
ATOM      9  O   UNL     1      48.558   6.193  20.154  0.00  0.00    +0.000 OA
ATOM     10  H   UNL     1      48.900   4.073  21.345  0.00  0.00    +0.000 HD
ATOM     11  H   UNL     1      48.726   3.049  19.946  0.00  0.00    +0.000 HD
ENDBRANCH   1   8
BRANCH   4  12
ATOM     12  O   UNL     1      47.465   4.571  14.141  0.00  0.00    +0.000 OA
BRANCH  12  13
ATOM     13  C   UNL     1      46.580   5.604  13.627  0.00  0.00    +0.000 C 
BRANCH  13  14
ATOM     14  C   UNL     1      45.374   4.974  12.982  0.00  0.00    +0.000 A 
ATOM     15  C   UNL     1      45.437   3.658  12.494  0.00  0.00    +0.000 A 
ATOM     16  C   UNL     1      44.328   3.079  11.873  0.00  0.00    +0.000 A 
ATOM     17  C   UNL     1      43.153   3.812  11.726  0.00  0.00    +0.000 A 
ATOM     18  C   UNL     1      43.098   5.119  12.193  0.00  0.00    +0.000 A 
ATOM     19  F   UNL     1      41.972   5.828  12.041  0.00  0.00    +0.000 F 
ATOM     20  C   UNL     1      44.192   5.705  12.807  0.00  0.00    +0.000 A 
ENDBRANCH  13  14
ENDBRANCH  12  13
ENDBRANCH   4  12
TORSDOF 4
ENDMDL
