MODEL 1
REMARK VINA RESULT:    -8.378      0.000      0.000
REMARK INTER + INTRA:         -10.813
REMARK INTER:                 -10.338
REMARK INTRA:                  -0.476
REMARK UNBOUND:                -0.476
REMARK  Name = 
REMARK  4 active torsions:
REMARK  status: ('A' for Active; 'I' for Inactive)
REMARK    1  A    between atoms: C_2  and  C_3
REMARK    2  A    between atoms: C_6  and  C_7
REMARK    3  A    between atoms: C_7  and  N_8
REMARK    4  A    between atoms: C_13  and  C_14
REMARK                            x       y       z     vdW  Elec       q    Type
REMARK                         _______ _______ _______ _____ _____    ______ ____
ROOT
ATOM      1  N   UNL     1      44.226   4.347  11.237  0.00  0.00    +0.000 N 
ATOM      2  C   UNL     1      43.884   3.481  12.243  0.00  0.00    +0.000 A 
ATOM      3  N   UNL     1      44.580   3.706  13.335  0.00  0.00    +0.000 NA
ATOM      4  C   UNL     1      45.418   4.748  13.022  0.00  0.00    +0.000 A 
ATOM      5  C   UNL     1      46.408   5.355  13.813  0.00  0.00    +0.000 A 
ATOM      6  C   UNL     1      47.164   6.402  13.262  0.00  0.00    +0.000 A 
ATOM      7  C   UNL     1      46.911   6.832  11.948  0.00  0.00    +0.000 A 
ATOM      8  C   UNL     1      45.926   6.240  11.150  0.00  0.00    +0.000 A 
ATOM      9  C   UNL     1      45.206   5.186  11.720  0.00  0.00    +0.000 A 
ENDROOT
BRANCH   6  10
ATOM     10  C   UNL     1      48.254   7.092  14.010  0.00  0.00    +0.000 C 
ATOM     11  N   UNL     1      47.927   8.100  14.870  0.00  0.00    +0.000 N 
ATOM     12  O   UNL     1      49.428   6.770  13.866  0.00  0.00    +0.000 OA
ATOM     13  H   UNL     1      46.995   8.443  15.045  0.00  0.00    +0.000 HD
ATOM     14  H   UNL     1      48.693   8.552  15.352  0.00  0.00    +0.000 HD
ENDBRANCH   6  10
BRANCH   1  15
ATOM     15  C   UNL     1      43.755   4.264   9.866  0.00  0.00    +0.000 C 
BRANCH  15  19
ATOM     16  C   UNL     1      46.668   2.528   7.279  0.00  0.00    +0.000 A 
ATOM     17  C   UNL     1      46.012   1.700   8.187  0.00  0.00    +0.000 A 
ATOM     18  C   UNL     1      45.032   2.238   9.022  0.00  0.00    +0.000 A 
ATOM     19  C   UNL     1      44.755   3.604   8.952  0.00  0.00    +0.000 A 
ATOM     20  N   UNL     1      45.366   4.413   8.048  0.00  0.00    +0.000 NA
ATOM     21  C   UNL     1      46.299   3.861   7.232  0.00  0.00    +0.000 A 
BRANCH  16  23
ATOM     22  N   UNL     1      48.546   1.629   5.742  0.00  0.00    +0.000 NA
ATOM     23  C   UNL     1      47.701   2.031   6.431  0.00  0.00    +0.000 C 
ENDBRANCH  16  23
ENDBRANCH  15  19
ENDBRANCH   1  15
TORSDOF 4
ENDMDL
MODEL 2
REMARK VINA RESULT:    -7.567      2.566      6.573
REMARK INTER + INTRA:          -9.813
REMARK INTER:                  -9.409
REMARK INTRA:                  -0.404
REMARK UNBOUND:                -0.476
REMARK  Name = 
REMARK  4 active torsions:
REMARK  status: ('A' for Active; 'I' for Inactive)
REMARK    1  A    between atoms: C_2  and  C_3
REMARK    2  A    between atoms: C_6  and  C_7
REMARK    3  A    between atoms: C_7  and  N_8
REMARK    4  A    between atoms: C_13  and  C_14
REMARK                            x       y       z     vdW  Elec       q    Type
REMARK                         _______ _______ _______ _____ _____    ______ ____
ROOT
ATOM      1  N   UNL     1      43.899   4.332  10.549  0.00  0.00    +0.000 N 
ATOM      2  C   UNL     1      43.373   3.195  11.102  0.00  0.00    +0.000 A 
ATOM      3  N   UNL     1      43.893   2.111  10.572  0.00  0.00    +0.000 NA
ATOM      4  C   UNL     1      44.781   2.561   9.627  0.00  0.00    +0.000 A 
ATOM      5  C   UNL     1      45.573   1.820   8.733  0.00  0.00    +0.000 A 
ATOM      6  C   UNL     1      46.398   2.510   7.831  0.00  0.00    +0.000 A 
ATOM      7  C   UNL     1      46.430   3.915   7.845  0.00  0.00    +0.000 A 
ATOM      8  C   UNL     1      45.650   4.666   8.731  0.00  0.00    +0.000 A 
ATOM      9  C   UNL     1      44.823   3.950   9.601  0.00  0.00    +0.000 A 
ENDROOT
BRANCH   6  10
ATOM     10  C   UNL     1      47.255   1.816   6.826  0.00  0.00    +0.000 C 
ATOM     11  N   UNL     1      48.286   2.503   6.254  0.00  0.00    +0.000 N 
ATOM     12  O   UNL     1      47.049   0.650   6.510  0.00  0.00    +0.000 OA
ATOM     13  H   UNL     1      48.525   3.464   6.440  0.00  0.00    +0.000 HD
ATOM     14  H   UNL     1      48.839   2.004   5.569  0.00  0.00    +0.000 HD
ENDBRANCH   6  10
BRANCH   1  15
ATOM     15  C   UNL     1      43.429   5.682  10.804  0.00  0.00    +0.000 C 
BRANCH  15  19
ATOM     16  C   UNL     1      46.339   7.876  13.020  0.00  0.00    +0.000 A 
ATOM     17  C   UNL     1      45.532   8.568  12.120  0.00  0.00    +0.000 A 
ATOM     18  C   UNL     1      44.551   7.878  11.407  0.00  0.00    +0.000 A 
ATOM     19  C   UNL     1      44.423   6.501  11.587  0.00  0.00    +0.000 A 
ATOM     20  N   UNL     1      45.182   5.823  12.486  0.00  0.00    +0.000 NA
ATOM     21  C   UNL     1      46.114   6.520  13.183  0.00  0.00    +0.000 A 
BRANCH  16  23
ATOM     22  N   UNL     1      48.221   9.064  14.340  0.00  0.00    +0.000 NA
ATOM     23  C   UNL     1      47.377   8.531  13.744  0.00  0.00    +0.000 C 
ENDBRANCH  16  23
ENDBRANCH  15  19
ENDBRANCH   1  15
TORSDOF 4
ENDMDL
MODEL 3
REMARK VINA RESULT:    -6.958      1.336      1.730
REMARK INTER + INTRA:          -9.061
REMARK INTER:                  -8.572
REMARK INTRA:                  -0.489
REMARK UNBOUND:                -0.476
REMARK  Name = 
REMARK  4 active torsions:
REMARK  status: ('A' for Active; 'I' for Inactive)
REMARK    1  A    between atoms: C_2  and  C_3
REMARK    2  A    between atoms: C_6  and  C_7
REMARK    3  A    between atoms: C_7  and  N_8
REMARK    4  A    between atoms: C_13  and  C_14
REMARK                            x       y       z     vdW  Elec       q    Type
REMARK                         _______ _______ _______ _____ _____    ______ ____
ROOT
ATOM      1  N   UNL     1      45.000   5.068  12.046  0.00  0.00    +0.000 N 
ATOM      2  C   UNL     1      44.841   4.294  13.166  0.00  0.00    +0.000 A 
ATOM      3  N   UNL     1      45.769   4.542  14.063  0.00  0.00    +0.000 NA
ATOM      4  C   UNL     1      46.571   5.503  13.498  0.00  0.00    +0.000 A 
ATOM      5  C   UNL     1      47.740   6.092  14.008  0.00  0.00    +0.000 A 
ATOM      6  C   UNL     1      48.410   7.048  13.229  0.00  0.00    +0.000 A 
ATOM      7  C   UNL     1      47.899   7.408  11.970  0.00  0.00    +0.000 A 
ATOM      8  C   UNL     1      46.734   6.833  11.450  0.00  0.00    +0.000 A 
ATOM      9  C   UNL     1      46.103   5.869  12.241  0.00  0.00    +0.000 A 
ENDROOT
BRANCH   6  10
ATOM     10  C   UNL     1      49.671   7.710  13.669  0.00  0.00    +0.000 C 
ATOM     11  N   UNL     1      50.363   7.177  14.719  0.00  0.00    +0.000 N 
ATOM     12  O   UNL     1      50.093   8.715  13.109  0.00  0.00    +0.000 OA
ATOM     13  H   UNL     1      50.091   6.364  15.248  0.00  0.00    +0.000 HD
ATOM     14  H   UNL     1      51.208   7.659  14.997  0.00  0.00    +0.000 HD
ENDBRANCH   6  10
BRANCH   1  15
ATOM     15  C   UNL     1      44.237   4.928  10.819  0.00  0.00    +0.000 C 
BRANCH  15  19
ATOM     16  C   UNL     1      46.226   2.599   7.850  0.00  0.00    +0.000 A 
ATOM     17  C   UNL     1      46.296   3.988   7.759  0.00  0.00    +0.000 A 
ATOM     18  C   UNL     1      45.681   4.771   8.736  0.00  0.00    +0.000 A 
ATOM     19  C   UNL     1      44.978   4.145   9.766  0.00  0.00    +0.000 A 
ATOM     20  N   UNL     1      44.933   2.792   9.882  0.00  0.00    +0.000 NA
ATOM     21  C   UNL     1      45.558   2.053   8.932  0.00  0.00    +0.000 A 
BRANCH  16  23
ATOM     22  N   UNL     1      47.281   1.068   6.050  0.00  0.00    +0.000 NA
ATOM     23  C   UNL     1      46.809   1.758   6.857  0.00  0.00    +0.000 C 
ENDBRANCH  16  23
ENDBRANCH  15  19
ENDBRANCH   1  15
TORSDOF 4
ENDMDL
MODEL 4
REMARK VINA RESULT:    -5.770      3.510      6.607
REMARK INTER + INTRA:          -7.595
REMARK INTER:                  -7.096
REMARK INTRA:                  -0.499
REMARK UNBOUND:                -0.476
REMARK  Name = 
REMARK  4 active torsions:
REMARK  status: ('A' for Active; 'I' for Inactive)
REMARK    1  A    between atoms: C_2  and  C_3
REMARK    2  A    between atoms: C_6  and  C_7
REMARK    3  A    between atoms: C_7  and  N_8
REMARK    4  A    between atoms: C_13  and  C_14
REMARK                            x       y       z     vdW  Elec       q    Type
REMARK                         _______ _______ _______ _____ _____    ______ ____
ROOT
ATOM      1  N   UNL     1      46.155   7.704  12.874  0.00  0.00    +0.000 N 
ATOM      2  C   UNL     1      45.391   8.543  12.106  0.00  0.00    +0.000 A 
ATOM      3  N   UNL     1      44.515   7.879  11.386  0.00  0.00    +0.000 NA
ATOM      4  C   UNL     1      44.728   6.557  11.685  0.00  0.00    +0.000 A 
ATOM      5  C   UNL     1      44.097   5.417  11.158  0.00  0.00    +0.000 A 
ATOM      6  C   UNL     1      44.504   4.151  11.608  0.00  0.00    +0.000 A 
ATOM      7  C   UNL     1      45.514   4.044  12.579  0.00  0.00    +0.000 A 
ATOM      8  C   UNL     1      46.149   5.170  13.117  0.00  0.00    +0.000 A 
ATOM      9  C   UNL     1      45.736   6.414  12.632  0.00  0.00    +0.000 A 
ENDROOT
BRANCH   6  10
ATOM     10  C   UNL     1      43.916   2.882  11.091  0.00  0.00    +0.000 C 
ATOM     11  N   UNL     1      44.471   2.301   9.987  0.00  0.00    +0.000 N 
ATOM     12  O   UNL     1      42.952   2.357  11.637  0.00  0.00    +0.000 OA
ATOM     13  H   UNL     1      45.253   2.662   9.465  0.00  0.00    +0.000 HD
ATOM     14  H   UNL     1      44.039   1.447   9.658  0.00  0.00    +0.000 HD
ENDBRANCH   6  10
BRANCH   1  15
ATOM     15  C   UNL     1      47.307   8.107  13.660  0.00  0.00    +0.000 C 
BRANCH  15  19
ATOM     16  C   UNL     1      50.760   9.049  11.340  0.00  0.00    +0.000 A 
ATOM     17  C   UNL     1      50.349   7.719  11.406  0.00  0.00    +0.000 A 
ATOM     18  C   UNL     1      49.204   7.390  12.132  0.00  0.00    +0.000 A 
ATOM     19  C   UNL     1      48.514   8.399  12.806  0.00  0.00    +0.000 A 
ATOM     20  N   UNL     1      48.887   9.702  12.720  0.00  0.00    +0.000 NA
ATOM     21  C   UNL     1      49.991   9.998  11.990  0.00  0.00    +0.000 A 
BRANCH  16  23
ATOM     22  N   UNL     1      52.904   9.736  10.065  0.00  0.00    +0.000 NA
ATOM     23  C   UNL     1      51.942   9.429  10.640  0.00  0.00    +0.000 C 
ENDBRANCH  16  23
ENDBRANCH  15  19
ENDBRANCH   1  15
TORSDOF 4
ENDMDL
MODEL 5
REMARK VINA RESULT:    -5.746      3.488      6.758
REMARK INTER + INTRA:          -7.565
REMARK INTER:                  -7.089
REMARK INTRA:                  -0.476
REMARK UNBOUND:                -0.476
REMARK  Name = 
REMARK  4 active torsions:
REMARK  status: ('A' for Active; 'I' for Inactive)
REMARK    1  A    between atoms: C_2  and  C_3
REMARK    2  A    between atoms: C_6  and  C_7
REMARK    3  A    between atoms: C_7  and  N_8
REMARK    4  A    between atoms: C_13  and  C_14
REMARK                            x       y       z     vdW  Elec       q    Type
REMARK                         _______ _______ _______ _____ _____    ______ ____
ROOT
ATOM      1  N   UNL     1      47.514   6.636  13.365  0.00  0.00    +0.000 N 
ATOM      2  C   UNL     1      47.820   5.887  14.471  0.00  0.00    +0.000 A 
ATOM      3  N   UNL     1      47.240   4.709  14.434  0.00  0.00    +0.000 NA
ATOM      4  C   UNL     1      46.517   4.697  13.267  0.00  0.00    +0.000 A 
ATOM      5  C   UNL     1      45.670   3.697  12.760  0.00  0.00    +0.000 A 
ATOM      6  C   UNL     1      45.011   3.923  11.541  0.00  0.00    +0.000 A 
ATOM      7  C   UNL     1      45.218   5.128  10.847  0.00  0.00    +0.000 A 
ATOM      8  C   UNL     1      46.061   6.132  11.337  0.00  0.00    +0.000 A 
ATOM      9  C   UNL     1      46.684   5.885  12.563  0.00  0.00    +0.000 A 
ENDROOT
BRANCH   6  10
ATOM     10  C   UNL     1      44.073   2.936  10.934  0.00  0.00    +0.000 C 
ATOM     11  N   UNL     1      44.490   2.206   9.859  0.00  0.00    +0.000 N 
ATOM     12  O   UNL     1      42.944   2.772  11.382  0.00  0.00    +0.000 OA
ATOM     13  H   UNL     1      45.391   2.279   9.414  0.00  0.00    +0.000 HD
ATOM     14  H   UNL     1      43.823   1.554   9.466  0.00  0.00    +0.000 HD
ENDBRANCH   6  10
BRANCH   1  15
ATOM     15  C   UNL     1      47.869   8.032  13.176  0.00  0.00    +0.000 C 
BRANCH  15  19
ATOM     16  C   UNL     1      51.929   8.508  11.956  0.00  0.00    +0.000 A 
ATOM     17  C   UNL     1      51.040   7.897  11.074  0.00  0.00    +0.000 A 
ATOM     18  C   UNL     1      49.699   7.759  11.437  0.00  0.00    +0.000 A 
ATOM     19  C   UNL     1      49.286   8.206  12.693  0.00  0.00    +0.000 A 
ATOM     20  N   UNL     1      50.138   8.832  13.546  0.00  0.00    +0.000 NA
ATOM     21  C   UNL     1      51.431   8.974  13.160  0.00  0.00    +0.000 A 
BRANCH  16  23
ATOM     22  N   UNL     1      54.443   8.743  11.391  0.00  0.00    +0.000 NA
ATOM     23  C   UNL     1      53.313   8.640  11.644  0.00  0.00    +0.000 C 
ENDBRANCH  16  23
ENDBRANCH  15  19
ENDBRANCH   1  15
TORSDOF 4
ENDMDL
MODEL 6
REMARK VINA RESULT:    -5.509      3.951      8.221
REMARK INTER + INTRA:          -7.273
REMARK INTER:                  -6.795
REMARK INTRA:                  -0.478
REMARK UNBOUND:                -0.476
REMARK  Name = 
REMARK  4 active torsions:
REMARK  status: ('A' for Active; 'I' for Inactive)
REMARK    1  A    between atoms: C_2  and  C_3
REMARK    2  A    between atoms: C_6  and  C_7
REMARK    3  A    between atoms: C_7  and  N_8
REMARK    4  A    between atoms: C_13  and  C_14
REMARK                            x       y       z     vdW  Elec       q    Type
REMARK                         _______ _______ _______ _____ _____    ______ ____
ROOT
ATOM      1  N   UNL     1      47.667   7.300  13.381  0.00  0.00    +0.000 N 
ATOM      2  C   UNL     1      47.058   8.398  12.833  0.00  0.00    +0.000 A 
ATOM      3  N   UNL     1      45.902   8.090  12.288  0.00  0.00    +0.000 NA
ATOM      4  C   UNL     1      45.762   6.737  12.476  0.00  0.00    +0.000 A 
ATOM      5  C   UNL     1      44.730   5.886  12.046  0.00  0.00    +0.000 A 
ATOM      6  C   UNL     1      44.817   4.516  12.342  0.00  0.00    +0.000 A 
ATOM      7  C   UNL     1      45.916   4.025  13.069  0.00  0.00    +0.000 A 
ATOM      8  C   UNL     1      46.949   4.861  13.507  0.00  0.00    +0.000 A 
ATOM      9  C   UNL     1      46.844   6.215  13.178  0.00  0.00    +0.000 A 
ENDROOT
BRANCH   6  10
ATOM     10  C   UNL     1      43.789   3.528  11.907  0.00  0.00    +0.000 C 
ATOM     11  N   UNL     1      43.769   2.296  12.495  0.00  0.00    +0.000 N 
ATOM     12  O   UNL     1      42.969   3.804  11.039  0.00  0.00    +0.000 OA
ATOM     13  H   UNL     1      44.406   1.975  13.205  0.00  0.00    +0.000 HD
ATOM     14  H   UNL     1      43.064   1.648  12.167  0.00  0.00    +0.000 HD
ENDBRANCH   6  10
BRANCH   1  15
ATOM     15  C   UNL     1      49.016   7.274  13.920  0.00  0.00    +0.000 C 
BRANCH  15  19
ATOM     16  C   UNL     1      49.194   6.741  18.148  0.00  0.00    +0.000 A 
ATOM     17  C   UNL     1      48.738   7.961  17.653  0.00  0.00    +0.000 A 
ATOM     18  C   UNL     1      48.640   8.148  16.274  0.00  0.00    +0.000 A 
ATOM     19  C   UNL     1      49.035   7.119  15.419  0.00  0.00    +0.000 A 
ATOM     20  N   UNL     1      49.449   5.914  15.891  0.00  0.00    +0.000 NA
ATOM     21  C   UNL     1      49.514   5.750  17.236  0.00  0.00    +0.000 A 
BRANCH  16  23
ATOM     22  N   UNL     1      49.470   6.327  20.687  0.00  0.00    +0.000 NA
ATOM     23  C   UNL     1      49.344   6.515  19.548  0.00  0.00    +0.000 C 
ENDBRANCH  16  23
ENDBRANCH  15  19
ENDBRANCH   1  15
TORSDOF 4
ENDMDL
