MODEL 1
REMARK VINA RESULT:    -8.157      0.000      0.000
REMARK INTER + INTRA:         -10.250
REMARK INTER:                 -10.065
REMARK INTRA:                  -0.186
REMARK UNBOUND:                -0.186
REMARK  Name = 
REMARK  5 active torsions:
REMARK  status: ('A' for Active; 'I' for Inactive)
REMARK    1  A    between atoms: C_1  and  C_2
REMARK    2  A    between atoms: C_4  and  C_5
REMARK    3  A    between atoms: C_10  and  C_11
REMARK    4  A    between atoms: C_11  and  C_12
REMARK    5  A    between atoms: C_15  and  C_16
REMARK                            x       y       z     vdW  Elec       q    Type
REMARK                         _______ _______ _______ _____ _____    ______ ____
ROOT
ATOM      1  C   UNL     1      44.323   4.750  11.194  0.00  0.00    +0.000 C 
ATOM      2  C   UNL     1      42.846   5.063  10.993  0.00  0.00    +0.000 C 
ATOM      3  C   UNL     1      43.222   4.029  11.992  0.00  0.00    +0.000 C 
ENDROOT
BRANCH   1  10
ATOM      4  C   UNL     1      44.916   7.835  11.457  0.00  0.00    +0.000 C 
ATOM      5  C   UNL     1      45.681   6.772  12.179  0.00  0.00    +0.000 A 
ATOM      6  C   UNL     1      46.817   7.141  12.931  0.00  0.00    +0.000 A 
ATOM      7  C   UNL     1      47.564   6.188  13.628  0.00  0.00    +0.000 A 
ATOM      8  C   UNL     1      47.099   4.900  13.608  0.00  0.00    +0.000 A 
ATOM      9  N   UNL     1      46.021   4.505  12.897  0.00  0.00    +0.000 NA
ATOM     10  C   UNL     1      45.338   5.409  12.135  0.00  0.00    +0.000 A 
BRANCH   7  11
ATOM     11  C   UNL     1      48.807   6.591  14.328  0.00  0.00    +0.000 C 
ATOM     12  N   UNL     1      49.734   7.346  13.664  0.00  0.00    +0.000 N 
ATOM     13  O   UNL     1      49.006   6.272  15.499  0.00  0.00    +0.000 OA
ATOM     14  H   UNL     1      49.649   7.705  12.725  0.00  0.00    +0.000 HD
ATOM     15  H   UNL     1      50.543   7.641  14.197  0.00  0.00    +0.000 HD
ENDBRANCH   7  11
ENDBRANCH   1  10
BRANCH   1  16
ATOM     16  C   UNL     1      44.982   4.085   9.981  0.00  0.00    +0.000 A 
ATOM     17  C   UNL     1      45.041   2.697   9.812  0.00  0.00    +0.000 A 
ATOM     18  C   UNL     1      45.661   2.136   8.696  0.00  0.00    +0.000 A 
ATOM     19  C   UNL     1      46.233   2.974   7.739  0.00  0.00    +0.000 A 
ATOM     20  N   UNL     1      46.225   4.329   7.889  0.00  0.00    +0.000 NA
ATOM     21  C   UNL     1      45.616   4.836   8.989  0.00  0.00    +0.000 A 
BRANCH  19  22
ATOM     22  C   UNL     1      46.867   2.374   6.491  0.00  0.00    +0.000 C 
ATOM     23  F   UNL     1      48.194   2.682   6.359  0.00  0.00    +0.000 F 
ATOM     24  F   UNL     1      46.814   1.010   6.469  0.00  0.00    +0.000 F 
ATOM     25  F   UNL     1      46.283   2.793   5.331  0.00  0.00    +0.000 F 
ENDBRANCH  19  22
ENDBRANCH   1  16
TORSDOF 4
ENDMDL
MODEL 2
REMARK VINA RESULT:    -7.764      1.374      2.027
REMARK INTER + INTRA:          -9.765
REMARK INTER:                  -9.814
REMARK INTRA:                   0.048
REMARK UNBOUND:                -0.186
REMARK  Name = 
REMARK  5 active torsions:
REMARK  status: ('A' for Active; 'I' for Inactive)
REMARK    1  A    between atoms: C_1  and  C_2
REMARK    2  A    between atoms: C_4  and  C_5
REMARK    3  A    between atoms: C_10  and  C_11
REMARK    4  A    between atoms: C_11  and  C_12
REMARK    5  A    between atoms: C_15  and  C_16
REMARK                            x       y       z     vdW  Elec       q    Type
REMARK                         _______ _______ _______ _____ _____    ______ ____
ROOT
ATOM      1  C   UNL     1      44.581   4.988  11.070  0.00  0.00    +0.000 C 
ATOM      2  C   UNL     1      43.075   5.197  10.991  0.00  0.00    +0.000 C 
ATOM      3  C   UNL     1      43.613   4.317  12.060  0.00  0.00    +0.000 C 
ENDROOT
BRANCH   1  10
ATOM      4  C   UNL     1      46.594   3.927  13.253  0.00  0.00    +0.000 C 
ATOM      5  C   UNL     1      46.465   5.365  12.864  0.00  0.00    +0.000 A 
ATOM      6  C   UNL     1      47.189   6.336  13.588  0.00  0.00    +0.000 A 
ATOM      7  C   UNL     1      47.108   7.693  13.261  0.00  0.00    +0.000 A 
ATOM      8  C   UNL     1      46.358   8.022  12.165  0.00  0.00    +0.000 A 
ATOM      9  N   UNL     1      45.646   7.125  11.448  0.00  0.00    +0.000 NA
ATOM     10  C   UNL     1      45.640   5.810  11.815  0.00  0.00    +0.000 A 
BRANCH   7  11
ATOM     11  C   UNL     1      47.802   8.697  14.101  0.00  0.00    +0.000 C 
ATOM     12  N   UNL     1      47.321   8.971  15.352  0.00  0.00    +0.000 N 
ATOM     13  O   UNL     1      48.811   9.272  13.698  0.00  0.00    +0.000 OA
ATOM     14  H   UNL     1      46.537   8.523  15.801  0.00  0.00    +0.000 HD
ATOM     15  H   UNL     1      47.856   9.626  15.910  0.00  0.00    +0.000 HD
ENDBRANCH   7  11
ENDBRANCH   1  10
BRANCH   1  16
ATOM     16  C   UNL     1      45.160   4.212   9.882  0.00  0.00    +0.000 A 
ATOM     17  C   UNL     1      45.112   2.817   9.789  0.00  0.00    +0.000 A 
ATOM     18  C   UNL     1      45.661   2.152   8.692  0.00  0.00    +0.000 A 
ATOM     19  C   UNL     1      46.269   2.893   7.679  0.00  0.00    +0.000 A 
ATOM     20  N   UNL     1      46.364   4.250   7.754  0.00  0.00    +0.000 NA
ATOM     21  C   UNL     1      45.822   4.859   8.838  0.00  0.00    +0.000 A 
BRANCH  19  22
ATOM     22  C   UNL     1      46.826   2.182   6.452  0.00  0.00    +0.000 C 
ATOM     23  F   UNL     1      46.180   2.520   5.294  0.00  0.00    +0.000 F 
ATOM     24  F   UNL     1      48.141   2.465   6.223  0.00  0.00    +0.000 F 
ATOM     25  F   UNL     1      46.740   0.823   6.529  0.00  0.00    +0.000 F 
ENDBRANCH  19  22
ENDBRANCH   1  16
TORSDOF 4
ENDMDL
MODEL 3
REMARK VINA RESULT:    -7.254      4.214      6.804
REMARK INTER + INTRA:          -9.137
REMARK INTER:                  -9.093
REMARK INTRA:                  -0.044
REMARK UNBOUND:                -0.186
REMARK  Name = 
REMARK  5 active torsions:
REMARK  status: ('A' for Active; 'I' for Inactive)
REMARK    1  A    between atoms: C_1  and  C_2
REMARK    2  A    between atoms: C_4  and  C_5
REMARK    3  A    between atoms: C_10  and  C_11
REMARK    4  A    between atoms: C_11  and  C_12
REMARK    5  A    between atoms: C_15  and  C_16
REMARK                            x       y       z     vdW  Elec       q    Type
REMARK                         _______ _______ _______ _____ _____    ______ ____
ROOT
ATOM      1  C   UNL     1      44.485   4.836  10.892  0.00  0.00    +0.000 C 
ATOM      2  C   UNL     1      43.157   4.664  11.618  0.00  0.00    +0.000 C 
ATOM      3  C   UNL     1      43.246   5.674  10.532  0.00  0.00    +0.000 C 
ENDROOT
BRANCH   1  10
ATOM      4  C   UNL     1      44.101   1.783  10.209  0.00  0.00    +0.000 C 
ATOM      5  C   UNL     1      44.946   2.719   9.406  0.00  0.00    +0.000 A 
ATOM      6  C   UNL     1      45.723   2.200   8.348  0.00  0.00    +0.000 A 
ATOM      7  C   UNL     1      46.526   3.032   7.563  0.00  0.00    +0.000 A 
ATOM      8  C   UNL     1      46.463   4.376   7.821  0.00  0.00    +0.000 A 
ATOM      9  N   UNL     1      45.738   4.912   8.826  0.00  0.00    +0.000 NA
ATOM     10  C   UNL     1      45.024   4.100   9.660  0.00  0.00    +0.000 A 
BRANCH   7  11
ATOM     11  C   UNL     1      47.406   2.445   6.525  0.00  0.00    +0.000 C 
ATOM     12  N   UNL     1      47.506   3.060   5.308  0.00  0.00    +0.000 N 
ATOM     13  O   UNL     1      48.058   1.427   6.748  0.00  0.00    +0.000 OA
ATOM     14  H   UNL     1      47.059   3.923   5.036  0.00  0.00    +0.000 HD
ATOM     15  H   UNL     1      48.156   2.653   4.646  0.00  0.00    +0.000 HD
ENDBRANCH   7  11
ENDBRANCH   1  10
BRANCH   1  16
ATOM     16  C   UNL     1      45.599   5.411  11.774  0.00  0.00    +0.000 A 
ATOM     17  C   UNL     1      46.386   6.502  11.390  0.00  0.00    +0.000 A 
ATOM     18  C   UNL     1      47.396   6.986  12.221  0.00  0.00    +0.000 A 
ATOM     19  C   UNL     1      47.624   6.367  13.450  0.00  0.00    +0.000 A 
ATOM     20  N   UNL     1      46.899   5.281  13.841  0.00  0.00    +0.000 NA
ATOM     21  C   UNL     1      45.929   4.838  13.003  0.00  0.00    +0.000 A 
BRANCH  19  22
ATOM     22  C   UNL     1      48.689   6.919  14.389  0.00  0.00    +0.000 C 
ATOM     23  F   UNL     1      48.909   6.124  15.480  0.00  0.00    +0.000 F 
ATOM     24  F   UNL     1      49.910   7.050  13.791  0.00  0.00    +0.000 F 
ATOM     25  F   UNL     1      48.383   8.148  14.894  0.00  0.00    +0.000 F 
ENDBRANCH  19  22
ENDBRANCH   1  16
TORSDOF 4
ENDMDL
MODEL 4
REMARK VINA RESULT:    -6.770      1.521      2.066
REMARK INTER + INTRA:          -8.539
REMARK INTER:                  -8.400
REMARK INTRA:                  -0.139
REMARK UNBOUND:                -0.186
REMARK  Name = 
REMARK  5 active torsions:
REMARK  status: ('A' for Active; 'I' for Inactive)
REMARK    1  A    between atoms: C_1  and  C_2
REMARK    2  A    between atoms: C_4  and  C_5
REMARK    3  A    between atoms: C_10  and  C_11
REMARK    4  A    between atoms: C_11  and  C_12
REMARK    5  A    between atoms: C_15  and  C_16
REMARK                            x       y       z     vdW  Elec       q    Type
REMARK                         _______ _______ _______ _____ _____    ______ ____
ROOT
ATOM      1  C   UNL     1      44.174   5.416  11.383  0.00  0.00    +0.000 C 
ATOM      2  C   UNL     1      42.654   5.323  11.404  0.00  0.00    +0.000 C 
ATOM      3  C   UNL     1      43.416   4.743  12.541  0.00  0.00    +0.000 C 
ENDROOT
BRANCH   1  10
ATOM      4  C   UNL     1      43.714   8.520  11.077  0.00  0.00    +0.000 C 
ATOM      5  C   UNL     1      44.942   7.912  11.677  0.00  0.00    +0.000 A 
ATOM      6  C   UNL     1      46.022   8.753  12.020  0.00  0.00    +0.000 A 
ATOM      7  C   UNL     1      47.190   8.237  12.588  0.00  0.00    +0.000 A 
ATOM      8  C   UNL     1      47.204   6.896  12.863  0.00  0.00    +0.000 A 
ATOM      9  N   UNL     1      46.195   6.055  12.546  0.00  0.00    +0.000 NA
ATOM     10  C   UNL     1      45.088   6.531  11.904  0.00  0.00    +0.000 A 
BRANCH   7  11
ATOM     11  C   UNL     1      48.344   9.130  12.846  0.00  0.00    +0.000 C 
ATOM     12  N   UNL     1      49.539   8.873  12.235  0.00  0.00    +0.000 N 
ATOM     13  O   UNL     1      48.235  10.107  13.586  0.00  0.00    +0.000 OA
ATOM     14  H   UNL     1      49.725   8.135  11.573  0.00  0.00    +0.000 HD
ATOM     15  H   UNL     1      50.285   9.538  12.401  0.00  0.00    +0.000 HD
ENDBRANCH   7  11
ENDBRANCH   1  10
BRANCH   1  16
ATOM     16  C   UNL     1      44.828   4.582  10.276  0.00  0.00    +0.000 A 
ATOM     17  C   UNL     1      45.545   5.151   9.218  0.00  0.00    +0.000 A 
ATOM     18  C   UNL     1      46.115   4.352   8.226  0.00  0.00    +0.000 A 
ATOM     19  C   UNL     1      45.961   2.967   8.293  0.00  0.00    +0.000 A 
ATOM     20  N   UNL     1      45.240   2.383   9.290  0.00  0.00    +0.000 NA
ATOM     21  C   UNL     1      44.698   3.193  10.233  0.00  0.00    +0.000 A 
BRANCH  19  22
ATOM     22  C   UNL     1      46.623   2.082   7.244  0.00  0.00    +0.000 C 
ATOM     23  F   UNL     1      46.431   0.746   7.469  0.00  0.00    +0.000 F 
ATOM     24  F   UNL     1      46.149   2.304   5.984  0.00  0.00    +0.000 F 
ATOM     25  F   UNL     1      47.975   2.245   7.173  0.00  0.00    +0.000 F 
ENDBRANCH  19  22
ENDBRANCH   1  16
TORSDOF 4
ENDMDL
MODEL 5
REMARK VINA RESULT:    -5.821      4.766      7.196
REMARK INTER + INTRA:          -7.368
REMARK INTER:                  -7.552
REMARK INTRA:                   0.184
REMARK UNBOUND:                -0.186
REMARK  Name = 
REMARK  5 active torsions:
REMARK  status: ('A' for Active; 'I' for Inactive)
REMARK    1  A    between atoms: C_1  and  C_2
REMARK    2  A    between atoms: C_4  and  C_5
REMARK    3  A    between atoms: C_10  and  C_11
REMARK    4  A    between atoms: C_11  and  C_12
REMARK    5  A    between atoms: C_15  and  C_16
REMARK                            x       y       z     vdW  Elec       q    Type
REMARK                         _______ _______ _______ _____ _____    ______ ____
ROOT
ATOM      1  C   UNL     1      48.980   5.985  16.913  0.00  0.00    +0.000 C 
ATOM      2  C   UNL     1      49.068   7.490  17.128  0.00  0.00    +0.000 C 
ATOM      3  C   UNL     1      48.379   6.666  18.155  0.00  0.00    +0.000 C 
ENDROOT
BRANCH   1  10
ATOM      4  C   UNL     1      52.101   6.290  17.243  0.00  0.00    +0.000 C 
ATOM      5  C   UNL     1      51.371   4.990  17.362  0.00  0.00    +0.000 A 
ATOM      6  C   UNL     1      52.115   3.800  17.508  0.00  0.00    +0.000 A 
ATOM      7  C   UNL     1      51.482   2.560  17.629  0.00  0.00    +0.000 A 
ATOM      8  C   UNL     1      50.114   2.565  17.674  0.00  0.00    +0.000 A 
ATOM      9  N   UNL     1      49.364   3.680  17.532  0.00  0.00    +0.000 NA
ATOM     10  C   UNL     1      49.969   4.886  17.318  0.00  0.00    +0.000 A 
BRANCH   7  11
ATOM     11  C   UNL     1      52.291   1.319  17.682  0.00  0.00    +0.000 C 
ATOM     12  N   UNL     1      51.719   0.167  18.143  0.00  0.00    +0.000 N 
ATOM     13  O   UNL     1      53.460   1.309  17.302  0.00  0.00    +0.000 OA
ATOM     14  H   UNL     1      50.758   0.050  18.429  0.00  0.00    +0.000 HD
ATOM     15  H   UNL     1      52.293  -0.667  18.114  0.00  0.00    +0.000 HD
ENDBRANCH   7  11
ENDBRANCH   1  10
BRANCH   1  16
ATOM     16  C   UNL     1      48.097   5.582  15.728  0.00  0.00    +0.000 A 
ATOM     17  C   UNL     1      48.062   6.298  14.526  0.00  0.00    +0.000 A 
ATOM     18  C   UNL     1      47.234   5.899  13.477  0.00  0.00    +0.000 A 
ATOM     19  C   UNL     1      46.428   4.772  13.634  0.00  0.00    +0.000 A 
ATOM     20  N   UNL     1      46.411   4.072  14.803  0.00  0.00    +0.000 NA
ATOM     21  C   UNL     1      47.226   4.493  15.801  0.00  0.00    +0.000 A 
BRANCH  19  22
ATOM     22  C   UNL     1      45.559   4.297  12.477  0.00  0.00    +0.000 C 
ATOM     23  F   UNL     1      45.836   4.934  11.298  0.00  0.00    +0.000 F 
ATOM     24  F   UNL     1      45.710   2.968  12.207  0.00  0.00    +0.000 F 
ATOM     25  F   UNL     1      44.225   4.491  12.686  0.00  0.00    +0.000 F 
ENDBRANCH  19  22
ENDBRANCH   1  16
TORSDOF 4
ENDMDL
MODEL 6
REMARK VINA RESULT:    -5.779      5.527      7.914
REMARK INTER + INTRA:          -7.316
REMARK INTER:                  -7.452
REMARK INTRA:                   0.135
REMARK UNBOUND:                -0.186
REMARK  Name = 
REMARK  5 active torsions:
REMARK  status: ('A' for Active; 'I' for Inactive)
REMARK    1  A    between atoms: C_1  and  C_2
REMARK    2  A    between atoms: C_4  and  C_5
REMARK    3  A    between atoms: C_10  and  C_11
REMARK    4  A    between atoms: C_11  and  C_12
REMARK    5  A    between atoms: C_15  and  C_16
REMARK                            x       y       z     vdW  Elec       q    Type
REMARK                         _______ _______ _______ _____ _____    ______ ____
ROOT
ATOM      1  C   UNL     1      48.023   6.890  13.542  0.00  0.00    +0.000 C 
ATOM      2  C   UNL     1      48.888   8.137  13.420  0.00  0.00    +0.000 C 
ATOM      3  C   UNL     1      49.195   6.973  12.549  0.00  0.00    +0.000 C 
ENDROOT
BRANCH   1  10
ATOM      4  C   UNL     1      45.651   8.856  12.873  0.00  0.00    +0.000 C 
ATOM      5  C   UNL     1      45.614   7.384  12.614  0.00  0.00    +0.000 A 
ATOM      6  C   UNL     1      44.413   6.800  12.158  0.00  0.00    +0.000 A 
ATOM      7  C   UNL     1      44.327   5.430  11.896  0.00  0.00    +0.000 A 
ATOM      8  C   UNL     1      45.478   4.701  12.029  0.00  0.00    +0.000 A 
ATOM      9  N   UNL     1      46.646   5.218  12.468  0.00  0.00    +0.000 NA
ATOM     10  C   UNL     1      46.718   6.536  12.819  0.00  0.00    +0.000 A 
BRANCH   7  11
ATOM     11  C   UNL     1      43.026   4.832  11.512  0.00  0.00    +0.000 C 
ATOM     12  N   UNL     1      41.884   5.571  11.646  0.00  0.00    +0.000 N 
ATOM     13  O   UNL     1      42.963   3.690  11.060  0.00  0.00    +0.000 OA
ATOM     14  H   UNL     1      41.826   6.530  11.955  0.00  0.00    +0.000 HD
ATOM     15  H   UNL     1      41.025   5.141  11.325  0.00  0.00    +0.000 HD
ENDBRANCH   7  11
ENDBRANCH   1  10
BRANCH   1  16
ATOM     16  C   UNL     1      48.174   6.164  14.883  0.00  0.00    +0.000 A 
ATOM     17  C   UNL     1      47.469   4.997  15.200  0.00  0.00    +0.000 A 
ATOM     18  C   UNL     1      47.631   4.375  16.438  0.00  0.00    +0.000 A 
ATOM     19  C   UNL     1      48.506   4.931  17.372  0.00  0.00    +0.000 A 
ATOM     20  N   UNL     1      49.182   6.085  17.109  0.00  0.00    +0.000 NA
ATOM     21  C   UNL     1      48.995   6.661  15.897  0.00  0.00    +0.000 A 
BRANCH  19  22
ATOM     22  C   UNL     1      48.729   4.232  18.707  0.00  0.00    +0.000 C 
ATOM     23  F   UNL     1      48.107   4.856  19.752  0.00  0.00    +0.000 F 
ATOM     24  F   UNL     1      48.257   2.951  18.723  0.00  0.00    +0.000 F 
ATOM     25  F   UNL     1      50.043   4.154  19.064  0.00  0.00    +0.000 F 
ENDBRANCH  19  22
ENDBRANCH   1  16
TORSDOF 4
ENDMDL
MODEL 7
REMARK VINA RESULT:    -5.699      5.647      8.145
REMARK INTER + INTRA:          -7.218
REMARK INTER:                  -6.967
REMARK INTRA:                  -0.251
REMARK UNBOUND:                -0.186
REMARK  Name = 
REMARK  5 active torsions:
REMARK  status: ('A' for Active; 'I' for Inactive)
REMARK    1  A    between atoms: C_1  and  C_2
REMARK    2  A    between atoms: C_4  and  C_5
REMARK    3  A    between atoms: C_10  and  C_11
REMARK    4  A    between atoms: C_11  and  C_12
REMARK    5  A    between atoms: C_15  and  C_16
REMARK                            x       y       z     vdW  Elec       q    Type
REMARK                         _______ _______ _______ _____ _____    ______ ____
ROOT
ATOM      1  C   UNL     1      48.123   8.130  12.471  0.00  0.00    +0.000 C 
ATOM      2  C   UNL     1      48.979   9.241  11.879  0.00  0.00    +0.000 C 
ATOM      3  C   UNL     1      49.224   7.844  11.435  0.00  0.00    +0.000 C 
ENDROOT
BRANCH   1  10
ATOM      4  C   UNL     1      45.444   9.761  12.151  0.00  0.00    +0.000 C 
ATOM      5  C   UNL     1      45.550   8.283  11.954  0.00  0.00    +0.000 A 
ATOM      6  C   UNL     1      44.373   7.537  11.732  0.00  0.00    +0.000 A 
ATOM      7  C   UNL     1      44.418   6.154  11.537  0.00  0.00    +0.000 A 
ATOM      8  C   UNL     1      45.657   5.574  11.497  0.00  0.00    +0.000 A 
ATOM      9  N   UNL     1      46.808   6.250  11.710  0.00  0.00    +0.000 NA
ATOM     10  C   UNL     1      46.771   7.585  11.996  0.00  0.00    +0.000 A 
BRANCH   7  11
ATOM     11  C   UNL     1      43.157   5.385  11.405  0.00  0.00    +0.000 C 
ATOM     12  N   UNL     1      41.973   5.981  11.737  0.00  0.00    +0.000 N 
ATOM     13  O   UNL     1      43.162   4.230  10.984  0.00  0.00    +0.000 OA
ATOM     14  H   UNL     1      41.848   6.935  12.041  0.00  0.00    +0.000 HD
ATOM     15  H   UNL     1      41.133   5.436  11.583  0.00  0.00    +0.000 HD
ENDBRANCH   7  11
ENDBRANCH   1  10
BRANCH   1  16
ATOM     16  C   UNL     1      48.364   7.896  13.966  0.00  0.00    +0.000 A 
ATOM     17  C   UNL     1      48.343   8.928  14.911  0.00  0.00    +0.000 A 
ATOM     18  C   UNL     1      48.579   8.670  16.261  0.00  0.00    +0.000 A 
ATOM     19  C   UNL     1      48.843   7.363  16.670  0.00  0.00    +0.000 A 
ATOM     20  N   UNL     1      48.905   6.339  15.772  0.00  0.00    +0.000 NA
ATOM     21  C   UNL     1      48.675   6.631  14.469  0.00  0.00    +0.000 A 
BRANCH  19  22
ATOM     22  C   UNL     1      49.051   7.061  18.149  0.00  0.00    +0.000 C 
ATOM     23  F   UNL     1      49.615   8.100  18.836  0.00  0.00    +0.000 F 
ATOM     24  F   UNL     1      47.885   6.789  18.806  0.00  0.00    +0.000 F 
ATOM     25  F   UNL     1      49.869   5.993  18.374  0.00  0.00    +0.000 F 
ENDBRANCH  19  22
ENDBRANCH   1  16
TORSDOF 4
ENDMDL
MODEL 8
REMARK VINA RESULT:    -5.692      6.110      8.603
REMARK INTER + INTRA:          -7.209
REMARK INTER:                  -7.118
REMARK INTRA:                  -0.091
REMARK UNBOUND:                -0.186
REMARK  Name = 
REMARK  5 active torsions:
REMARK  status: ('A' for Active; 'I' for Inactive)
REMARK    1  A    between atoms: C_1  and  C_2
REMARK    2  A    between atoms: C_4  and  C_5
REMARK    3  A    between atoms: C_10  and  C_11
REMARK    4  A    between atoms: C_11  and  C_12
REMARK    5  A    between atoms: C_15  and  C_16
REMARK                            x       y       z     vdW  Elec       q    Type
REMARK                         _______ _______ _______ _____ _____    ______ ____
ROOT
ATOM      1  C   UNL     1      48.046   3.659  16.981  0.00  0.00    +0.000 C 
ATOM      2  C   UNL     1      47.007   2.955  17.845  0.00  0.00    +0.000 C 
ATOM      3  C   UNL     1      47.268   4.398  18.083  0.00  0.00    +0.000 C 
ENDROOT
BRANCH   1  10
ATOM      4  C   UNL     1      48.992   6.572  16.235  0.00  0.00    +0.000 C 
ATOM      5  C   UNL     1      48.197   5.693  15.324  0.00  0.00    +0.000 A 
ATOM      6  C   UNL     1      47.727   6.223  14.103  0.00  0.00    +0.000 A 
ATOM      7  C   UNL     1      46.984   5.442  13.213  0.00  0.00    +0.000 A 
ATOM      8  C   UNL     1      46.801   4.127  13.547  0.00  0.00    +0.000 A 
ATOM      9  N   UNL     1      47.228   3.582  14.707  0.00  0.00    +0.000 NA
ATOM     10  C   UNL     1      47.873   4.358  15.628  0.00  0.00    +0.000 A 
BRANCH   7  11
ATOM     11  C   UNL     1      46.421   6.054  11.986  0.00  0.00    +0.000 C 
ATOM     12  N   UNL     1      45.600   5.311  11.184  0.00  0.00    +0.000 N 
ATOM     13  O   UNL     1      46.668   7.221  11.690  0.00  0.00    +0.000 OA
ATOM     14  H   UNL     1      45.290   4.366  11.358  0.00  0.00    +0.000 HD
ATOM     15  H   UNL     1      45.198   5.785  10.384  0.00  0.00    +0.000 HD
ENDBRANCH   7  11
ENDBRANCH   1  10
BRANCH   1  16
ATOM     16  C   UNL     1      49.478   3.169  17.217  0.00  0.00    +0.000 A 
ATOM     17  C   UNL     1      50.487   3.989  17.734  0.00  0.00    +0.000 A 
ATOM     18  C   UNL     1      51.781   3.502  17.923  0.00  0.00    +0.000 A 
ATOM     19  C   UNL     1      52.069   2.180  17.586  0.00  0.00    +0.000 A 
ATOM     20  N   UNL     1      51.119   1.364  17.047  0.00  0.00    +0.000 NA
ATOM     21  C   UNL     1      49.875   1.875  16.875  0.00  0.00    +0.000 A 
BRANCH  19  22
ATOM     22  C   UNL     1      53.464   1.623  17.836  0.00  0.00    +0.000 C 
ATOM     23  F   UNL     1      53.566   0.285  17.569  0.00  0.00    +0.000 F 
ATOM     24  F   UNL     1      54.421   2.215  17.063  0.00  0.00    +0.000 F 
ATOM     25  F   UNL     1      53.881   1.765  19.127  0.00  0.00    +0.000 F 
ENDBRANCH  19  22
ENDBRANCH   1  16
TORSDOF 4
ENDMDL
MODEL 9
REMARK VINA RESULT:    -5.529      4.983      7.356
REMARK INTER + INTRA:          -7.007
REMARK INTER:                  -6.994
REMARK INTRA:                  -0.014
REMARK UNBOUND:                -0.186
REMARK  Name = 
REMARK  5 active torsions:
REMARK  status: ('A' for Active; 'I' for Inactive)
REMARK    1  A    between atoms: C_1  and  C_2
REMARK    2  A    between atoms: C_4  and  C_5
REMARK    3  A    between atoms: C_10  and  C_11
REMARK    4  A    between atoms: C_11  and  C_12
REMARK    5  A    between atoms: C_15  and  C_16
REMARK                            x       y       z     vdW  Elec       q    Type
REMARK                         _______ _______ _______ _____ _____    ______ ____
ROOT
ATOM      1  C   UNL     1      48.646   5.227  17.237  0.00  0.00    +0.000 C 
ATOM      2  C   UNL     1      48.314   6.277  18.289  0.00  0.00    +0.000 C 
ATOM      3  C   UNL     1      47.633   4.959  18.363  0.00  0.00    +0.000 C 
ENDROOT
BRANCH   1  10
ATOM      4  C   UNL     1      48.325   2.173  16.527  0.00  0.00    +0.000 C 
ATOM      5  C   UNL     1      49.595   2.786  17.023  0.00  0.00    +0.000 A 
ATOM      6  C   UNL     1      50.690   1.945  17.315  0.00  0.00    +0.000 A 
ATOM      7  C   UNL     1      51.901   2.468  17.777  0.00  0.00    +0.000 A 
ATOM      8  C   UNL     1      51.996   3.831  17.858  0.00  0.00    +0.000 A 
ATOM      9  N   UNL     1      50.971   4.671  17.595  0.00  0.00    +0.000 NA
ATOM     10  C   UNL     1      49.754   4.168  17.234  0.00  0.00    +0.000 A 
BRANCH   7  11
ATOM     11  C   UNL     1      53.000   1.553  18.167  0.00  0.00    +0.000 C 
ATOM     12  N   UNL     1      52.794   0.202  18.118  0.00  0.00    +0.000 N 
ATOM     13  O   UNL     1      54.094   1.990  18.516  0.00  0.00    +0.000 OA
ATOM     14  H   UNL     1      51.958  -0.264  17.799  0.00  0.00    +0.000 HD
ATOM     15  H   UNL     1      53.588  -0.386  18.345  0.00  0.00    +0.000 HD
ENDBRANCH   7  11
ENDBRANCH   1  10
BRANCH   1  16
ATOM     16  C   UNL     1      48.179   5.600  15.826  0.00  0.00    +0.000 A 
ATOM     17  C   UNL     1      47.261   4.832  15.100  0.00  0.00    +0.000 A 
ATOM     18  C   UNL     1      46.872   5.205  13.813  0.00  0.00    +0.000 A 
ATOM     19  C   UNL     1      47.411   6.358  13.245  0.00  0.00    +0.000 A 
ATOM     20  N   UNL     1      48.332   7.111  13.909  0.00  0.00    +0.000 NA
ATOM     21  C   UNL     1      48.688   6.714  15.156  0.00  0.00    +0.000 A 
BRANCH  19  22
ATOM     22  C   UNL     1      46.954   6.803  11.861  0.00  0.00    +0.000 C 
ATOM     23  F   UNL     1      46.318   5.815  11.161  0.00  0.00    +0.000 F 
ATOM     24  F   UNL     1      46.067   7.840  11.901  0.00  0.00    +0.000 F 
ATOM     25  F   UNL     1      47.978   7.212  11.058  0.00  0.00    +0.000 F 
ENDBRANCH  19  22
ENDBRANCH   1  16
TORSDOF 4
ENDMDL
