MODEL 1
REMARK VINA RESULT:    -7.919      0.000      0.000
REMARK INTER + INTRA:         -11.545
REMARK INTER:                 -10.465
REMARK INTRA:                  -1.080
REMARK UNBOUND:                -1.080
REMARK  Name = 
REMARK  6 active torsions:
REMARK  status: ('A' for Active; 'I' for Inactive)
REMARK    1  A    between atoms: C_2  and  C_19
REMARK    2  A    between atoms: N_3  and  C_4
REMARK    3  A    between atoms: C_4  and  C_5
REMARK    4  A    between atoms: C_8  and  C_9
REMARK    5  A    between atoms: C_9  and  O_10
REMARK    6  A    between atoms: C_9  and  C_11
REMARK                            x       y       z     vdW  Elec       q    Type
REMARK                         _______ _______ _______ _____ _____    ______ ____
ROOT
ATOM      1  C   UNL     1      46.655   4.963  14.414  0.00  0.00    +0.000 C 
ENDROOT
BRANCH   1   2
ATOM      2  C   UNL     1      46.095   4.591  13.057  0.00  0.00    +0.000 A 
ATOM      3  C   UNL     1      45.996   5.536  12.038  0.00  0.00    +0.000 A 
ATOM      4  C   UNL     1      45.455   5.159  10.803  0.00  0.00    +0.000 A 
ATOM      5  C   UNL     1      45.020   3.845  10.597  0.00  0.00    +0.000 A 
ATOM      6  C   UNL     1      45.146   2.976  11.676  0.00  0.00    +0.000 A 
ATOM      7  N   UNL     1      45.683   3.310  12.878  0.00  0.00    +0.000 NA
BRANCH   5   8
ATOM      8  C   UNL     1      44.459   3.359   9.272  0.00  0.00    +0.000 C 
BRANCH   8   9
ATOM      9  C   UNL     1      45.505   2.718   8.372  0.00  0.00    +0.000 A 
ATOM     10  C   UNL     1      45.698   1.331   8.397  0.00  0.00    +0.000 A 
ATOM     11  C   UNL     1      46.744   0.785   7.668  0.00  0.00    +0.000 A 
ATOM     12  N   UNL     1      47.580   1.507   6.895  0.00  0.00    +0.000 NA
ATOM     13  C   UNL     1      47.345   2.833   6.829  0.00  0.00    +0.000 A 
ATOM     14  C   UNL     1      46.335   3.472   7.531  0.00  0.00    +0.000 A 
ENDBRANCH   8   9
BRANCH   8  15
ATOM     15  O   UNL     1      43.828   4.448   8.595  0.00  0.00    +0.000 OA
ATOM     16  H   UNL     1      44.365   4.655   7.815  0.00  0.00    +0.000 HD
ENDBRANCH   8  15
ENDBRANCH   5   8
ENDBRANCH   1   2
BRANCH   1  19
ATOM     17  O   UNL     1      48.996   5.581  15.871  0.00  0.00    +0.000 OA
ATOM     18  C   UNL     1      48.453   6.453  15.218  0.00  0.00    +0.000 C 
ATOM     19  N   UNL     1      47.345   6.229  14.431  0.00  0.00    +0.000 N 
ATOM     20  H   UNL     1      47.045   6.931  13.771  0.00  0.00    +0.000 HD
BRANCH  18  21
ATOM     21  C   UNL     1      48.951   7.832  15.171  0.00  0.00    +0.000 A 
ATOM     22  C   UNL     1      48.856   8.689  16.254  0.00  0.00    +0.000 A 
ATOM     23  S   UNL     1      49.553  10.222  15.954  0.00  0.00    +0.000 S 
ATOM     24  C   UNL     1      49.967   9.790  14.360  0.00  0.00    +0.000 A 
ATOM     25  N   UNL     1      50.616  10.652  13.534  0.00  0.00    +0.000 NA
ATOM     26  C   UNL     1      50.873  10.172  12.361  0.00  0.00    +0.000 A 
ATOM     27  N   UNL     1      50.535   8.912  11.936  0.00  0.00    +0.000 N 
ATOM     28  C   UNL     1      49.806   8.047  12.703  0.00  0.00    +0.000 A 
ATOM     29  O   UNL     1      49.418   6.975  12.233  0.00  0.00    +0.000 OA
ATOM     30  C   UNL     1      49.559   8.503  14.055  0.00  0.00    +0.000 A 
ATOM     31  H   UNL     1      50.727   8.608  10.994  0.00  0.00    +0.000 HD
ENDBRANCH  18  21
ENDBRANCH   1  19
TORSDOF 6
ENDMDL
MODEL 2
REMARK VINA RESULT:    -7.581      1.618      2.419
REMARK INTER + INTRA:         -11.098
REMARK INTER:                 -10.387
REMARK INTRA:                  -0.711
REMARK UNBOUND:                -1.080
REMARK  Name = 
REMARK  6 active torsions:
REMARK  status: ('A' for Active; 'I' for Inactive)
REMARK    1  A    between atoms: C_2  and  C_19
REMARK    2  A    between atoms: N_3  and  C_4
REMARK    3  A    between atoms: C_4  and  C_5
REMARK    4  A    between atoms: C_8  and  C_9
REMARK    5  A    between atoms: C_9  and  O_10
REMARK    6  A    between atoms: C_9  and  C_11
REMARK                            x       y       z     vdW  Elec       q    Type
REMARK                         _______ _______ _______ _____ _____    ______ ____
ROOT
ATOM      1  C   UNL     1      46.381   4.902  14.360  0.00  0.00    +0.000 C 
ENDROOT
BRANCH   1   2
ATOM      2  C   UNL     1      45.907   4.533  12.970  0.00  0.00    +0.000 A 
ATOM      3  C   UNL     1      45.850   5.486  11.955  0.00  0.00    +0.000 A 
ATOM      4  C   UNL     1      45.388   5.112  10.687  0.00  0.00    +0.000 A 
ATOM      5  C   UNL     1      44.991   3.792  10.445  0.00  0.00    +0.000 A 
ATOM      6  C   UNL     1      45.070   2.916  11.522  0.00  0.00    +0.000 A 
ATOM      7  N   UNL     1      45.531   3.247  12.756  0.00  0.00    +0.000 NA
BRANCH   5   8
ATOM      8  C   UNL     1      44.517   3.309   9.085  0.00  0.00    +0.000 C 
BRANCH   8   9
ATOM      9  C   UNL     1      45.624   2.692   8.244  0.00  0.00    +0.000 A 
ATOM     10  C   UNL     1      45.851   1.310   8.286  0.00  0.00    +0.000 A 
ATOM     11  C   UNL     1      46.947   0.789   7.615  0.00  0.00    +0.000 A 
ATOM     12  N   UNL     1      47.803   1.530   6.882  0.00  0.00    +0.000 NA
ATOM     13  C   UNL     1      47.537   2.849   6.797  0.00  0.00    +0.000 A 
ATOM     14  C   UNL     1      46.476   3.464   7.442  0.00  0.00    +0.000 A 
ENDBRANCH   8   9
BRANCH   8  15
ATOM     15  O   UNL     1      43.909   4.394   8.381  0.00  0.00    +0.000 OA
ATOM     16  H   UNL     1      44.456   4.575   7.600  0.00  0.00    +0.000 HD
ENDBRANCH   8  15
ENDBRANCH   5   8
ENDBRANCH   1   2
BRANCH   1  19
ATOM     17  O   UNL     1      48.685   5.137  15.980  0.00  0.00    +0.000 OA
ATOM     18  C   UNL     1      48.372   6.061  15.251  0.00  0.00    +0.000 C 
ATOM     19  N   UNL     1      47.303   6.012  14.385  0.00  0.00    +0.000 N 
ATOM     20  H   UNL     1      47.194   6.722  13.676  0.00  0.00    +0.000 HD
BRANCH  18  21
ATOM     21  C   UNL     1      49.132   7.314  15.192  0.00  0.00    +0.000 A 
ATOM     22  C   UNL     1      49.874   7.676  14.081  0.00  0.00    +0.000 A 
ATOM     23  S   UNL     1      50.627   9.203  14.251  0.00  0.00    +0.000 S 
ATOM     24  C   UNL     1      50.007   9.402  15.824  0.00  0.00    +0.000 A 
ATOM     25  N   UNL     1      50.259  10.521  16.553  0.00  0.00    +0.000 NA
ATOM     26  C   UNL     1      49.706  10.530  17.722  0.00  0.00    +0.000 A 
ATOM     27  N   UNL     1      48.930   9.519  18.232  0.00  0.00    +0.000 N 
ATOM     28  C   UNL     1      48.726   8.341  17.568  0.00  0.00    +0.000 A 
ATOM     29  O   UNL     1      48.127   7.414  18.118  0.00  0.00    +0.000 OA
ATOM     30  C   UNL     1      49.256   8.309  16.221  0.00  0.00    +0.000 A 
ATOM     31  H   UNL     1      48.559   9.566  19.168  0.00  0.00    +0.000 HD
ENDBRANCH  18  21
ENDBRANCH   1  19
TORSDOF 6
ENDMDL
MODEL 3
REMARK VINA RESULT:    -7.477      2.899      4.222
REMARK INTER + INTRA:         -10.961
REMARK INTER:                  -9.987
REMARK INTRA:                  -0.974
REMARK UNBOUND:                -1.080
REMARK  Name = 
REMARK  6 active torsions:
REMARK  status: ('A' for Active; 'I' for Inactive)
REMARK    1  A    between atoms: C_2  and  C_19
REMARK    2  A    between atoms: N_3  and  C_4
REMARK    3  A    between atoms: C_4  and  C_5
REMARK    4  A    between atoms: C_8  and  C_9
REMARK    5  A    between atoms: C_9  and  O_10
REMARK    6  A    between atoms: C_9  and  C_11
REMARK                            x       y       z     vdW  Elec       q    Type
REMARK                         _______ _______ _______ _____ _____    ______ ____
ROOT
ATOM      1  C   UNL     1      48.002   7.439  13.858  0.00  0.00    +0.000 C 
ENDROOT
BRANCH   1   2
ATOM      2  C   UNL     1      47.020   6.712  12.963  0.00  0.00    +0.000 A 
ATOM      3  C   UNL     1      46.317   7.391  11.969  0.00  0.00    +0.000 A 
ATOM      4  C   UNL     1      45.403   6.689  11.174  0.00  0.00    +0.000 A 
ATOM      5  C   UNL     1      45.201   5.319  11.377  0.00  0.00    +0.000 A 
ATOM      6  C   UNL     1      45.937   4.731  12.400  0.00  0.00    +0.000 A 
ATOM      7  N   UNL     1      46.843   5.383  13.174  0.00  0.00    +0.000 NA
BRANCH   5   8
ATOM      8  C   UNL     1      44.256   4.489  10.526  0.00  0.00    +0.000 C 
BRANCH   8   9
ATOM      9  C   UNL     1      44.956   3.726   9.412  0.00  0.00    +0.000 A 
ATOM     10  C   UNL     1      45.008   2.327   9.444  0.00  0.00    +0.000 A 
ATOM     11  C   UNL     1      45.765   1.661   8.491  0.00  0.00    +0.000 A 
ATOM     12  N   UNL     1      46.435   2.278   7.496  0.00  0.00    +0.000 NA
ATOM     13  C   UNL     1      46.325   3.620   7.438  0.00  0.00    +0.000 A 
ATOM     14  C   UNL     1      45.605   4.375   8.352  0.00  0.00    +0.000 A 
ENDBRANCH   8   9
BRANCH   8  15
ATOM     15  O   UNL     1      43.240   5.335   9.981  0.00  0.00    +0.000 OA
ATOM     16  H   UNL     1      43.557   5.649   9.120  0.00  0.00    +0.000 HD
ENDBRANCH   8  15
ENDBRANCH   5   8
ENDBRANCH   1   2
BRANCH   1  19
ATOM     17  O   UNL     1      50.206   6.623  15.426  0.00  0.00    +0.000 OA
ATOM     18  C   UNL     1      49.086   6.575  15.902  0.00  0.00    +0.000 C 
ATOM     19  N   UNL     1      47.963   7.008  15.234  0.00  0.00    +0.000 N 
ATOM     20  H   UNL     1      47.092   7.120  15.732  0.00  0.00    +0.000 HD
BRANCH  18  21
ATOM     21  C   UNL     1      48.824   6.085  17.259  0.00  0.00    +0.000 A 
ATOM     22  C   UNL     1      49.004   4.759  17.614  0.00  0.00    +0.000 A 
ATOM     23  S   UNL     1      48.674   4.460  19.265  0.00  0.00    +0.000 S 
ATOM     24  C   UNL     1      48.250   6.086  19.538  0.00  0.00    +0.000 A 
ATOM     25  N   UNL     1      47.874   6.528  20.767  0.00  0.00    +0.000 NA
ATOM     26  C   UNL     1      47.597   7.790  20.817  0.00  0.00    +0.000 A 
ATOM     27  N   UNL     1      47.656   8.650  19.749  0.00  0.00    +0.000 N 
ATOM     28  C   UNL     1      47.943   8.230  18.480  0.00  0.00    +0.000 A 
ATOM     29  O   UNL     1      47.860   9.014  17.532  0.00  0.00    +0.000 OA
ATOM     30  C   UNL     1      48.338   6.840  18.381  0.00  0.00    +0.000 A 
ATOM     31  H   UNL     1      47.389   9.618  19.841  0.00  0.00    +0.000 HD
ENDBRANCH  18  21
ENDBRANCH   1  19
TORSDOF 6
ENDMDL
MODEL 4
REMARK VINA RESULT:    -7.242      2.834      4.312
REMARK INTER + INTRA:         -10.651
REMARK INTER:                  -9.782
REMARK INTRA:                  -0.868
REMARK UNBOUND:                -1.080
REMARK  Name = 
REMARK  6 active torsions:
REMARK  status: ('A' for Active; 'I' for Inactive)
REMARK    1  A    between atoms: C_2  and  C_19
REMARK    2  A    between atoms: N_3  and  C_4
REMARK    3  A    between atoms: C_4  and  C_5
REMARK    4  A    between atoms: C_8  and  C_9
REMARK    5  A    between atoms: C_9  and  O_10
REMARK    6  A    between atoms: C_9  and  C_11
REMARK                            x       y       z     vdW  Elec       q    Type
REMARK                         _______ _______ _______ _____ _____    ______ ____
ROOT
ATOM      1  C   UNL     1      48.575   7.022  14.062  0.00  0.00    +0.000 C 
ENDROOT
BRANCH   1   2
ATOM      2  C   UNL     1      47.491   6.428  13.187  0.00  0.00    +0.000 A 
ATOM      3  C   UNL     1      47.034   7.101  12.055  0.00  0.00    +0.000 A 
ATOM      4  C   UNL     1      46.017   6.529  11.282  0.00  0.00    +0.000 A 
ATOM      5  C   UNL     1      45.468   5.294  11.643  0.00  0.00    +0.000 A 
ATOM      6  C   UNL     1      45.978   4.704  12.794  0.00  0.00    +0.000 A 
ATOM      7  N   UNL     1      46.976   5.227  13.553  0.00  0.00    +0.000 NA
BRANCH   5   8
ATOM      8  C   UNL     1      44.391   4.599  10.828  0.00  0.00    +0.000 C 
BRANCH   8   9
ATOM      9  C   UNL     1      44.940   3.806   9.652  0.00  0.00    +0.000 A 
ATOM     10  C   UNL     1      44.928   2.406   9.682  0.00  0.00    +0.000 A 
ATOM     11  C   UNL     1      45.552   1.706   8.660  0.00  0.00    +0.000 A 
ATOM     12  N   UNL     1      46.149   2.292   7.602  0.00  0.00    +0.000 NA
ATOM     13  C   UNL     1      46.099   3.639   7.552  0.00  0.00    +0.000 A 
ATOM     14  C   UNL     1      45.511   4.425   8.531  0.00  0.00    +0.000 A 
ENDBRANCH   8   9
BRANCH   8  15
ATOM     15  O   UNL     1      43.443   5.566  10.371  0.00  0.00    +0.000 OA
ATOM     16  H   UNL     1      43.867   6.074   9.661  0.00  0.00    +0.000 HD
ENDBRANCH   8  15
ENDBRANCH   5   8
ENDBRANCH   1   2
BRANCH   1  19
ATOM     17  O   UNL     1      49.762   8.573  16.104  0.00  0.00    +0.000 OA
ATOM     18  C   UNL     1      48.962   7.705  16.404  0.00  0.00    +0.000 C 
ATOM     19  N   UNL     1      48.290   6.943  15.474  0.00  0.00    +0.000 N 
ATOM     20  H   UNL     1      47.509   6.371  15.760  0.00  0.00    +0.000 HD
BRANCH  18  21
ATOM     21  C   UNL     1      48.598   7.410  17.793  0.00  0.00    +0.000 A 
ATOM     22  C   UNL     1      48.014   8.355  18.621  0.00  0.00    +0.000 A 
ATOM     23  S   UNL     1      47.649   7.744  20.176  0.00  0.00    +0.000 S 
ATOM     24  C   UNL     1      48.292   6.214  19.793  0.00  0.00    +0.000 A 
ATOM     25  N   UNL     1      48.284   5.193  20.690  0.00  0.00    +0.000 NA
ATOM     26  C   UNL     1      48.794   4.091  20.245  0.00  0.00    +0.000 A 
ATOM     27  N   UNL     1      49.318   3.918  18.990  0.00  0.00    +0.000 N 
ATOM     28  C   UNL     1      49.426   4.942  18.089  0.00  0.00    +0.000 A 
ATOM     29  O   UNL     1      50.018   4.770  17.021  0.00  0.00    +0.000 OA
ATOM     30  C   UNL     1      48.798   6.178  18.506  0.00  0.00    +0.000 A 
ATOM     31  H   UNL     1      49.740   3.045  18.713  0.00  0.00    +0.000 HD
ENDBRANCH  18  21
ENDBRANCH   1  19
TORSDOF 6
ENDMDL
MODEL 5
REMARK VINA RESULT:    -7.199      2.327      3.588
REMARK INTER + INTRA:         -10.593
REMARK INTER:                  -9.828
REMARK INTRA:                  -0.765
REMARK UNBOUND:                -1.080
REMARK  Name = 
REMARK  6 active torsions:
REMARK  status: ('A' for Active; 'I' for Inactive)
REMARK    1  A    between atoms: C_2  and  C_19
REMARK    2  A    between atoms: N_3  and  C_4
REMARK    3  A    between atoms: C_4  and  C_5
REMARK    4  A    between atoms: C_8  and  C_9
REMARK    5  A    between atoms: C_9  and  O_10
REMARK    6  A    between atoms: C_9  and  C_11
REMARK                            x       y       z     vdW  Elec       q    Type
REMARK                         _______ _______ _______ _____ _____    ______ ____
ROOT
ATOM      1  C   UNL     1      47.656   4.646  15.188  0.00  0.00    +0.000 C 
ENDROOT
BRANCH   1   2
ATOM      2  C   UNL     1      46.786   4.517  13.955  0.00  0.00    +0.000 A 
ATOM      3  C   UNL     1      46.389   5.643  13.236  0.00  0.00    +0.000 A 
ATOM      4  C   UNL     1      45.568   5.485  12.113  0.00  0.00    +0.000 A 
ATOM      5  C   UNL     1      45.154   4.208  11.718  0.00  0.00    +0.000 A 
ATOM      6  C   UNL     1      45.589   3.147  12.504  0.00  0.00    +0.000 A 
ATOM      7  N   UNL     1      46.399   3.269  13.588  0.00  0.00    +0.000 NA
BRANCH   5   8
ATOM      8  C   UNL     1      44.297   3.962  10.489  0.00  0.00    +0.000 C 
BRANCH   8   9
ATOM      9  C   UNL     1      45.081   3.420   9.303  0.00  0.00    +0.000 A 
ATOM     10  C   UNL     1      45.268   2.039   9.157  0.00  0.00    +0.000 A 
ATOM     11  C   UNL     1      46.097   1.577   8.145  0.00  0.00    +0.000 A 
ATOM     12  N   UNL     1      46.716   2.379   7.254  0.00  0.00    +0.000 NA
ATOM     13  C   UNL     1      46.477   3.701   7.366  0.00  0.00    +0.000 A 
ATOM     14  C   UNL     1      45.677   4.259   8.351  0.00  0.00    +0.000 A 
ENDBRANCH   8   9
BRANCH   8  15
ATOM     15  O   UNL     1      43.628   5.171  10.125  0.00  0.00    +0.000 OA
ATOM     16  H   UNL     1      44.014   5.887  10.655  0.00  0.00    +0.000 HD
ENDBRANCH   8  15
ENDBRANCH   5   8
ENDBRANCH   1   2
BRANCH   1  19
ATOM     17  O   UNL     1      49.992   5.909  16.152  0.00  0.00    +0.000 OA
ATOM     18  C   UNL     1      48.932   6.507  16.191  0.00  0.00    +0.000 C 
ATOM     19  N   UNL     1      47.757   5.994  15.690  0.00  0.00    +0.000 N 
ATOM     20  H   UNL     1      46.952   6.593  15.579  0.00  0.00    +0.000 HD
BRANCH  18  21
ATOM     21  C   UNL     1      48.807   7.859  16.744  0.00  0.00    +0.000 A 
ATOM     22  C   UNL     1      49.158   8.988  16.022  0.00  0.00    +0.000 A 
ATOM     23  S   UNL     1      48.873  10.441  16.877  0.00  0.00    +0.000 S 
ATOM     24  C   UNL     1      48.306   9.599  18.244  0.00  0.00    +0.000 A 
ATOM     25  N   UNL     1      47.876  10.251  19.356  0.00  0.00    +0.000 NA
ATOM     26  C   UNL     1      47.463   9.473  20.302  0.00  0.00    +0.000 A 
ATOM     27  N   UNL     1      47.447   8.102  20.242  0.00  0.00    +0.000 N 
ATOM     28  C   UNL     1      47.953   7.405  19.179  0.00  0.00    +0.000 A 
ATOM     29  O   UNL     1      48.033   6.176  19.224  0.00  0.00    +0.000 OA
ATOM     30  C   UNL     1      48.356   8.228  18.058  0.00  0.00    +0.000 A 
ATOM     31  H   UNL     1      47.150   7.547  21.029  0.00  0.00    +0.000 HD
ENDBRANCH  18  21
ENDBRANCH   1  19
TORSDOF 6
ENDMDL
MODEL 6
REMARK VINA RESULT:    -7.123      2.148      2.547
REMARK INTER + INTRA:         -10.493
REMARK INTER:                  -9.809
REMARK INTRA:                  -0.684
REMARK UNBOUND:                -1.080
REMARK  Name = 
REMARK  6 active torsions:
REMARK  status: ('A' for Active; 'I' for Inactive)
REMARK    1  A    between atoms: C_2  and  C_19
REMARK    2  A    between atoms: N_3  and  C_4
REMARK    3  A    between atoms: C_4  and  C_5
REMARK    4  A    between atoms: C_8  and  C_9
REMARK    5  A    between atoms: C_9  and  O_10
REMARK    6  A    between atoms: C_9  and  C_11
REMARK                            x       y       z     vdW  Elec       q    Type
REMARK                         _______ _______ _______ _____ _____    ______ ____
ROOT
ATOM      1  C   UNL     1      46.869   4.573  14.999  0.00  0.00    +0.000 C 
ENDROOT
BRANCH   1   2
ATOM      2  C   UNL     1      46.206   4.409  13.648  0.00  0.00    +0.000 A 
ATOM      3  C   UNL     1      45.939   5.513  12.841  0.00  0.00    +0.000 A 
ATOM      4  C   UNL     1      45.307   5.324  11.606  0.00  0.00    +0.000 A 
ATOM      5  C   UNL     1      44.950   4.036  11.188  0.00  0.00    +0.000 A 
ATOM      6  C   UNL     1      45.245   2.999  12.065  0.00  0.00    +0.000 A 
ATOM      7  N   UNL     1      45.873   3.151  13.260  0.00  0.00    +0.000 NA
BRANCH   5   8
ATOM      8  C   UNL     1      44.298   3.756   9.846  0.00  0.00    +0.000 C 
BRANCH   8   9
ATOM      9  C   UNL     1      45.264   3.202   8.809  0.00  0.00    +0.000 A 
ATOM     10  C   UNL     1      45.505   1.824   8.737  0.00  0.00    +0.000 A 
ATOM     11  C   UNL     1      46.486   1.358   7.875  0.00  0.00    +0.000 A 
ATOM     12  N   UNL     1      47.212   2.150   7.061  0.00  0.00    +0.000 NA
ATOM     13  C   UNL     1      46.927   3.468   7.093  0.00  0.00    +0.000 A 
ATOM     14  C   UNL     1      45.975   4.031   7.929  0.00  0.00    +0.000 A 
ENDBRANCH   8   9
BRANCH   8  15
ATOM     15  O   UNL     1      43.682   4.949   9.357  0.00  0.00    +0.000 OA
ATOM     16  H   UNL     1      44.165   5.701   9.736  0.00  0.00    +0.000 HD
ENDBRANCH   8  15
ENDBRANCH   5   8
ENDBRANCH   1   2
BRANCH   1  19
ATOM     17  O   UNL     1      48.124   5.677  17.278  0.00  0.00    +0.000 OA
ATOM     18  C   UNL     1      48.463   6.052  16.170  0.00  0.00    +0.000 C 
ATOM     19  N   UNL     1      47.950   5.527  15.005  0.00  0.00    +0.000 N 
ATOM     20  H   UNL     1      48.391   5.736  14.121  0.00  0.00    +0.000 HD
BRANCH  18  21
ATOM     21  C   UNL     1      49.489   7.079  15.962  0.00  0.00    +0.000 A 
ATOM     22  C   UNL     1      49.200   8.307  15.391  0.00  0.00    +0.000 A 
ATOM     23  S   UNL     1      50.561   9.339  15.305  0.00  0.00    +0.000 S 
ATOM     24  C   UNL     1      51.576   8.161  15.998  0.00  0.00    +0.000 A 
ATOM     25  N   UNL     1      52.894   8.400  16.228  0.00  0.00    +0.000 NA
ATOM     26  C   UNL     1      53.526   7.413  16.773  0.00  0.00    +0.000 A 
ATOM     27  N   UNL     1      52.964   6.206  17.102  0.00  0.00    +0.000 N 
ATOM     28  C   UNL     1      51.666   5.892  16.808  0.00  0.00    +0.000 A 
ATOM     29  O   UNL     1      51.241   4.752  17.009  0.00  0.00    +0.000 OA
ATOM     30  C   UNL     1      50.890   6.989  16.269  0.00  0.00    +0.000 A 
ATOM     31  H   UNL     1      53.519   5.458  17.489  0.00  0.00    +0.000 HD
ENDBRANCH  18  21
ENDBRANCH   1  19
TORSDOF 6
ENDMDL
MODEL 7
REMARK VINA RESULT:    -6.916      4.576      8.654
REMARK INTER + INTRA:         -10.220
REMARK INTER:                  -9.262
REMARK INTRA:                  -0.957
REMARK UNBOUND:                -1.080
REMARK  Name = 
REMARK  6 active torsions:
REMARK  status: ('A' for Active; 'I' for Inactive)
REMARK    1  A    between atoms: C_2  and  C_19
REMARK    2  A    between atoms: N_3  and  C_4
REMARK    3  A    between atoms: C_4  and  C_5
REMARK    4  A    between atoms: C_8  and  C_9
REMARK    5  A    between atoms: C_9  and  O_10
REMARK    6  A    between atoms: C_9  and  C_11
REMARK                            x       y       z     vdW  Elec       q    Type
REMARK                         _______ _______ _______ _____ _____    ______ ____
ROOT
ATOM      1  C   UNL     1      47.158   3.348  16.952  0.00  0.00    +0.000 C 
ENDROOT
BRANCH   1   2
ATOM      2  C   UNL     1      48.603   3.418  17.399  0.00  0.00    +0.000 A 
ATOM      3  C   UNL     1      49.535   2.479  16.963  0.00  0.00    +0.000 A 
ATOM      4  C   UNL     1      50.858   2.565  17.414  0.00  0.00    +0.000 A 
ATOM      5  C   UNL     1      51.237   3.586  18.293  0.00  0.00    +0.000 A 
ATOM      6  C   UNL     1      50.235   4.468  18.683  0.00  0.00    +0.000 A 
ATOM      7  N   UNL     1      48.949   4.419  18.248  0.00  0.00    +0.000 NA
BRANCH   5   8
ATOM      8  C   UNL     1      52.661   3.761  18.790  0.00  0.00    +0.000 C 
BRANCH   8   9
ATOM      9  C   UNL     1      53.607   4.308  17.732  0.00  0.00    +0.000 A 
ATOM     10  C   UNL     1      54.788   3.621  17.422  0.00  0.00    +0.000 A 
ATOM     11  C   UNL     1      55.697   4.206  16.554  0.00  0.00    +0.000 A 
ATOM     12  N   UNL     1      55.502   5.395  15.948  0.00  0.00    +0.000 NA
ATOM     13  C   UNL     1      54.334   6.017  16.205  0.00  0.00    +0.000 A 
ATOM     14  C   UNL     1      53.370   5.520  17.068  0.00  0.00    +0.000 A 
ENDBRANCH   8   9
BRANCH   8  15
ATOM     15  O   UNL     1      53.147   2.513  19.288  0.00  0.00    +0.000 OA
ATOM     16  H   UNL     1      53.256   1.920  18.528  0.00  0.00    +0.000 HD
ENDBRANCH   8  15
ENDBRANCH   5   8
ENDBRANCH   1   2
BRANCH   1  19
ATOM     17  O   UNL     1      47.366   3.083  14.146  0.00  0.00    +0.000 OA
ATOM     18  C   UNL     1      46.993   4.142  14.619  0.00  0.00    +0.000 C 
ATOM     19  N   UNL     1      46.805   4.342  15.968  0.00  0.00    +0.000 N 
ATOM     20  H   UNL     1      46.324   5.168  16.293  0.00  0.00    +0.000 HD
BRANCH  18  21
ATOM     21  C   UNL     1      46.666   5.306  13.789  0.00  0.00    +0.000 A 
ATOM     22  C   UNL     1      47.516   6.393  13.675  0.00  0.00    +0.000 A 
ATOM     23  S   UNL     1      46.922   7.595  12.612  0.00  0.00    +0.000 S 
ATOM     24  C   UNL     1      45.501   6.708  12.305  0.00  0.00    +0.000 A 
ATOM     25  N   UNL     1      44.545   7.164  11.453  0.00  0.00    +0.000 NA
ATOM     26  C   UNL     1      43.534   6.371  11.315  0.00  0.00    +0.000 A 
ATOM     27  N   UNL     1      43.387   5.166  11.955  0.00  0.00    +0.000 N 
ATOM     28  C   UNL     1      44.280   4.712  12.886  0.00  0.00    +0.000 A 
ATOM     29  O   UNL     1      44.042   3.686  13.526  0.00  0.00    +0.000 OA
ATOM     30  C   UNL     1      45.471   5.524  13.022  0.00  0.00    +0.000 A 
ATOM     31  H   UNL     1      42.555   4.609  11.837  0.00  0.00    +0.000 HD
ENDBRANCH  18  21
ENDBRANCH   1  19
TORSDOF 6
ENDMDL
MODEL 8
REMARK VINA RESULT:    -6.686      2.851      4.818
REMARK INTER + INTRA:          -9.916
REMARK INTER:                  -8.721
REMARK INTRA:                  -1.194
REMARK UNBOUND:                -1.080
REMARK  Name = 
REMARK  6 active torsions:
REMARK  status: ('A' for Active; 'I' for Inactive)
REMARK    1  A    between atoms: C_2  and  C_19
REMARK    2  A    between atoms: N_3  and  C_4
REMARK    3  A    between atoms: C_4  and  C_5
REMARK    4  A    between atoms: C_8  and  C_9
REMARK    5  A    between atoms: C_9  and  O_10
REMARK    6  A    between atoms: C_9  and  C_11
REMARK                            x       y       z     vdW  Elec       q    Type
REMARK                         _______ _______ _______ _____ _____    ______ ____
ROOT
ATOM      1  C   UNL     1      47.931   8.686  14.373  0.00  0.00    +0.000 C 
ENDROOT
BRANCH   1   2
ATOM      2  C   UNL     1      47.147   8.015  13.264  0.00  0.00    +0.000 A 
ATOM      3  C   UNL     1      45.837   8.394  12.981  0.00  0.00    +0.000 A 
ATOM      4  C   UNL     1      45.138   7.737  11.961  0.00  0.00    +0.000 A 
ATOM      5  C   UNL     1      45.752   6.711  11.235  0.00  0.00    +0.000 A 
ATOM      6  C   UNL     1      47.056   6.393  11.598  0.00  0.00    +0.000 A 
ATOM      7  N   UNL     1      47.765   7.025  12.570  0.00  0.00    +0.000 NA
BRANCH   5   8
ATOM      8  C   UNL     1      45.067   5.984  10.092  0.00  0.00    +0.000 C 
BRANCH   8   9
ATOM      9  C   UNL     1      44.566   4.598  10.471  0.00  0.00    +0.000 A 
ATOM     10  C   UNL     1      44.785   3.513   9.612  0.00  0.00    +0.000 A 
ATOM     11  C   UNL     1      44.206   2.290   9.914  0.00  0.00    +0.000 A 
ATOM     12  N   UNL     1      43.465   2.060  11.017  0.00  0.00    +0.000 NA
ATOM     13  C   UNL     1      43.314   3.095  11.868  0.00  0.00    +0.000 A 
ATOM     14  C   UNL     1      43.842   4.358  11.646  0.00  0.00    +0.000 A 
ENDBRANCH   8   9
BRANCH   8  15
ATOM     15  O   UNL     1      45.959   5.899   8.979  0.00  0.00    +0.000 OA
ATOM     16  H   UNL     1      46.261   4.978   8.919  0.00  0.00    +0.000 HD
ENDBRANCH   8  15
ENDBRANCH   5   8
ENDBRANCH   1   2
BRANCH   1  19
ATOM     17  O   UNL     1      50.384   7.342  14.777  0.00  0.00    +0.000 OA
ATOM     18  C   UNL     1      49.465   7.151  15.553  0.00  0.00    +0.000 C 
ATOM     19  N   UNL     1      48.257   7.807  15.469  0.00  0.00    +0.000 N 
ATOM     20  H   UNL     1      47.600   7.754  16.234  0.00  0.00    +0.000 HD
BRANCH  18  21
ATOM     21  C   UNL     1      49.567   6.227  16.687  0.00  0.00    +0.000 A 
ATOM     22  C   UNL     1      50.503   6.394  17.694  0.00  0.00    +0.000 A 
ATOM     23  S   UNL     1      50.381   5.208  18.920  0.00  0.00    +0.000 S 
ATOM     24  C   UNL     1      49.098   4.425  18.121  0.00  0.00    +0.000 A 
ATOM     25  N   UNL     1      48.499   3.322  18.644  0.00  0.00    +0.000 NA
ATOM     26  C   UNL     1      47.532   2.852  17.926  0.00  0.00    +0.000 A 
ATOM     27  N   UNL     1      47.113   3.378  16.731  0.00  0.00    +0.000 N 
ATOM     28  C   UNL     1      47.743   4.431  16.127  0.00  0.00    +0.000 A 
ATOM     29  O   UNL     1      47.411   4.788  14.995  0.00  0.00    +0.000 OA
ATOM     30  C   UNL     1      48.784   5.046  16.925  0.00  0.00    +0.000 A 
ATOM     31  H   UNL     1      46.377   2.942  16.196  0.00  0.00    +0.000 HD
ENDBRANCH  18  21
ENDBRANCH   1  19
TORSDOF 6
ENDMDL
MODEL 9
REMARK VINA RESULT:    -6.128      4.824      8.413
REMARK INTER + INTRA:          -9.178
REMARK INTER:                  -8.288
REMARK INTRA:                  -0.891
REMARK UNBOUND:                -1.080
REMARK  Name = 
REMARK  6 active torsions:
REMARK  status: ('A' for Active; 'I' for Inactive)
REMARK    1  A    between atoms: C_2  and  C_19
REMARK    2  A    between atoms: N_3  and  C_4
REMARK    3  A    between atoms: C_4  and  C_5
REMARK    4  A    between atoms: C_8  and  C_9
REMARK    5  A    between atoms: C_9  and  O_10
REMARK    6  A    between atoms: C_9  and  C_11
REMARK                            x       y       z     vdW  Elec       q    Type
REMARK                         _______ _______ _______ _____ _____    ______ ____
ROOT
ATOM      1  C   UNL     1      47.149   3.585  17.074  0.00  0.00    +0.000 C 
ENDROOT
BRANCH   1   2
ATOM      2  C   UNL     1      48.510   3.826  17.691  0.00  0.00    +0.000 A 
ATOM      3  C   UNL     1      48.642   4.534  18.884  0.00  0.00    +0.000 A 
ATOM      4  C   UNL     1      49.919   4.753  19.414  0.00  0.00    +0.000 A 
ATOM      5  C   UNL     1      51.050   4.262  18.751  0.00  0.00    +0.000 A 
ATOM      6  C   UNL     1      50.821   3.580  17.561  0.00  0.00    +0.000 A 
ATOM      7  N   UNL     1      49.593   3.338  17.033  0.00  0.00    +0.000 NA
BRANCH   5   8
ATOM      8  C   UNL     1      52.460   4.430  19.289  0.00  0.00    +0.000 C 
BRANCH   8   9
ATOM      9  C   UNL     1      53.501   3.634  18.517  0.00  0.00    +0.000 A 
ATOM     10  C   UNL     1      54.401   4.291  17.668  0.00  0.00    +0.000 A 
ATOM     11  C   UNL     1      55.250   3.534  16.875  0.00  0.00    +0.000 A 
ATOM     12  N   UNL     1      55.296   2.187  16.892  0.00  0.00    +0.000 NA
ATOM     13  C   UNL     1      54.470   1.568  17.760  0.00  0.00    +0.000 A 
ATOM     14  C   UNL     1      53.575   2.235  18.582  0.00  0.00    +0.000 A 
ENDBRANCH   8   9
BRANCH   8  15
ATOM     15  O   UNL     1      52.488   4.067  20.671  0.00  0.00    +0.000 OA
ATOM     16  H   UNL     1      53.347   4.343  21.026  0.00  0.00    +0.000 HD
ENDBRANCH   8  15
ENDBRANCH   5   8
ENDBRANCH   1   2
BRANCH   1  19
ATOM     17  O   UNL     1      47.440   2.960  14.333  0.00  0.00    +0.000 OA
ATOM     18  C   UNL     1      47.080   4.079  14.655  0.00  0.00    +0.000 C 
ATOM     19  N   UNL     1      46.854   4.453  15.960  0.00  0.00    +0.000 N 
ATOM     20  H   UNL     1      46.383   5.324  16.160  0.00  0.00    +0.000 HD
BRANCH  18  21
ATOM     21  C   UNL     1      46.810   5.135  13.674  0.00  0.00    +0.000 A 
ATOM     22  C   UNL     1      45.809   5.022  12.724  0.00  0.00    +0.000 A 
ATOM     23  S   UNL     1      45.672   6.409  11.732  0.00  0.00    +0.000 S 
ATOM     24  C   UNL     1      46.968   7.179  12.524  0.00  0.00    +0.000 A 
ATOM     25  N   UNL     1      47.376   8.427  12.175  0.00  0.00    +0.000 NA
ATOM     26  C   UNL     1      48.362   8.880  12.879  0.00  0.00    +0.000 A 
ATOM     27  N   UNL     1      48.981   8.197  13.894  0.00  0.00    +0.000 N 
ATOM     28  C   UNL     1      48.661   6.908  14.218  0.00  0.00    +0.000 A 
ATOM     29  O   UNL     1      49.329   6.292  15.052  0.00  0.00    +0.000 OA
ATOM     30  C   UNL     1      47.511   6.379  13.515  0.00  0.00    +0.000 A 
ATOM     31  H   UNL     1      49.773   8.588  14.381  0.00  0.00    +0.000 HD
ENDBRANCH  18  21
ENDBRANCH   1  19
TORSDOF 6
ENDMDL
