MODEL 1
REMARK VINA RESULT:    -7.906      0.000      0.000
REMARK INTER + INTRA:         -12.667
REMARK INTER:                 -11.603
REMARK INTRA:                  -1.064
REMARK UNBOUND:                -1.064
REMARK  Name = 
REMARK  12 active torsions:
REMARK  status: ('A' for Active; 'I' for Inactive)
REMARK    1  A    between atoms: C_1  and  N_2
REMARK    2  A    between atoms: N_2  and  C_3
REMARK    3  A    between atoms: N_2  and  C_4
REMARK    4  A    between atoms: C_4  and  C_5
REMARK    5  A    between atoms: C_5  and  O_6
REMARK    6  A    between atoms: O_6  and  C_7
REMARK    7  A    between atoms: C_10  and  C_11
REMARK    8  A    between atoms: C_11  and  C_12
REMARK    9  A    between atoms: C_11  and  C_13
REMARK   10  A    between atoms: C_11  and  C_14
REMARK   11  A    between atoms: C_14  and  N_15
REMARK   12  A    between atoms: C_19  and  C_20
REMARK                            x       y       z     vdW  Elec       q    Type
REMARK                         _______ _______ _______ _____ _____    ______ ____
ROOT
ATOM      1  C   UNL     1      43.661   5.483  11.957  0.00  0.00    +0.000 C 
ATOM      2  C   UNL     1      42.890   5.088  13.236  0.00  0.00    +0.000 C 
ATOM      3  C   UNL     1      43.047   6.795  11.402  0.00  0.00    +0.000 C 
ENDROOT
BRANCH   1   7
ATOM      4  C   UNL     1      47.850   6.256  12.996  0.00  0.00    +0.000 A 
ATOM      5  C   UNL     1      47.171   7.106  12.129  0.00  0.00    +0.000 A 
ATOM      6  C   UNL     1      45.837   6.862  11.789  0.00  0.00    +0.000 A 
ATOM      7  C   UNL     1      45.142   5.753  12.289  0.00  0.00    +0.000 A 
ATOM      8  C   UNL     1      45.856   4.887  13.141  0.00  0.00    +0.000 A 
ATOM      9  C   UNL     1      47.191   5.133  13.485  0.00  0.00    +0.000 A 
BRANCH   4  10
ATOM     10  O   UNL     1      49.148   6.411  13.402  0.00  0.00    +0.000 OA
BRANCH  10  11
ATOM     11  C   UNL     1      49.432   7.662  14.042  0.00  0.00    +0.000 C 
BRANCH  11  12
ATOM     12  C   UNL     1      49.399   7.474  15.566  0.00  0.00    +0.000 C 
BRANCH  12  14
ATOM     13  C   UNL     1      51.032   6.138  16.721  0.00  0.00    +0.000 C 
ATOM     14  N   UNL     1      49.749   6.110  16.016  0.00  0.00    +0.000 NA
ATOM     15  C   UNL     1      48.723   5.526  16.884  0.00  0.00    +0.000 C 
ENDBRANCH  12  14
ENDBRANCH  11  12
ENDBRANCH  10  11
ENDBRANCH   4  10
ENDBRANCH   1   7
BRANCH   1  16
ATOM     16  C   UNL     1      43.405   4.402  10.850  0.00  0.00    +0.000 C 
BRANCH  16  17
ATOM     17  N   UNL     1      43.924   4.766   9.538  0.00  0.00    +0.000 N 
ATOM     18  C   UNL     1      44.884   3.998   8.911  0.00  0.00    +0.000 A 
ATOM     19  C   UNL     1      45.027   2.614   9.073  0.00  0.00    +0.000 A 
ATOM     20  N   UNL     1      45.945   1.855   8.418  0.00  0.00    +0.000 NA
ATOM     21  C   UNL     1      46.723   2.550   7.547  0.00  0.00    +0.000 A 
ATOM     22  C   UNL     1      46.585   3.913   7.355  0.00  0.00    +0.000 A 
ATOM     23  N   UNL     1      45.671   4.658   8.037  0.00  0.00    +0.000 NA
ATOM     24  H   UNL     1      44.114   5.748   9.359  0.00  0.00    +0.000 HD
BRANCH  21  25
ATOM     25  C   UNL     1      47.743   1.783   6.784  0.00  0.00    +0.000 C 
ATOM     26  N   UNL     1      48.758   2.530   6.248  0.00  0.00    +0.000 N 
ATOM     27  O   UNL     1      47.679   0.569   6.640  0.00  0.00    +0.000 OA
ATOM     28  H   UNL     1      48.773   3.535   6.386  0.00  0.00    +0.000 HD
ATOM     29  H   UNL     1      49.484   2.075   5.714  0.00  0.00    +0.000 HD
ENDBRANCH  21  25
ENDBRANCH  16  17
ENDBRANCH   1  16
TORSDOF 8
ENDMDL
MODEL 2
REMARK VINA RESULT:    -7.366      1.473      2.258
REMARK INTER + INTRA:         -11.875
REMARK INTER:                 -10.833
REMARK INTRA:                  -1.042
REMARK UNBOUND:                -1.064
REMARK  Name = 
REMARK  12 active torsions:
REMARK  status: ('A' for Active; 'I' for Inactive)
REMARK    1  A    between atoms: C_1  and  N_2
REMARK    2  A    between atoms: N_2  and  C_3
REMARK    3  A    between atoms: N_2  and  C_4
REMARK    4  A    between atoms: C_4  and  C_5
REMARK    5  A    between atoms: C_5  and  O_6
REMARK    6  A    between atoms: O_6  and  C_7
REMARK    7  A    between atoms: C_10  and  C_11
REMARK    8  A    between atoms: C_11  and  C_12
REMARK    9  A    between atoms: C_11  and  C_13
REMARK   10  A    between atoms: C_11  and  C_14
REMARK   11  A    between atoms: C_14  and  N_15
REMARK   12  A    between atoms: C_19  and  C_20
REMARK                            x       y       z     vdW  Elec       q    Type
REMARK                         _______ _______ _______ _____ _____    ______ ____
ROOT
ATOM      1  C   UNL     1      43.616   5.472  12.036  0.00  0.00    +0.000 C 
ATOM      2  C   UNL     1      42.734   5.116  13.253  0.00  0.00    +0.000 C 
ATOM      3  C   UNL     1      43.091   6.795  11.421  0.00  0.00    +0.000 C 
ENDROOT
BRANCH   1   7
ATOM      4  C   UNL     1      47.786   6.139  13.218  0.00  0.00    +0.000 A 
ATOM      5  C   UNL     1      47.161   4.927  13.494  0.00  0.00    +0.000 A 
ATOM      6  C   UNL     1      45.830   4.710  13.124  0.00  0.00    +0.000 A 
ATOM      7  C   UNL     1      45.074   5.700  12.484  0.00  0.00    +0.000 A 
ATOM      8  C   UNL     1      45.715   6.932  12.241  0.00  0.00    +0.000 A 
ATOM      9  C   UNL     1      47.049   7.148  12.606  0.00  0.00    +0.000 A 
BRANCH   4  10
ATOM     10  O   UNL     1      49.084   6.448  13.524  0.00  0.00    +0.000 OA
BRANCH  10  11
ATOM     11  C   UNL     1      49.315   7.827  13.840  0.00  0.00    +0.000 C 
BRANCH  11  12
ATOM     12  C   UNL     1      50.746   8.210  13.435  0.00  0.00    +0.000 C 
BRANCH  12  14
ATOM     13  C   UNL     1      51.170   7.909  11.087  0.00  0.00    +0.000 C 
ATOM     14  N   UNL     1      50.845   8.888  12.126  0.00  0.00    +0.000 NA
ATOM     15  C   UNL     1      49.614   9.597  11.767  0.00  0.00    +0.000 C 
ENDBRANCH  12  14
ENDBRANCH  11  12
ENDBRANCH  10  11
ENDBRANCH   4  10
ENDBRANCH   1   7
BRANCH   1  16
ATOM     16  C   UNL     1      43.416   4.385  10.923  0.00  0.00    +0.000 C 
BRANCH  16  17
ATOM     17  N   UNL     1      43.932   4.776   9.618  0.00  0.00    +0.000 N 
ATOM     18  C   UNL     1      44.891   4.021   8.973  0.00  0.00    +0.000 A 
ATOM     19  C   UNL     1      45.035   2.634   9.107  0.00  0.00    +0.000 A 
ATOM     20  N   UNL     1      45.951   1.889   8.434  0.00  0.00    +0.000 NA
ATOM     21  C   UNL     1      46.726   2.601   7.575  0.00  0.00    +0.000 A 
ATOM     22  C   UNL     1      46.588   3.968   7.411  0.00  0.00    +0.000 A 
ATOM     23  N   UNL     1      45.676   4.699   8.111  0.00  0.00    +0.000 NA
ATOM     24  H   UNL     1      44.122   5.762   9.458  0.00  0.00    +0.000 HD
BRANCH  21  25
ATOM     25  C   UNL     1      47.745   1.850   6.794  0.00  0.00    +0.000 C 
ATOM     26  N   UNL     1      48.751   2.609   6.260  0.00  0.00    +0.000 N 
ATOM     27  O   UNL     1      47.687   0.638   6.636  0.00  0.00    +0.000 OA
ATOM     28  H   UNL     1      48.762   3.613   6.412  0.00  0.00    +0.000 HD
ATOM     29  H   UNL     1      49.476   2.166   5.715  0.00  0.00    +0.000 HD
ENDBRANCH  21  25
ENDBRANCH  16  17
ENDBRANCH   1  16
TORSDOF 8
ENDMDL
MODEL 3
REMARK VINA RESULT:    -7.037      1.447      2.203
REMARK INTER + INTRA:         -11.392
REMARK INTER:                 -10.443
REMARK INTRA:                  -0.949
REMARK UNBOUND:                -1.064
REMARK  Name = 
REMARK  12 active torsions:
REMARK  status: ('A' for Active; 'I' for Inactive)
REMARK    1  A    between atoms: C_1  and  N_2
REMARK    2  A    between atoms: N_2  and  C_3
REMARK    3  A    between atoms: N_2  and  C_4
REMARK    4  A    between atoms: C_4  and  C_5
REMARK    5  A    between atoms: C_5  and  O_6
REMARK    6  A    between atoms: O_6  and  C_7
REMARK    7  A    between atoms: C_10  and  C_11
REMARK    8  A    between atoms: C_11  and  C_12
REMARK    9  A    between atoms: C_11  and  C_13
REMARK   10  A    between atoms: C_11  and  C_14
REMARK   11  A    between atoms: C_14  and  N_15
REMARK   12  A    between atoms: C_19  and  C_20
REMARK                            x       y       z     vdW  Elec       q    Type
REMARK                         _______ _______ _______ _____ _____    ______ ____
ROOT
ATOM      1  C   UNL     1      43.608   5.362  11.868  0.00  0.00    +0.000 C 
ATOM      2  C   UNL     1      42.890   4.907  13.158  0.00  0.00    +0.000 C 
ATOM      3  C   UNL     1      42.951   6.680  11.381  0.00  0.00    +0.000 C 
ENDROOT
BRANCH   1   7
ATOM      4  C   UNL     1      47.810   6.227  12.778  0.00  0.00    +0.000 A 
ATOM      5  C   UNL     1      47.238   6.680  11.593  0.00  0.00    +0.000 A 
ATOM      6  C   UNL     1      45.900   6.403  11.295  0.00  0.00    +0.000 A 
ATOM      7  C   UNL     1      45.094   5.650  12.159  0.00  0.00    +0.000 A 
ATOM      8  C   UNL     1      45.700   5.174  13.339  0.00  0.00    +0.000 A 
ATOM      9  C   UNL     1      47.039   5.455  13.641  0.00  0.00    +0.000 A 
BRANCH   4  10
ATOM     10  O   UNL     1      49.101   6.454  13.171  0.00  0.00    +0.000 OA
BRANCH  10  11
ATOM     11  C   UNL     1      49.242   6.995  14.490  0.00  0.00    +0.000 C 
BRANCH  11  12
ATOM     12  C   UNL     1      50.176   8.213  14.446  0.00  0.00    +0.000 C 
BRANCH  12  14
ATOM     13  C   UNL     1      49.996  10.076  12.936  0.00  0.00    +0.000 C 
ATOM     14  N   UNL     1      50.473   8.699  13.083  0.00  0.00    +0.000 NA
ATOM     15  C   UNL     1      51.902   8.637  12.764  0.00  0.00    +0.000 C 
ENDBRANCH  12  14
ENDBRANCH  11  12
ENDBRANCH  10  11
ENDBRANCH   4  10
ENDBRANCH   1   7
BRANCH   1  16
ATOM     16  C   UNL     1      43.335   4.315  10.733  0.00  0.00    +0.000 C 
BRANCH  16  17
ATOM     17  N   UNL     1      44.388   3.319  10.582  0.00  0.00    +0.000 N 
ATOM     18  C   UNL     1      45.098   3.203   9.405  0.00  0.00    +0.000 A 
ATOM     19  C   UNL     1      45.364   4.261   8.527  0.00  0.00    +0.000 A 
ATOM     20  N   UNL     1      46.103   4.150   7.392  0.00  0.00    +0.000 NA
ATOM     21  C   UNL     1      46.605   2.907   7.173  0.00  0.00    +0.000 A 
ATOM     22  C   UNL     1      46.373   1.851   8.037  0.00  0.00    +0.000 A 
ATOM     23  N   UNL     1      45.612   1.980   9.160  0.00  0.00    +0.000 NA
ATOM     24  H   UNL     1      44.222   2.392  10.965  0.00  0.00    +0.000 HD
BRANCH  21  25
ATOM     25  C   UNL     1      47.435   2.711   5.954  0.00  0.00    +0.000 C 
ATOM     26  N   UNL     1      48.728   2.324   6.182  0.00  0.00    +0.000 N 
ATOM     27  O   UNL     1      46.995   2.889   4.826  0.00  0.00    +0.000 OA
ATOM     28  H   UNL     1      49.056   2.191   7.133  0.00  0.00    +0.000 HD
ATOM     29  H   UNL     1      49.350   2.176   5.401  0.00  0.00    +0.000 HD
ENDBRANCH  21  25
ENDBRANCH  16  17
ENDBRANCH   1  16
TORSDOF 8
ENDMDL
MODEL 4
REMARK VINA RESULT:    -6.061      2.820      8.144
REMARK INTER + INTRA:          -9.959
REMARK INTER:                  -9.002
REMARK INTRA:                  -0.957
REMARK UNBOUND:                -1.064
REMARK  Name = 
REMARK  12 active torsions:
REMARK  status: ('A' for Active; 'I' for Inactive)
REMARK    1  A    between atoms: C_1  and  N_2
REMARK    2  A    between atoms: N_2  and  C_3
REMARK    3  A    between atoms: N_2  and  C_4
REMARK    4  A    between atoms: C_4  and  C_5
REMARK    5  A    between atoms: C_5  and  O_6
REMARK    6  A    between atoms: O_6  and  C_7
REMARK    7  A    between atoms: C_10  and  C_11
REMARK    8  A    between atoms: C_11  and  C_12
REMARK    9  A    between atoms: C_11  and  C_13
REMARK   10  A    between atoms: C_11  and  C_14
REMARK   11  A    between atoms: C_14  and  N_15
REMARK   12  A    between atoms: C_19  and  C_20
REMARK                            x       y       z     vdW  Elec       q    Type
REMARK                         _______ _______ _______ _____ _____    ______ ____
ROOT
ATOM      1  C   UNL     1      48.141   7.706  12.994  0.00  0.00    +0.000 C 
ATOM      2  C   UNL     1      49.404   7.078  12.364  0.00  0.00    +0.000 C 
ATOM      3  C   UNL     1      47.686   8.889  12.100  0.00  0.00    +0.000 C 
ENDROOT
BRANCH   1   7
ATOM      4  C   UNL     1      44.848   4.817  13.187  0.00  0.00    +0.000 A 
ATOM      5  C   UNL     1      46.163   4.398  13.359  0.00  0.00    +0.000 A 
ATOM      6  C   UNL     1      47.218   5.313  13.293  0.00  0.00    +0.000 A 
ATOM      7  C   UNL     1      46.998   6.673  13.037  0.00  0.00    +0.000 A 
ATOM      8  C   UNL     1      45.661   7.073  12.835  0.00  0.00    +0.000 A 
ATOM      9  C   UNL     1      44.604   6.157  12.905  0.00  0.00    +0.000 A 
BRANCH   4  10
ATOM     10  O   UNL     1      43.746   4.008  13.246  0.00  0.00    +0.000 OA
BRANCH  10  11
ATOM     11  C   UNL     1      43.794   2.863  12.385  0.00  0.00    +0.000 C 
BRANCH  11  12
ATOM     12  C   UNL     1      43.610   3.312  10.928  0.00  0.00    +0.000 C 
BRANCH  12  14
ATOM     13  C   UNL     1      44.683   2.152   9.115  0.00  0.00    +0.000 C 
ATOM     14  N   UNL     1      44.835   3.219  10.106  0.00  0.00    +0.000 NA
ATOM     15  C   UNL     1      45.153   4.478   9.429  0.00  0.00    +0.000 C 
ENDBRANCH  12  14
ENDBRANCH  11  12
ENDBRANCH  10  11
ENDBRANCH   4  10
ENDBRANCH   1   7
BRANCH   1  16
ATOM     16  C   UNL     1      48.521   8.348  14.374  0.00  0.00    +0.000 C 
BRANCH  16  17
ATOM     17  N   UNL     1      48.107   7.558  15.526  0.00  0.00    +0.000 N 
ATOM     18  C   UNL     1      48.951   6.625  16.094  0.00  0.00    +0.000 A 
ATOM     19  C   UNL     1      50.348   6.716  16.101  0.00  0.00    +0.000 A 
ATOM     20  N   UNL     1      51.173   5.818  16.702  0.00  0.00    +0.000 NA
ATOM     21  C   UNL     1      50.526   4.806  17.338  0.00  0.00    +0.000 A 
ATOM     22  C   UNL     1      49.146   4.707  17.361  0.00  0.00    +0.000 A 
ATOM     23  N   UNL     1      48.339   5.608  16.735  0.00  0.00    +0.000 NA
ATOM     24  H   UNL     1      47.156   7.198  15.537  0.00  0.00    +0.000 HD
BRANCH  21  25
ATOM     25  C   UNL     1      51.364   3.790  18.029  0.00  0.00    +0.000 C 
ATOM     26  N   UNL     1      51.364   2.545  17.460  0.00  0.00    +0.000 N 
ATOM     27  O   UNL     1      52.006   4.046  19.039  0.00  0.00    +0.000 OA
ATOM     28  H   UNL     1      50.816   2.371  16.624  0.00  0.00    +0.000 HD
ATOM     29  H   UNL     1      51.908   1.805  17.878  0.00  0.00    +0.000 HD
ENDBRANCH  21  25
ENDBRANCH  16  17
ENDBRANCH   1  16
TORSDOF 8
ENDMDL
MODEL 5
REMARK VINA RESULT:    -6.044      2.817      8.659
REMARK INTER + INTRA:          -9.935
REMARK INTER:                  -8.848
REMARK INTRA:                  -1.088
REMARK UNBOUND:                -1.064
REMARK  Name = 
REMARK  12 active torsions:
REMARK  status: ('A' for Active; 'I' for Inactive)
REMARK    1  A    between atoms: C_1  and  N_2
REMARK    2  A    between atoms: N_2  and  C_3
REMARK    3  A    between atoms: N_2  and  C_4
REMARK    4  A    between atoms: C_4  and  C_5
REMARK    5  A    between atoms: C_5  and  O_6
REMARK    6  A    between atoms: O_6  and  C_7
REMARK    7  A    between atoms: C_10  and  C_11
REMARK    8  A    between atoms: C_11  and  C_12
REMARK    9  A    between atoms: C_11  and  C_13
REMARK   10  A    between atoms: C_11  and  C_14
REMARK   11  A    between atoms: C_14  and  N_15
REMARK   12  A    between atoms: C_19  and  C_20
REMARK                            x       y       z     vdW  Elec       q    Type
REMARK                         _______ _______ _______ _____ _____    ______ ____
ROOT
ATOM      1  C   UNL     1      48.448   7.682  13.173  0.00  0.00    +0.000 C 
ATOM      2  C   UNL     1      49.051   7.743  11.752  0.00  0.00    +0.000 C 
ATOM      3  C   UNL     1      47.966   9.105  13.561  0.00  0.00    +0.000 C 
ENDROOT
BRANCH   1   7
ATOM      4  C   UNL     1      45.016   4.953  13.168  0.00  0.00    +0.000 A 
ATOM      5  C   UNL     1      44.864   6.275  12.766  0.00  0.00    +0.000 A 
ATOM      6  C   UNL     1      45.953   7.152  12.770  0.00  0.00    +0.000 A 
ATOM      7  C   UNL     1      47.225   6.743  13.192  0.00  0.00    +0.000 A 
ATOM      8  C   UNL     1      47.352   5.408  13.626  0.00  0.00    +0.000 A 
ATOM      9  C   UNL     1      46.263   4.529  13.617  0.00  0.00    +0.000 A 
BRANCH   4  10
ATOM     10  O   UNL     1      44.022   4.012  13.189  0.00  0.00    +0.000 OA
BRANCH  10  11
ATOM     11  C   UNL     1      43.222   3.957  12.001  0.00  0.00    +0.000 C 
BRANCH  11  12
ATOM     12  C   UNL     1      43.656   2.755  11.149  0.00  0.00    +0.000 C 
BRANCH  12  14
ATOM     13  C   UNL     1      44.720   1.998   9.130  0.00  0.00    +0.000 C 
ATOM     14  N   UNL     1      44.671   3.073  10.124  0.00  0.00    +0.000 NA
ATOM     15  C   UNL     1      44.412   4.350   9.455  0.00  0.00    +0.000 C 
ENDBRANCH  12  14
ENDBRANCH  11  12
ENDBRANCH  10  11
ENDBRANCH   4  10
ENDBRANCH   1   7
BRANCH   1  16
ATOM     16  C   UNL     1      49.583   7.332  14.197  0.00  0.00    +0.000 C 
BRANCH  16  17
ATOM     17  N   UNL     1      49.320   7.800  15.551  0.00  0.00    +0.000 N 
ATOM     18  C   UNL     1      49.162   6.912  16.596  0.00  0.00    +0.000 A 
ATOM     19  C   UNL     1      49.779   5.657  16.674  0.00  0.00    +0.000 A 
ATOM     20  N   UNL     1      49.655   4.805  17.727  0.00  0.00    +0.000 NA
ATOM     21  C   UNL     1      48.888   5.282  18.742  0.00  0.00    +0.000 A 
ATOM     22  C   UNL     1      48.286   6.526  18.695  0.00  0.00    +0.000 A 
ATOM     23  N   UNL     1      48.407   7.356  17.621  0.00  0.00    +0.000 NA
ATOM     24  H   UNL     1      48.669   8.572  15.669  0.00  0.00    +0.000 HD
BRANCH  21  25
ATOM     25  C   UNL     1      48.718   4.409  19.934  0.00  0.00    +0.000 C 
ATOM     26  N   UNL     1      48.373   3.111  19.666  0.00  0.00    +0.000 N 
ATOM     27  O   UNL     1      48.870   4.822  21.076  0.00  0.00    +0.000 OA
ATOM     28  H   UNL     1      48.252   2.808  18.706  0.00  0.00    +0.000 HD
ATOM     29  H   UNL     1      48.237   2.464  20.428  0.00  0.00    +0.000 HD
ENDBRANCH  21  25
ENDBRANCH  16  17
ENDBRANCH   1  16
TORSDOF 8
ENDMDL
MODEL 6
REMARK VINA RESULT:    -5.969      3.155      7.907
REMARK INTER + INTRA:          -9.824
REMARK INTER:                  -8.686
REMARK INTRA:                  -1.139
REMARK UNBOUND:                -1.064
REMARK  Name = 
REMARK  12 active torsions:
REMARK  status: ('A' for Active; 'I' for Inactive)
REMARK    1  A    between atoms: C_1  and  N_2
REMARK    2  A    between atoms: N_2  and  C_3
REMARK    3  A    between atoms: N_2  and  C_4
REMARK    4  A    between atoms: C_4  and  C_5
REMARK    5  A    between atoms: C_5  and  O_6
REMARK    6  A    between atoms: O_6  and  C_7
REMARK    7  A    between atoms: C_10  and  C_11
REMARK    8  A    between atoms: C_11  and  C_12
REMARK    9  A    between atoms: C_11  and  C_13
REMARK   10  A    between atoms: C_11  and  C_14
REMARK   11  A    between atoms: C_14  and  N_15
REMARK   12  A    between atoms: C_19  and  C_20
REMARK                            x       y       z     vdW  Elec       q    Type
REMARK                         _______ _______ _______ _____ _____    ______ ____
ROOT
ATOM      1  C   UNL     1      49.260   8.641  12.865  0.00  0.00    +0.000 C 
ATOM      2  C   UNL     1      50.319   7.774  12.150  0.00  0.00    +0.000 C 
ATOM      3  C   UNL     1      49.377  10.093  12.334  0.00  0.00    +0.000 C 
ENDROOT
BRANCH   1   7
ATOM      4  C   UNL     1      45.250   7.190  11.841  0.00  0.00    +0.000 A 
ATOM      5  C   UNL     1      45.408   8.325  12.629  0.00  0.00    +0.000 A 
ATOM      6  C   UNL     1      46.684   8.790  12.964  0.00  0.00    +0.000 A 
ATOM      7  C   UNL     1      47.843   8.128  12.538  0.00  0.00    +0.000 A 
ATOM      8  C   UNL     1      47.662   6.962  11.766  0.00  0.00    +0.000 A 
ATOM      9  C   UNL     1      46.384   6.499  11.427  0.00  0.00    +0.000 A 
BRANCH   4  10
ATOM     10  O   UNL     1      44.051   6.661  11.446  0.00  0.00    +0.000 OA
BRANCH  10  11
ATOM     11  C   UNL     1      43.630   5.508  12.186  0.00  0.00    +0.000 C 
BRANCH  11  12
ATOM     12  C   UNL     1      43.141   4.427  11.211  0.00  0.00    +0.000 C 
BRANCH  12  14
ATOM     13  C   UNL     1      44.529   2.996   9.865  0.00  0.00    +0.000 C 
ATOM     14  N   UNL     1      43.967   3.201  11.202  0.00  0.00    +0.000 NA
ATOM     15  C   UNL     1      45.049   3.246  12.188  0.00  0.00    +0.000 C 
ENDBRANCH  12  14
ENDBRANCH  11  12
ENDBRANCH  10  11
ENDBRANCH   4  10
ENDBRANCH   1   7
BRANCH   1  16
ATOM     16  C   UNL     1      49.610   8.724  14.391  0.00  0.00    +0.000 C 
BRANCH  16  17
ATOM     17  N   UNL     1      50.304   7.549  14.902  0.00  0.00    +0.000 N 
ATOM     18  C   UNL     1      49.639   6.591  15.639  0.00  0.00    +0.000 A 
ATOM     19  C   UNL     1      48.283   6.273  15.493  0.00  0.00    +0.000 A 
ATOM     20  N   UNL     1      47.644   5.297  16.190  0.00  0.00    +0.000 NA
ATOM     21  C   UNL     1      48.443   4.610  17.048  0.00  0.00    +0.000 A 
ATOM     22  C   UNL     1      49.790   4.893  17.194  0.00  0.00    +0.000 A 
ATOM     23  N   UNL     1      50.406   5.890  16.499  0.00  0.00    +0.000 NA
ATOM     24  H   UNL     1      51.236   7.679  15.287  0.00  0.00    +0.000 HD
BRANCH  21  25
ATOM     25  C   UNL     1      47.815   3.517  17.837  0.00  0.00    +0.000 C 
ATOM     26  N   UNL     1      48.440   3.212  19.016  0.00  0.00    +0.000 N 
ATOM     27  O   UNL     1      46.812   2.928  17.458  0.00  0.00    +0.000 OA
ATOM     28  H   UNL     1      49.273   3.721  19.294  0.00  0.00    +0.000 HD
ATOM     29  H   UNL     1      48.070   2.478  19.602  0.00  0.00    +0.000 HD
ENDBRANCH  21  25
ENDBRANCH  16  17
ENDBRANCH   1  16
TORSDOF 8
ENDMDL
MODEL 7
REMARK VINA RESULT:    -5.911      4.724      7.259
REMARK INTER + INTRA:          -9.739
REMARK INTER:                  -9.044
REMARK INTRA:                  -0.695
REMARK UNBOUND:                -1.064
REMARK  Name = 
REMARK  12 active torsions:
REMARK  status: ('A' for Active; 'I' for Inactive)
REMARK    1  A    between atoms: C_1  and  N_2
REMARK    2  A    between atoms: N_2  and  C_3
REMARK    3  A    between atoms: N_2  and  C_4
REMARK    4  A    between atoms: C_4  and  C_5
REMARK    5  A    between atoms: C_5  and  O_6
REMARK    6  A    between atoms: O_6  and  C_7
REMARK    7  A    between atoms: C_10  and  C_11
REMARK    8  A    between atoms: C_11  and  C_12
REMARK    9  A    between atoms: C_11  and  C_13
REMARK   10  A    between atoms: C_11  and  C_14
REMARK   11  A    between atoms: C_14  and  N_15
REMARK   12  A    between atoms: C_19  and  C_20
REMARK                            x       y       z     vdW  Elec       q    Type
REMARK                         _______ _______ _______ _____ _____    ______ ____
ROOT
ATOM      1  C   UNL     1      48.069   4.057  17.216  0.00  0.00    +0.000 C 
ATOM      2  C   UNL     1      47.069   2.897  17.421  0.00  0.00    +0.000 C 
ATOM      3  C   UNL     1      47.822   5.117  18.320  0.00  0.00    +0.000 C 
ENDROOT
BRANCH   1   7
ATOM      4  C   UNL     1      52.155   2.540  17.702  0.00  0.00    +0.000 A 
ATOM      5  C   UNL     1      51.881   3.894  17.872  0.00  0.00    +0.000 A 
ATOM      6  C   UNL     1      50.581   4.384  17.713  0.00  0.00    +0.000 A 
ATOM      7  C   UNL     1      49.516   3.545  17.362  0.00  0.00    +0.000 A 
ATOM      8  C   UNL     1      49.819   2.183  17.164  0.00  0.00    +0.000 A 
ATOM      9  C   UNL     1      51.119   1.690  17.328  0.00  0.00    +0.000 A 
BRANCH   4  10
ATOM     10  O   UNL     1      53.385   1.957  17.847  0.00  0.00    +0.000 OA
BRANCH  10  11
ATOM     11  C   UNL     1      53.502   0.651  17.270  0.00  0.00    +0.000 C 
BRANCH  11  12
ATOM     12  C   UNL     1      54.128  -0.306  18.296  0.00  0.00    +0.000 C 
BRANCH  12  14
ATOM     13  C   UNL     1      54.675  -2.648  18.313  0.00  0.00    +0.000 C 
ATOM     14  N   UNL     1      54.987  -1.352  17.704  0.00  0.00    +0.000 NA
ATOM     15  C   UNL     1      54.838  -1.444  16.249  0.00  0.00    +0.000 C 
ENDBRANCH  12  14
ENDBRANCH  11  12
ENDBRANCH  10  11
ENDBRANCH   4  10
ENDBRANCH   1   7
BRANCH   1  16
ATOM     16  C   UNL     1      47.744   4.780  15.862  0.00  0.00    +0.000 C 
BRANCH  16  17
ATOM     17  N   UNL     1      47.406   3.871  14.775  0.00  0.00    +0.000 N 
ATOM     18  C   UNL     1      46.479   4.221  13.814  0.00  0.00    +0.000 A 
ATOM     19  C   UNL     1      46.229   5.531  13.388  0.00  0.00    +0.000 A 
ATOM     20  N   UNL     1      45.346   5.865  12.409  0.00  0.00    +0.000 NA
ATOM     21  C   UNL     1      44.723   4.804  11.835  0.00  0.00    +0.000 A 
ATOM     22  C   UNL     1      44.969   3.499  12.226  0.00  0.00    +0.000 A 
ATOM     23  N   UNL     1      45.843   3.188  13.223  0.00  0.00    +0.000 NA
ATOM     24  H   UNL     1      47.302   2.885  14.995  0.00  0.00    +0.000 HD
BRANCH  21  25
ATOM     25  C   UNL     1      43.751   5.091  10.747  0.00  0.00    +0.000 C 
ATOM     26  N   UNL     1      44.157   4.734   9.489  0.00  0.00    +0.000 N 
ATOM     27  O   UNL     1      42.665   5.615  10.958  0.00  0.00    +0.000 OA
ATOM     28  H   UNL     1      45.067   4.305   9.354  0.00  0.00    +0.000 HD
ATOM     29  H   UNL     1      43.549   4.903   8.702  0.00  0.00    +0.000 HD
ENDBRANCH  21  25
ENDBRANCH  16  17
ENDBRANCH   1  16
TORSDOF 8
ENDMDL
MODEL 8
REMARK VINA RESULT:    -5.601      3.593      6.515
REMARK INTER + INTRA:          -9.284
REMARK INTER:                  -8.512
REMARK INTRA:                  -0.772
REMARK UNBOUND:                -1.064
REMARK  Name = 
REMARK  12 active torsions:
REMARK  status: ('A' for Active; 'I' for Inactive)
REMARK    1  A    between atoms: C_1  and  N_2
REMARK    2  A    between atoms: N_2  and  C_3
REMARK    3  A    between atoms: N_2  and  C_4
REMARK    4  A    between atoms: C_4  and  C_5
REMARK    5  A    between atoms: C_5  and  O_6
REMARK    6  A    between atoms: O_6  and  C_7
REMARK    7  A    between atoms: C_10  and  C_11
REMARK    8  A    between atoms: C_11  and  C_12
REMARK    9  A    between atoms: C_11  and  C_13
REMARK   10  A    between atoms: C_11  and  C_14
REMARK   11  A    between atoms: C_14  and  N_15
REMARK   12  A    between atoms: C_19  and  C_20
REMARK                            x       y       z     vdW  Elec       q    Type
REMARK                         _______ _______ _______ _____ _____    ______ ____
ROOT
ATOM      1  C   UNL     1      47.994   4.015  17.396  0.00  0.00    +0.000 C 
ATOM      2  C   UNL     1      47.025   2.851  17.698  0.00  0.00    +0.000 C 
ATOM      3  C   UNL     1      47.763   5.130  18.450  0.00  0.00    +0.000 C 
ENDROOT
BRANCH   1   7
ATOM      4  C   UNL     1      52.175   2.723  17.687  0.00  0.00    +0.000 A 
ATOM      5  C   UNL     1      51.184   1.822  17.311  0.00  0.00    +0.000 A 
ATOM      6  C   UNL     1      49.848   2.226  17.222  0.00  0.00    +0.000 A 
ATOM      7  C   UNL     1      49.455   3.538  17.521  0.00  0.00    +0.000 A 
ATOM      8  C   UNL     1      50.469   4.427  17.929  0.00  0.00    +0.000 A 
ATOM      9  C   UNL     1      51.807   4.024  18.014  0.00  0.00    +0.000 A 
BRANCH   4  10
ATOM     10  O   UNL     1      53.509   2.434  17.791  0.00  0.00    +0.000 OA
BRANCH  10  11
ATOM     11  C   UNL     1      54.328   3.526  18.228  0.00  0.00    +0.000 C 
BRANCH  11  12
ATOM     12  C   UNL     1      55.323   3.893  17.118  0.00  0.00    +0.000 C 
BRANCH  12  14
ATOM     13  C   UNL     1      55.058   5.802  15.679  0.00  0.00    +0.000 C 
ATOM     14  N   UNL     1      55.564   5.344  16.975  0.00  0.00    +0.000 NA
ATOM     15  C   UNL     1      54.944   6.124  18.049  0.00  0.00    +0.000 C 
ENDBRANCH  12  14
ENDBRANCH  11  12
ENDBRANCH  10  11
ENDBRANCH   4  10
ENDBRANCH   1   7
BRANCH   1  16
ATOM     16  C   UNL     1      47.611   4.658  16.018  0.00  0.00    +0.000 C 
BRANCH  16  17
ATOM     17  N   UNL     1      47.190   3.691  15.013  0.00  0.00    +0.000 N 
ATOM     18  C   UNL     1      46.646   4.099  13.812  0.00  0.00    +0.000 A 
ATOM     19  C   UNL     1      46.958   5.302  13.165  0.00  0.00    +0.000 A 
ATOM     20  N   UNL     1      46.453   5.678  11.960  0.00  0.00    +0.000 NA
ATOM     21  C   UNL     1      45.618   4.767  11.396  0.00  0.00    +0.000 A 
ATOM     22  C   UNL     1      45.312   3.564  12.008  0.00  0.00    +0.000 A 
ATOM     23  N   UNL     1      45.814   3.215  13.225  0.00  0.00    +0.000 NA
ATOM     24  H   UNL     1      46.706   2.856  15.331  0.00  0.00    +0.000 HD
BRANCH  21  25
ATOM     25  C   UNL     1      45.036   5.104  10.070  0.00  0.00    +0.000 C 
ATOM     26  N   UNL     1      43.680   4.944   9.967  0.00  0.00    +0.000 N 
ATOM     27  O   UNL     1      45.721   5.494   9.133  0.00  0.00    +0.000 OA
ATOM     28  H   UNL     1      43.148   4.614  10.765  0.00  0.00    +0.000 HD
ATOM     29  H   UNL     1      43.218   5.151   9.094  0.00  0.00    +0.000 HD
ENDBRANCH  21  25
ENDBRANCH  16  17
ENDBRANCH   1  16
TORSDOF 8
ENDMDL
MODEL 9
REMARK VINA RESULT:    -5.243      3.880      8.461
REMARK INTER + INTRA:          -8.759
REMARK INTER:                  -7.569
REMARK INTRA:                  -1.190
REMARK UNBOUND:                -1.064
REMARK  Name = 
REMARK  12 active torsions:
REMARK  status: ('A' for Active; 'I' for Inactive)
REMARK    1  A    between atoms: C_1  and  N_2
REMARK    2  A    between atoms: N_2  and  C_3
REMARK    3  A    between atoms: N_2  and  C_4
REMARK    4  A    between atoms: C_4  and  C_5
REMARK    5  A    between atoms: C_5  and  O_6
REMARK    6  A    between atoms: O_6  and  C_7
REMARK    7  A    between atoms: C_10  and  C_11
REMARK    8  A    between atoms: C_11  and  C_12
REMARK    9  A    between atoms: C_11  and  C_13
REMARK   10  A    between atoms: C_11  and  C_14
REMARK   11  A    between atoms: C_14  and  N_15
REMARK   12  A    between atoms: C_19  and  C_20
REMARK                            x       y       z     vdW  Elec       q    Type
REMARK                         _______ _______ _______ _____ _____    ______ ____
ROOT
ATOM      1  C   UNL     1      50.572   9.182  12.841  0.00  0.00    +0.000 C 
ATOM      2  C   UNL     1      51.503   8.685  11.713  0.00  0.00    +0.000 C 
ATOM      3  C   UNL     1      50.580  10.733  12.834  0.00  0.00    +0.000 C 
ENDROOT
BRANCH   1   7
ATOM      4  C   UNL     1      46.446   7.840  12.203  0.00  0.00    +0.000 A 
ATOM      5  C   UNL     1      47.511   7.115  11.679  0.00  0.00    +0.000 A 
ATOM      6  C   UNL     1      48.829   7.541  11.874  0.00  0.00    +0.000 A 
ATOM      7  C   UNL     1      49.126   8.712  12.583  0.00  0.00    +0.000 A 
ATOM      8  C   UNL     1      48.032   9.449  13.080  0.00  0.00    +0.000 A 
ATOM      9  C   UNL     1      46.713   9.021  12.888  0.00  0.00    +0.000 A 
BRANCH   4  10
ATOM     10  O   UNL     1      45.125   7.505  12.081  0.00  0.00    +0.000 OA
BRANCH  10  11
ATOM     11  C   UNL     1      44.881   6.134  11.740  0.00  0.00    +0.000 C 
BRANCH  11  12
ATOM     12  C   UNL     1      44.246   5.415  12.939  0.00  0.00    +0.000 C 
BRANCH  12  14
ATOM     13  C   UNL     1      45.073   3.254  12.281  0.00  0.00    +0.000 C 
ATOM     14  N   UNL     1      44.982   4.213  13.384  0.00  0.00    +0.000 NA
ATOM     15  C   UNL     1      46.326   4.528  13.875  0.00  0.00    +0.000 C 
ENDBRANCH  12  14
ENDBRANCH  11  12
ENDBRANCH  10  11
ENDBRANCH   4  10
ENDBRANCH   1   7
BRANCH   1  16
ATOM     16  C   UNL     1      51.178   8.767  14.227  0.00  0.00    +0.000 C 
BRANCH  16  17
ATOM     17  N   UNL     1      50.884   7.394  14.612  0.00  0.00    +0.000 N 
ATOM     18  C   UNL     1      50.138   7.111  15.738  0.00  0.00    +0.000 A 
ATOM     19  C   UNL     1      49.134   7.939  16.256  0.00  0.00    +0.000 A 
ATOM     20  N   UNL     1      48.371   7.635  17.339  0.00  0.00    +0.000 NA
ATOM     21  C   UNL     1      48.640   6.422  17.887  0.00  0.00    +0.000 A 
ATOM     22  C   UNL     1      49.613   5.579  17.380  0.00  0.00    +0.000 A 
ATOM     23  N   UNL     1      50.380   5.912  16.305  0.00  0.00    +0.000 NA
ATOM     24  H   UNL     1      51.628   6.706  14.524  0.00  0.00    +0.000 HD
BRANCH  21  25
ATOM     25  C   UNL     1      47.835   6.015  19.070  0.00  0.00    +0.000 C 
ATOM     26  N   UNL     1      46.574   5.561  18.793  0.00  0.00    +0.000 N 
ATOM     27  O   UNL     1      48.267   6.085  20.213  0.00  0.00    +0.000 OA
ATOM     28  H   UNL     1      46.251   5.521  17.832  0.00  0.00    +0.000 HD
ATOM     29  H   UNL     1      45.971   5.270  19.549  0.00  0.00    +0.000 HD
ENDBRANCH  21  25
ENDBRANCH  16  17
ENDBRANCH   1  16
TORSDOF 8
ENDMDL
