MODEL 1
REMARK VINA RESULT:    -7.572      0.000      0.000
REMARK INTER + INTRA:          -9.724
REMARK INTER:                  -9.564
REMARK INTRA:                  -0.160
REMARK UNBOUND:                -0.160
REMARK  Name = 
REMARK  5 active torsions:
REMARK  status: ('A' for Active; 'I' for Inactive)
REMARK    1  A    between atoms: C_2  and  C_4
REMARK    2  A    between atoms: N_8  and  CA_9
REMARK    3  A    between atoms: CA_9  and  C_10
REMARK    4  A    between atoms: CA_9  and  C_12
REMARK    5  A    between atoms: C_10  and  O_11
REMARK                            x       y       z     vdW  Elec       q    Type
REMARK                         _______ _______ _______ _____ _____    ______ ____
ROOT
ATOM      1  C   UNL     1      46.495   2.964   7.395  0.00  0.00    +0.000 A 
ATOM      2  C   UNL     1      46.223   4.232   7.905  0.00  0.00    +0.000 A 
ATOM      3  C   UNL     1      45.461   4.353   9.069  0.00  0.00    +0.000 A 
ATOM      4  C   UNL     1      44.959   3.214   9.682  0.00  0.00    +0.000 A 
ATOM      5  N   UNL     1      44.144   3.209  10.772  0.00  0.00    +0.000 N 
ATOM      6  N   UNL     1      45.229   1.983   9.208  0.00  0.00    +0.000 NA
ATOM      7  C   UNL     1      45.988   1.877   8.089  0.00  0.00    +0.000 A 
ATOM      8  H   UNL     1      43.787   2.282  10.951  0.00  0.00    +0.000 HD
ENDROOT
BRANCH   1  10
ATOM      9  N   UNL     1      48.572   2.430   6.227  0.00  0.00    +0.000 N 
ATOM     10  C   UNL     1      47.237   2.712   6.139  0.00  0.00    +0.000 C 
ATOM     11  O   UNL     1      46.680   2.752   5.053  0.00  0.00    +0.000 OA
ATOM     12  H   UNL     1      49.039   2.218   5.355  0.00  0.00    +0.000 HD
ATOM     13  H   UNL     1      49.041   2.193   7.084  0.00  0.00    +0.000 HD
ENDBRANCH   1  10
BRANCH   5  14
ATOM     14  CA  UNL     1      43.800   4.308  11.664  0.00  0.00    +0.000 C 
BRANCH  14  15
ATOM     15  C   UNL     1      45.048   4.885  12.331  0.00  0.00    +0.000 A 
ATOM     16  C   UNL     1      45.385   6.231  12.103  0.00  0.00    +0.000 A 
ATOM     17  C   UNL     1      46.484   6.815  12.738  0.00  0.00    +0.000 A 
ATOM     18  C   UNL     1      47.265   6.066  13.614  0.00  0.00    +0.000 A 
ATOM     19  C   UNL     1      46.977   4.720  13.817  0.00  0.00    +0.000 A 
ATOM     20  C   UNL     1      45.893   4.129  13.164  0.00  0.00    +0.000 A 
ENDBRANCH  14  15
BRANCH  14  21
ATOM     21  C   UNL     1      43.006   5.400  10.907  0.00  0.00    +0.000 C 
BRANCH  21  22
ATOM     22  O   UNL     1      41.983   5.991  11.712  0.00  0.00    +0.000 OA
ATOM     23  H   UNL     1      42.298   6.891  11.919  0.00  0.00    +0.000 HD
ENDBRANCH  21  22
ENDBRANCH  14  21
ENDBRANCH   5  14
TORSDOF 5
ENDMDL
MODEL 2
REMARK VINA RESULT:    -7.237      2.792      6.258
REMARK INTER + INTRA:          -9.301
REMARK INTER:                  -9.439
REMARK INTRA:                   0.138
REMARK UNBOUND:                -0.160
REMARK  Name = 
REMARK  5 active torsions:
REMARK  status: ('A' for Active; 'I' for Inactive)
REMARK    1  A    between atoms: C_2  and  C_4
REMARK    2  A    between atoms: N_8  and  CA_9
REMARK    3  A    between atoms: CA_9  and  C_10
REMARK    4  A    between atoms: CA_9  and  C_12
REMARK    5  A    between atoms: C_10  and  O_11
REMARK                            x       y       z     vdW  Elec       q    Type
REMARK                         _______ _______ _______ _____ _____    ______ ____
ROOT
ATOM      1  C   UNL     1      47.172   5.620  13.661  0.00  0.00    +0.000 A 
ATOM      2  C   UNL     1      46.600   4.368  13.446  0.00  0.00    +0.000 A 
ATOM      3  C   UNL     1      45.856   4.145  12.286  0.00  0.00    +0.000 A 
ATOM      4  C   UNL     1      45.670   5.180  11.380  0.00  0.00    +0.000 A 
ATOM      5  N   UNL     1      44.906   5.106  10.257  0.00  0.00    +0.000 N 
ATOM      6  N   UNL     1      46.232   6.389  11.568  0.00  0.00    +0.000 NA
ATOM      7  C   UNL     1      46.970   6.587  12.689  0.00  0.00    +0.000 A 
ATOM      8  H   UNL     1      44.798   6.016   9.834  0.00  0.00    +0.000 HD
ENDROOT
BRANCH   1  10
ATOM      9  N   UNL     1      48.148   7.322  15.115  0.00  0.00    +0.000 N 
ATOM     10  C   UNL     1      47.928   5.994  14.878  0.00  0.00    +0.000 C 
ATOM     11  O   UNL     1      48.344   5.147  15.653  0.00  0.00    +0.000 OA
ATOM     12  H   UNL     1      48.627   7.546  15.977  0.00  0.00    +0.000 HD
ATOM     13  H   UNL     1      47.674   8.066  14.632  0.00  0.00    +0.000 HD
ENDBRANCH   1  10
BRANCH   5  14
ATOM     14  CA  UNL     1      44.313   3.934   9.627  0.00  0.00    +0.000 C 
BRANCH  14  15
ATOM     15  C   UNL     1      45.307   3.256   8.685  0.00  0.00    +0.000 A 
ATOM     16  C   UNL     1      45.543   1.876   8.818  0.00  0.00    +0.000 A 
ATOM     17  C   UNL     1      46.400   1.205   7.942  0.00  0.00    +0.000 A 
ATOM     18  C   UNL     1      47.035   1.899   6.916  0.00  0.00    +0.000 A 
ATOM     19  C   UNL     1      46.852   3.273   6.795  0.00  0.00    +0.000 A 
ATOM     20  C   UNL     1      46.015   3.949   7.685  0.00  0.00    +0.000 A 
ENDBRANCH  14  15
BRANCH  14  21
ATOM     21  C   UNL     1      43.781   2.948  10.694  0.00  0.00    +0.000 C 
BRANCH  21  22
ATOM     22  O   UNL     1      42.633   3.451  11.383  0.00  0.00    +0.000 OA
ATOM     23  H   UNL     1      42.751   3.191  12.316  0.00  0.00    +0.000 HD
ENDBRANCH  21  22
ENDBRANCH  14  21
ENDBRANCH   5  14
TORSDOF 5
ENDMDL
MODEL 3
REMARK VINA RESULT:    -7.110      3.126      6.250
REMARK INTER + INTRA:          -9.140
REMARK INTER:                  -8.578
REMARK INTRA:                  -0.562
REMARK UNBOUND:                -0.160
REMARK  Name = 
REMARK  5 active torsions:
REMARK  status: ('A' for Active; 'I' for Inactive)
REMARK    1  A    between atoms: C_2  and  C_4
REMARK    2  A    between atoms: N_8  and  CA_9
REMARK    3  A    between atoms: CA_9  and  C_10
REMARK    4  A    between atoms: CA_9  and  C_12
REMARK    5  A    between atoms: C_10  and  O_11
REMARK                            x       y       z     vdW  Elec       q    Type
REMARK                         _______ _______ _______ _____ _____    ______ ____
ROOT
ATOM      1  C   UNL     1      47.324   7.353  13.464  0.00  0.00    +0.000 A 
ATOM      2  C   UNL     1      46.569   7.513  12.304  0.00  0.00    +0.000 A 
ATOM      3  C   UNL     1      45.896   6.413  11.768  0.00  0.00    +0.000 A 
ATOM      4  C   UNL     1      46.014   5.172  12.376  0.00  0.00    +0.000 A 
ATOM      5  N   UNL     1      45.469   4.016  11.907  0.00  0.00    +0.000 N 
ATOM      6  N   UNL     1      46.727   5.008  13.507  0.00  0.00    +0.000 NA
ATOM      7  C   UNL     1      47.359   6.088  14.030  0.00  0.00    +0.000 A 
ATOM      8  H   UNL     1      45.808   3.221  12.428  0.00  0.00    +0.000 HD
ENDROOT
BRANCH   1  10
ATOM      9  N   UNL     1      47.561   9.147  15.103  0.00  0.00    +0.000 N 
ATOM     10  C   UNL     1      48.129   8.426  14.090  0.00  0.00    +0.000 C 
ATOM     11  O   UNL     1      49.267   8.665  13.719  0.00  0.00    +0.000 OA
ATOM     12  H   UNL     1      48.152   9.841  15.539  0.00  0.00    +0.000 HD
ATOM     13  H   UNL     1      46.718   8.878  15.580  0.00  0.00    +0.000 HD
ENDBRANCH   1  10
BRANCH   5  14
ATOM     14  CA  UNL     1      44.491   3.831  10.844  0.00  0.00    +0.000 C 
BRANCH  14  15
ATOM     15  C   UNL     1      45.169   3.399   9.544  0.00  0.00    +0.000 A 
ATOM     16  C   UNL     1      45.611   4.384   8.643  0.00  0.00    +0.000 A 
ATOM     17  C   UNL     1      46.287   4.036   7.471  0.00  0.00    +0.000 A 
ATOM     18  C   UNL     1      46.534   2.698   7.178  0.00  0.00    +0.000 A 
ATOM     19  C   UNL     1      46.065   1.705   8.031  0.00  0.00    +0.000 A 
ATOM     20  C   UNL     1      45.368   2.051   9.192  0.00  0.00    +0.000 A 
ENDBRANCH  14  15
BRANCH  14  21
ATOM     21  C   UNL     1      43.397   2.824  11.274  0.00  0.00    +0.000 C 
BRANCH  21  22
ATOM     22  O   UNL     1      43.701   2.180  12.514  0.00  0.00    +0.000 OA
ATOM     23  H   UNL     1      44.435   2.692  12.903  0.00  0.00    +0.000 HD
ENDBRANCH  21  22
ENDBRANCH  14  21
ENDBRANCH   5  14
TORSDOF 5
ENDMDL
MODEL 4
REMARK VINA RESULT:    -6.824      3.463      6.036
REMARK INTER + INTRA:          -8.778
REMARK INTER:                  -8.274
REMARK INTRA:                  -0.504
REMARK UNBOUND:                -0.160
REMARK  Name = 
REMARK  5 active torsions:
REMARK  status: ('A' for Active; 'I' for Inactive)
REMARK    1  A    between atoms: C_2  and  C_4
REMARK    2  A    between atoms: N_8  and  CA_9
REMARK    3  A    between atoms: CA_9  and  C_10
REMARK    4  A    between atoms: CA_9  and  C_12
REMARK    5  A    between atoms: C_10  and  O_11
REMARK                            x       y       z     vdW  Elec       q    Type
REMARK                         _______ _______ _______ _____ _____    ______ ____
ROOT
ATOM      1  C   UNL     1      48.869   7.217  13.168  0.00  0.00    +0.000 A 
ATOM      2  C   UNL     1      48.222   7.400  11.947  0.00  0.00    +0.000 A 
ATOM      3  C   UNL     1      47.018   6.737  11.704  0.00  0.00    +0.000 A 
ATOM      4  C   UNL     1      46.499   5.881  12.665  0.00  0.00    +0.000 A 
ATOM      5  N   UNL     1      45.378   5.125  12.514  0.00  0.00    +0.000 N 
ATOM      6  N   UNL     1      47.105   5.710  13.855  0.00  0.00    +0.000 NA
ATOM      7  C   UNL     1      48.263   6.376  14.088  0.00  0.00    +0.000 A 
ATOM      8  H   UNL     1      45.276   4.474  13.279  0.00  0.00    +0.000 HD
ENDROOT
BRANCH   1  10
ATOM      9  N   UNL     1      50.783   7.408  14.672  0.00  0.00    +0.000 N 
ATOM     10  C   UNL     1      50.177   7.817  13.517  0.00  0.00    +0.000 C 
ATOM     11  O   UNL     1      50.706   8.650  12.798  0.00  0.00    +0.000 OA
ATOM     12  H   UNL     1      51.696   7.802  14.858  0.00  0.00    +0.000 HD
ATOM     13  H   UNL     1      50.503   6.598  15.198  0.00  0.00    +0.000 HD
ENDBRANCH   1  10
BRANCH   5  14
ATOM     14  CA  UNL     1      44.366   5.185  11.468  0.00  0.00    +0.000 C 
BRANCH  14  15
ATOM     15  C   UNL     1      44.751   4.302  10.281  0.00  0.00    +0.000 A 
ATOM     16  C   UNL     1      44.430   2.933  10.315  0.00  0.00    +0.000 A 
ATOM     17  C   UNL     1      44.711   2.101   9.229  0.00  0.00    +0.000 A 
ATOM     18  C   UNL     1      45.316   2.622   8.088  0.00  0.00    +0.000 A 
ATOM     19  C   UNL     1      45.685   3.962   8.051  0.00  0.00    +0.000 A 
ATOM     20  C   UNL     1      45.426   4.790   9.147  0.00  0.00    +0.000 A 
ENDBRANCH  14  15
BRANCH  14  21
ATOM     21  C   UNL     1      42.974   4.807  12.027  0.00  0.00    +0.000 C 
BRANCH  21  22
ATOM     22  O   UNL     1      42.670   5.487  13.248  0.00  0.00    +0.000 OA
ATOM     23  H   UNL     1      42.285   6.343  12.983  0.00  0.00    +0.000 HD
ENDBRANCH  21  22
ENDBRANCH  14  21
ENDBRANCH   5  14
TORSDOF 5
ENDMDL
MODEL 5
REMARK VINA RESULT:    -6.176      4.302      6.325
REMARK INTER + INTRA:          -7.961
REMARK INTER:                  -7.432
REMARK INTRA:                  -0.528
REMARK UNBOUND:                -0.160
REMARK  Name = 
REMARK  5 active torsions:
REMARK  status: ('A' for Active; 'I' for Inactive)
REMARK    1  A    between atoms: C_2  and  C_4
REMARK    2  A    between atoms: N_8  and  CA_9
REMARK    3  A    between atoms: CA_9  and  C_10
REMARK    4  A    between atoms: CA_9  and  C_12
REMARK    5  A    between atoms: C_10  and  O_11
REMARK                            x       y       z     vdW  Elec       q    Type
REMARK                         _______ _______ _______ _____ _____    ______ ____
ROOT
ATOM      1  C   UNL     1      45.935   5.584  12.078  0.00  0.00    +0.000 A 
ATOM      2  C   UNL     1      47.074   6.121  12.674  0.00  0.00    +0.000 A 
ATOM      3  C   UNL     1      47.541   5.577  13.872  0.00  0.00    +0.000 A 
ATOM      4  C   UNL     1      46.848   4.534  14.469  0.00  0.00    +0.000 A 
ATOM      5  N   UNL     1      47.160   3.974  15.669  0.00  0.00    +0.000 N 
ATOM      6  N   UNL     1      45.756   3.995  13.894  0.00  0.00    +0.000 NA
ATOM      7  C   UNL     1      45.324   4.518  12.719  0.00  0.00    +0.000 A 
ATOM      8  H   UNL     1      46.436   3.338  15.970  0.00  0.00    +0.000 HD
ENDROOT
BRANCH   1  10
ATOM      9  N   UNL     1      44.406   7.131  10.966  0.00  0.00    +0.000 N 
ATOM     10  C   UNL     1      45.311   6.113  10.844  0.00  0.00    +0.000 C 
ATOM     11  O   UNL     1      45.594   5.661   9.745  0.00  0.00    +0.000 OA
ATOM     12  H   UNL     1      44.034   7.500  10.102  0.00  0.00    +0.000 HD
ATOM     13  H   UNL     1      44.278   7.671  11.804  0.00  0.00    +0.000 HD
ENDBRANCH   1  10
BRANCH   5  14
ATOM     14  CA  UNL     1      48.358   4.150  16.478  0.00  0.00    +0.000 C 
BRANCH  14  15
ATOM     15  C   UNL     1      48.158   5.245  17.525  0.00  0.00    +0.000 A 
ATOM     16  C   UNL     1      48.742   6.507  17.314  0.00  0.00    +0.000 A 
ATOM     17  C   UNL     1      48.536   7.554  18.216  0.00  0.00    +0.000 A 
ATOM     18  C   UNL     1      47.743   7.360  19.344  0.00  0.00    +0.000 A 
ATOM     19  C   UNL     1      47.194   6.107  19.596  0.00  0.00    +0.000 A 
ATOM     20  C   UNL     1      47.419   5.053  18.707  0.00  0.00    +0.000 A 
ENDBRANCH  14  15
BRANCH  14  21
ATOM     21  C   UNL     1      48.782   2.812  17.132  0.00  0.00    +0.000 C 
BRANCH  21  22
ATOM     22  O   UNL     1      49.280   1.870  16.179  0.00  0.00    +0.000 OA
ATOM     23  H   UNL     1      50.098   1.509  16.569  0.00  0.00    +0.000 HD
ENDBRANCH  21  22
ENDBRANCH  14  21
ENDBRANCH   5  14
TORSDOF 5
ENDMDL
MODEL 6
REMARK VINA RESULT:    -6.033      3.563      5.598
REMARK INTER + INTRA:          -7.780
REMARK INTER:                  -7.427
REMARK INTRA:                  -0.353
REMARK UNBOUND:                -0.160
REMARK  Name = 
REMARK  5 active torsions:
REMARK  status: ('A' for Active; 'I' for Inactive)
REMARK    1  A    between atoms: C_2  and  C_4
REMARK    2  A    between atoms: N_8  and  CA_9
REMARK    3  A    between atoms: CA_9  and  C_10
REMARK    4  A    between atoms: CA_9  and  C_12
REMARK    5  A    between atoms: C_10  and  O_11
REMARK                            x       y       z     vdW  Elec       q    Type
REMARK                         _______ _______ _______ _____ _____    ______ ____
ROOT
ATOM      1  C   UNL     1      44.773   4.227  11.471  0.00  0.00    +0.000 A 
ATOM      2  C   UNL     1      45.448   5.193  10.728  0.00  0.00    +0.000 A 
ATOM      3  C   UNL     1      46.089   6.242  11.391  0.00  0.00    +0.000 A 
ATOM      4  C   UNL     1      46.018   6.327  12.774  0.00  0.00    +0.000 A 
ATOM      5  N   UNL     1      46.535   7.338  13.522  0.00  0.00    +0.000 N 
ATOM      6  N   UNL     1      45.384   5.389  13.504  0.00  0.00    +0.000 NA
ATOM      7  C   UNL     1      44.783   4.364  12.851  0.00  0.00    +0.000 A 
ATOM      8  H   UNL     1      46.236   7.265  14.483  0.00  0.00    +0.000 HD
ENDROOT
BRANCH   1  10
ATOM      9  N   UNL     1      43.387   2.233  11.732  0.00  0.00    +0.000 N 
ATOM     10  C   UNL     1      44.007   3.105  10.881  0.00  0.00    +0.000 C 
ATOM     11  O   UNL     1      43.926   2.959   9.672  0.00  0.00    +0.000 OA
ATOM     12  H   UNL     1      42.834   1.507  11.297  0.00  0.00    +0.000 HD
ATOM     13  H   UNL     1      43.251   2.406  12.713  0.00  0.00    +0.000 HD
ENDBRANCH   1  10
BRANCH   5  14
ATOM     14  CA  UNL     1      47.441   8.405  13.119  0.00  0.00    +0.000 C 
BRANCH  14  15
ATOM     15  C   UNL     1      46.690   9.511  12.378  0.00  0.00    +0.000 A 
ATOM     16  C   UNL     1      47.423  10.465  11.650  0.00  0.00    +0.000 A 
ATOM     17  C   UNL     1      46.776  11.458  10.910  0.00  0.00    +0.000 A 
ATOM     18  C   UNL     1      45.385  11.515  10.884  0.00  0.00    +0.000 A 
ATOM     19  C   UNL     1      44.642  10.611  11.634  0.00  0.00    +0.000 A 
ATOM     20  C   UNL     1      45.288   9.632  12.393  0.00  0.00    +0.000 A 
ENDBRANCH  14  15
BRANCH  14  21
ATOM     21  C   UNL     1      48.210   8.964  14.341  0.00  0.00    +0.000 C 
BRANCH  21  22
ATOM     22  O   UNL     1      47.380   9.097  15.498  0.00  0.00    +0.000 OA
ATOM     23  H   UNL     1      46.501   9.354  15.162  0.00  0.00    +0.000 HD
ENDBRANCH  21  22
ENDBRANCH  14  21
ENDBRANCH   5  14
TORSDOF 5
ENDMDL
MODEL 7
REMARK VINA RESULT:    -5.992      3.255      4.929
REMARK INTER + INTRA:          -7.728
REMARK INTER:                  -7.978
REMARK INTRA:                   0.249
REMARK UNBOUND:                -0.160
REMARK  Name = 
REMARK  5 active torsions:
REMARK  status: ('A' for Active; 'I' for Inactive)
REMARK    1  A    between atoms: C_2  and  C_4
REMARK    2  A    between atoms: N_8  and  CA_9
REMARK    3  A    between atoms: CA_9  and  C_10
REMARK    4  A    between atoms: CA_9  and  C_12
REMARK    5  A    between atoms: C_10  and  O_11
REMARK                            x       y       z     vdW  Elec       q    Type
REMARK                         _______ _______ _______ _____ _____    ______ ____
ROOT
ATOM      1  C   UNL     1      44.571   3.989  11.429  0.00  0.00    +0.000 A 
ATOM      2  C   UNL     1      44.578   5.211  10.761  0.00  0.00    +0.000 A 
ATOM      3  C   UNL     1      45.140   6.328  11.383  0.00  0.00    +0.000 A 
ATOM      4  C   UNL     1      45.651   6.215  12.668  0.00  0.00    +0.000 A 
ATOM      5  N   UNL     1      46.153   7.243  13.403  0.00  0.00    +0.000 N 
ATOM      6  N   UNL     1      45.665   5.034  13.317  0.00  0.00    +0.000 NA
ATOM      7  C   UNL     1      45.136   3.952  12.694  0.00  0.00    +0.000 A 
ATOM      8  H   UNL     1      46.328   6.955  14.354  0.00  0.00    +0.000 HD
ENDROOT
BRANCH   1  10
ATOM      9  N   UNL     1      44.508   2.181   9.789  0.00  0.00    +0.000 N 
ATOM     10  C   UNL     1      43.951   2.753  10.899  0.00  0.00    +0.000 C 
ATOM     11  O   UNL     1      42.974   2.252  11.433  0.00  0.00    +0.000 OA
ATOM     12  H   UNL     1      44.090   1.313   9.480  0.00  0.00    +0.000 HD
ATOM     13  H   UNL     1      45.412   2.425   9.424  0.00  0.00    +0.000 HD
ENDBRANCH   1  10
BRANCH   5  14
ATOM     14  CA  UNL     1      46.479   8.598  12.980  0.00  0.00    +0.000 C 
BRANCH  14  15
ATOM     15  C   UNL     1      47.866   8.653  12.341  0.00  0.00    +0.000 A 
ATOM     16  C   UNL     1      48.362   9.890  11.888  0.00  0.00    +0.000 A 
ATOM     17  C   UNL     1      49.647   9.996  11.351  0.00  0.00    +0.000 A 
ATOM     18  C   UNL     1      50.461   8.871  11.257  0.00  0.00    +0.000 A 
ATOM     19  C   UNL     1      49.974   7.630  11.654  0.00  0.00    +0.000 A 
ATOM     20  C   UNL     1      48.680   7.518  12.170  0.00  0.00    +0.000 A 
ENDBRANCH  14  15
BRANCH  14  21
ATOM     21  C   UNL     1      45.393   9.152  12.025  0.00  0.00    +0.000 C 
BRANCH  21  22
ATOM     22  O   UNL     1      44.441   9.978  12.699  0.00  0.00    +0.000 OA
ATOM     23  H   UNL     1      43.566   9.672  12.396  0.00  0.00    +0.000 HD
ENDBRANCH  21  22
ENDBRANCH  14  21
ENDBRANCH   5  14
TORSDOF 5
ENDMDL
MODEL 8
REMARK VINA RESULT:    -5.819      4.799      7.082
REMARK INTER + INTRA:          -7.510
REMARK INTER:                  -7.294
REMARK INTRA:                  -0.216
REMARK UNBOUND:                -0.160
REMARK  Name = 
REMARK  5 active torsions:
REMARK  status: ('A' for Active; 'I' for Inactive)
REMARK    1  A    between atoms: C_2  and  C_4
REMARK    2  A    between atoms: N_8  and  CA_9
REMARK    3  A    between atoms: CA_9  and  C_10
REMARK    4  A    between atoms: CA_9  and  C_12
REMARK    5  A    between atoms: C_10  and  O_11
REMARK                            x       y       z     vdW  Elec       q    Type
REMARK                         _______ _______ _______ _____ _____    ______ ____
ROOT
ATOM      1  C   UNL     1      47.337   5.899  13.215  0.00  0.00    +0.000 A 
ATOM      2  C   UNL     1      48.052   6.326  14.333  0.00  0.00    +0.000 A 
ATOM      3  C   UNL     1      48.002   5.571  15.507  0.00  0.00    +0.000 A 
ATOM      4  C   UNL     1      47.219   4.427  15.556  0.00  0.00    +0.000 A 
ATOM      5  N   UNL     1      47.032   3.655  16.660  0.00  0.00    +0.000 N 
ATOM      6  N   UNL     1      46.538   3.995  14.477  0.00  0.00    +0.000 NA
ATOM      7  C   UNL     1      46.611   4.725  13.336  0.00  0.00    +0.000 A 
ATOM      8  H   UNL     1      46.311   2.966  16.500  0.00  0.00    +0.000 HD
ENDROOT
BRANCH   1  10
ATOM      9  N   UNL     1      48.179   7.635  11.719  0.00  0.00    +0.000 N 
ATOM     10  C   UNL     1      47.263   6.644  11.938  0.00  0.00    +0.000 C 
ATOM     11  O   UNL     1      46.413   6.386  11.101  0.00  0.00    +0.000 OA
ATOM     12  H   UNL     1      48.130   8.093  10.819  0.00  0.00    +0.000 HD
ATOM     13  H   UNL     1      49.010   7.764  12.269  0.00  0.00    +0.000 HD
ENDBRANCH   1  10
BRANCH   5  14
ATOM     14  CA  UNL     1      47.741   3.688  17.932  0.00  0.00    +0.000 C 
BRANCH  14  15
ATOM     15  C   UNL     1      49.203   3.280  17.755  0.00  0.00    +0.000 A 
ATOM     16  C   UNL     1      50.213   4.130  18.241  0.00  0.00    +0.000 A 
ATOM     17  C   UNL     1      51.560   3.770  18.153  0.00  0.00    +0.000 A 
ATOM     18  C   UNL     1      51.922   2.554  17.580  0.00  0.00    +0.000 A 
ATOM     19  C   UNL     1      50.943   1.720  17.051  0.00  0.00    +0.000 A 
ATOM     20  C   UNL     1      49.597   2.090  17.117  0.00  0.00    +0.000 A 
ENDBRANCH  14  15
BRANCH  14  21
ATOM     21  C   UNL     1      47.617   5.082  18.593  0.00  0.00    +0.000 C 
BRANCH  21  22
ATOM     22  O   UNL     1      46.258   5.494  18.756  0.00  0.00    +0.000 OA
ATOM     23  H   UNL     1      46.091   6.140  18.044  0.00  0.00    +0.000 HD
ENDBRANCH  21  22
ENDBRANCH  14  21
ENDBRANCH   5  14
TORSDOF 5
ENDMDL
MODEL 9
REMARK VINA RESULT:    -5.744      3.825      5.856
REMARK INTER + INTRA:          -7.415
REMARK INTER:                  -6.941
REMARK INTRA:                  -0.473
REMARK UNBOUND:                -0.160
REMARK  Name = 
REMARK  5 active torsions:
REMARK  status: ('A' for Active; 'I' for Inactive)
REMARK    1  A    between atoms: C_2  and  C_4
REMARK    2  A    between atoms: N_8  and  CA_9
REMARK    3  A    between atoms: CA_9  and  C_10
REMARK    4  A    between atoms: CA_9  and  C_12
REMARK    5  A    between atoms: C_10  and  O_11
REMARK                            x       y       z     vdW  Elec       q    Type
REMARK                         _______ _______ _______ _____ _____    ______ ____
ROOT
ATOM      1  C   UNL     1      44.967   4.270  11.792  0.00  0.00    +0.000 A 
ATOM      2  C   UNL     1      45.680   4.422  12.980  0.00  0.00    +0.000 A 
ATOM      3  C   UNL     1      46.605   5.461  13.095  0.00  0.00    +0.000 A 
ATOM      4  C   UNL     1      46.826   6.308  12.018  0.00  0.00    +0.000 A 
ATOM      5  N   UNL     1      47.751   7.305  11.984  0.00  0.00    +0.000 N 
ATOM      6  N   UNL     1      46.130   6.182  10.872  0.00  0.00    +0.000 NA
ATOM      7  C   UNL     1      45.219   5.182  10.779  0.00  0.00    +0.000 A 
ATOM      8  H   UNL     1      47.834   7.688  11.054  0.00  0.00    +0.000 HD
ENDROOT
BRANCH   1  10
ATOM      9  N   UNL     1      43.674   2.350  12.569  0.00  0.00    +0.000 N 
ATOM     10  C   UNL     1      44.007   3.174  11.530  0.00  0.00    +0.000 C 
ATOM     11  O   UNL     1      43.523   3.005  10.422  0.00  0.00    +0.000 OA
ATOM     12  H   UNL     1      42.982   1.641  12.368  0.00  0.00    +0.000 HD
ATOM     13  H   UNL     1      43.879   2.549  13.533  0.00  0.00    +0.000 HD
ENDBRANCH   1  10
BRANCH   5  14
ATOM     14  CA  UNL     1      48.538   7.861  13.076  0.00  0.00    +0.000 C 
BRANCH  14  15
ATOM     15  C   UNL     1      49.994   8.059  12.656  0.00  0.00    +0.000 A 
ATOM     16  C   UNL     1      50.376   7.742  11.340  0.00  0.00    +0.000 A 
ATOM     17  C   UNL     1      51.683   7.962  10.898  0.00  0.00    +0.000 A 
ATOM     18  C   UNL     1      52.631   8.504  11.761  0.00  0.00    +0.000 A 
ATOM     19  C   UNL     1      52.288   8.781  13.080  0.00  0.00    +0.000 A 
ATOM     20  C   UNL     1      50.987   8.539  13.530  0.00  0.00    +0.000 A 
ENDBRANCH  14  15
BRANCH  14  21
ATOM     21  C   UNL     1      47.911   9.180  13.588  0.00  0.00    +0.000 C 
BRANCH  21  22
ATOM     22  O   UNL     1      47.149   8.998  14.784  0.00  0.00    +0.000 OA
ATOM     23  H   UNL     1      46.553   8.247  14.603  0.00  0.00    +0.000 HD
ENDBRANCH  21  22
ENDBRANCH  14  21
ENDBRANCH   5  14
TORSDOF 5
ENDMDL
