MODEL 1
REMARK VINA RESULT:    -8.327      0.000      0.000
REMARK INTER + INTRA:         -11.575
REMARK INTER:                 -10.761
REMARK INTRA:                  -0.814
REMARK UNBOUND:                -0.814
REMARK  Name = 
REMARK  5 active torsions:
REMARK  status: ('A' for Active; 'I' for Inactive)
REMARK    1  A    between atoms: C_2  and  C_4
REMARK    2  A    between atoms: C_7  and  O_8
REMARK    3  A    between atoms: O_8  and  C_9
REMARK    4  A    between atoms: C_9  and  C_10
REMARK    5  A    between atoms: C_12  and  N_13
REMARK                            x       y       z     vdW  Elec       q    Type
REMARK                         _______ _______ _______ _____ _____    ______ ____
ROOT
ATOM      1  C   UNL     1      43.635   3.631  11.632  0.00  0.00    +0.000 C 
ENDROOT
BRANCH   1   2
ATOM      2  C   UNL     1      44.820   4.193  12.385  0.00  0.00    +0.000 A 
ATOM      3  C   UNL     1      45.044   5.570  12.450  0.00  0.00    +0.000 A 
ATOM      4  C   UNL     1      46.195   6.078  13.061  0.00  0.00    +0.000 A 
ATOM      5  C   UNL     1      47.078   5.142  13.599  0.00  0.00    +0.000 A 
ATOM      6  C   UNL     1      46.788   3.791  13.513  0.00  0.00    +0.000 A 
ATOM      7  N   UNL     1      45.692   3.296  12.908  0.00  0.00    +0.000 NA
BRANCH   4   8
ATOM      8  N   UNL     1      46.454   7.427  13.128  0.00  0.00    +0.000 N 
ATOM      9  C   UNL     1      45.421   8.455  12.927  0.00  0.00    +0.000 C 
ATOM     10  C   UNL     1      45.843   9.410  11.802  0.00  0.00    +0.000 C 
ATOM     11  O   UNL     1      47.148   9.967  12.042  0.00  0.00    +0.000 OA
ATOM     12  C   UNL     1      48.129   8.921  12.140  0.00  0.00    +0.000 C 
ATOM     13  C   UNL     1      47.814   7.953  13.293  0.00  0.00    +0.000 C 
ENDBRANCH   4   8
ENDBRANCH   1   2
BRANCH   1  14
ATOM     14  O   UNL     1      43.619   4.085  10.275  0.00  0.00    +0.000 OA
BRANCH  14  18
ATOM     15  C   UNL     1      46.456   2.651   7.577  0.00  0.00    +0.000 A 
ATOM     16  C   UNL     1      45.778   1.729   8.381  0.00  0.00    +0.000 A 
ATOM     17  C   UNL     1      44.818   2.167   9.301  0.00  0.00    +0.000 A 
ATOM     18  C   UNL     1      44.531   3.529   9.423  0.00  0.00    +0.000 A 
ATOM     19  C   UNL     1      45.217   4.447   8.623  0.00  0.00    +0.000 A 
ATOM     20  C   UNL     1      46.180   4.016   7.708  0.00  0.00    +0.000 A 
BRANCH  15  22
ATOM     21  N   UNL     1      47.568   2.925   5.430  0.00  0.00    +0.000 N 
ATOM     22  C   UNL     1      47.492   2.228   6.603  0.00  0.00    +0.000 C 
ATOM     23  O   UNL     1      48.272   1.316   6.847  0.00  0.00    +0.000 OA
ATOM     24  H   UNL     1      48.350   2.699   4.828  0.00  0.00    +0.000 HD
ATOM     25  H   UNL     1      47.137   3.831   5.316  0.00  0.00    +0.000 HD
ENDBRANCH  15  22
ENDBRANCH  14  18
ENDBRANCH   1  14
TORSDOF 5
ENDMDL
MODEL 2
REMARK VINA RESULT:    -7.840      1.930      3.113
REMARK INTER + INTRA:         -10.946
REMARK INTER:                 -10.637
REMARK INTRA:                  -0.308
REMARK UNBOUND:                -0.814
REMARK  Name = 
REMARK  5 active torsions:
REMARK  status: ('A' for Active; 'I' for Inactive)
REMARK    1  A    between atoms: C_2  and  C_4
REMARK    2  A    between atoms: C_7  and  O_8
REMARK    3  A    between atoms: O_8  and  C_9
REMARK    4  A    between atoms: C_9  and  C_10
REMARK    5  A    between atoms: C_12  and  N_13
REMARK                            x       y       z     vdW  Elec       q    Type
REMARK                         _______ _______ _______ _____ _____    ______ ____
ROOT
ATOM      1  C   UNL     1      43.394   4.967  10.820  0.00  0.00    +0.000 C 
ENDROOT
BRANCH   1   2
ATOM      2  C   UNL     1      44.432   5.817  11.519  0.00  0.00    +0.000 A 
ATOM      3  C   UNL     1      45.416   5.235  12.321  0.00  0.00    +0.000 A 
ATOM      4  C   UNL     1      46.310   6.030  13.045  0.00  0.00    +0.000 A 
ATOM      5  C   UNL     1      46.165   7.411  12.908  0.00  0.00    +0.000 A 
ATOM      6  C   UNL     1      45.177   7.922  12.084  0.00  0.00    +0.000 A 
ATOM      7  N   UNL     1      44.301   7.161  11.402  0.00  0.00    +0.000 NA
BRANCH   4   8
ATOM      8  N   UNL     1      47.281   5.490  13.856  0.00  0.00    +0.000 N 
ATOM      9  C   UNL     1      47.157   4.166  14.484  0.00  0.00    +0.000 C 
ATOM     10  C   UNL     1      47.318   4.290  16.005  0.00  0.00    +0.000 C 
ATOM     11  O   UNL     1      48.540   4.964  16.356  0.00  0.00    +0.000 OA
ATOM     12  C   UNL     1      48.564   6.284  15.789  0.00  0.00    +0.000 C 
ATOM     13  C   UNL     1      48.475   6.245  14.254  0.00  0.00    +0.000 C 
ENDBRANCH   4   8
ENDBRANCH   1   2
BRANCH   1  14
ATOM     14  O   UNL     1      43.868   3.634  10.614  0.00  0.00    +0.000 OA
BRANCH  14  18
ATOM     15  C   UNL     1      46.475   2.741   7.485  0.00  0.00    +0.000 A 
ATOM     16  C   UNL     1      46.099   4.075   7.677  0.00  0.00    +0.000 A 
ATOM     17  C   UNL     1      45.224   4.418   8.715  0.00  0.00    +0.000 A 
ATOM     18  C   UNL     1      44.721   3.432   9.566  0.00  0.00    +0.000 A 
ATOM     19  C   UNL     1      45.095   2.100   9.366  0.00  0.00    +0.000 A 
ATOM     20  C   UNL     1      45.961   1.751   8.328  0.00  0.00    +0.000 A 
BRANCH  15  22
ATOM     21  N   UNL     1      47.284   3.020   5.207  0.00  0.00    +0.000 N 
ATOM     22  C   UNL     1      47.385   2.335   6.386  0.00  0.00    +0.000 C 
ATOM     23  O   UNL     1      48.217   1.449   6.531  0.00  0.00    +0.000 OA
ATOM     24  H   UNL     1      47.985   2.808   4.509  0.00  0.00    +0.000 HD
ATOM     25  H   UNL     1      46.815   3.912   5.144  0.00  0.00    +0.000 HD
ENDBRANCH  15  22
ENDBRANCH  14  18
ENDBRANCH   1  14
TORSDOF 5
ENDMDL
MODEL 3
REMARK VINA RESULT:    -7.600      1.523      2.009
REMARK INTER + INTRA:         -10.636
REMARK INTER:                  -9.941
REMARK INTRA:                  -0.695
REMARK UNBOUND:                -0.814
REMARK  Name = 
REMARK  5 active torsions:
REMARK  status: ('A' for Active; 'I' for Inactive)
REMARK    1  A    between atoms: C_2  and  C_4
REMARK    2  A    between atoms: C_7  and  O_8
REMARK    3  A    between atoms: O_8  and  C_9
REMARK    4  A    between atoms: C_9  and  C_10
REMARK    5  A    between atoms: C_12  and  N_13
REMARK                            x       y       z     vdW  Elec       q    Type
REMARK                         _______ _______ _______ _____ _____    ______ ____
ROOT
ATOM      1  C   UNL     1      44.084   4.093  11.638  0.00  0.00    +0.000 C 
ENDROOT
BRANCH   1   2
ATOM      2  C   UNL     1      44.890   5.340  11.929  0.00  0.00    +0.000 A 
ATOM      3  C   UNL     1      44.356   6.611  11.706  0.00  0.00    +0.000 A 
ATOM      4  C   UNL     1      45.139   7.756  11.881  0.00  0.00    +0.000 A 
ATOM      5  C   UNL     1      46.456   7.551  12.295  0.00  0.00    +0.000 A 
ATOM      6  C   UNL     1      46.918   6.264  12.513  0.00  0.00    +0.000 A 
ATOM      7  N   UNL     1      46.173   5.158  12.326  0.00  0.00    +0.000 NA
BRANCH   4   8
ATOM      8  N   UNL     1      44.649   9.021  11.654  0.00  0.00    +0.000 N 
ATOM      9  C   UNL     1      43.481   9.289  10.802  0.00  0.00    +0.000 C 
ATOM     10  C   UNL     1      43.858  10.282   9.694  0.00  0.00    +0.000 C 
ATOM     11  O   UNL     1      44.444  11.480  10.232  0.00  0.00    +0.000 OA
ATOM     12  C   UNL     1      45.631  11.164  10.979  0.00  0.00    +0.000 C 
ATOM     13  C   UNL     1      45.327  10.222  12.156  0.00  0.00    +0.000 C 
ENDBRANCH   4   8
ENDBRANCH   1   2
BRANCH   1  14
ATOM     14  O   UNL     1      43.720   4.021  10.256  0.00  0.00    +0.000 OA
BRANCH  14  18
ATOM     15  C   UNL     1      46.553   2.630   7.532  0.00  0.00    +0.000 A 
ATOM     16  C   UNL     1      45.951   1.707   8.394  0.00  0.00    +0.000 A 
ATOM     17  C   UNL     1      44.995   2.132   9.325  0.00  0.00    +0.000 A 
ATOM     18  C   UNL     1      44.637   3.480   9.399  0.00  0.00    +0.000 A 
ATOM     19  C   UNL     1      45.246   4.398   8.541  0.00  0.00    +0.000 A 
ATOM     20  C   UNL     1      46.206   3.982   7.615  0.00  0.00    +0.000 A 
BRANCH  15  22
ATOM     21  N   UNL     1      47.710   2.992   5.422  0.00  0.00    +0.000 N 
ATOM     22  C   UNL     1      47.582   2.222   6.544  0.00  0.00    +0.000 C 
ATOM     23  O   UNL     1      48.314   1.259   6.735  0.00  0.00    +0.000 OA
ATOM     24  H   UNL     1      48.489   2.768   4.816  0.00  0.00    +0.000 HD
ATOM     25  H   UNL     1      47.325   3.924   5.364  0.00  0.00    +0.000 HD
ENDBRANCH  15  22
ENDBRANCH  14  18
ENDBRANCH   1  14
TORSDOF 5
ENDMDL
MODEL 4
REMARK VINA RESULT:    -7.506      1.766      2.753
REMARK INTER + INTRA:         -10.513
REMARK INTER:                  -9.822
REMARK INTRA:                  -0.691
REMARK UNBOUND:                -0.814
REMARK  Name = 
REMARK  5 active torsions:
REMARK  status: ('A' for Active; 'I' for Inactive)
REMARK    1  A    between atoms: C_2  and  C_4
REMARK    2  A    between atoms: C_7  and  O_8
REMARK    3  A    between atoms: O_8  and  C_9
REMARK    4  A    between atoms: C_9  and  C_10
REMARK    5  A    between atoms: C_12  and  N_13
REMARK                            x       y       z     vdW  Elec       q    Type
REMARK                         _______ _______ _______ _____ _____    ______ ____
ROOT
ATOM      1  C   UNL     1      44.368   4.753  11.575  0.00  0.00    +0.000 C 
ENDROOT
BRANCH   1   2
ATOM      2  C   UNL     1      45.169   6.029  11.713  0.00  0.00    +0.000 A 
ATOM      3  C   UNL     1      46.511   5.998  12.098  0.00  0.00    +0.000 A 
ATOM      4  C   UNL     1      47.217   7.183  12.321  0.00  0.00    +0.000 A 
ATOM      5  C   UNL     1      46.513   8.372  12.128  0.00  0.00    +0.000 A 
ATOM      6  C   UNL     1      45.188   8.332  11.731  0.00  0.00    +0.000 A 
ATOM      7  N   UNL     1      44.498   7.193  11.534  0.00  0.00    +0.000 NA
BRANCH   4   8
ATOM      8  N   UNL     1      48.535   7.188  12.717  0.00  0.00    +0.000 N 
ATOM      9  C   UNL     1      48.961   6.903  14.095  0.00  0.00    +0.000 C 
ATOM     10  C   UNL     1      49.798   8.070  14.637  0.00  0.00    +0.000 C 
ATOM     11  O   UNL     1      50.899   8.382  13.765  0.00  0.00    +0.000 OA
ATOM     12  C   UNL     1      50.416   8.740  12.459  0.00  0.00    +0.000 C 
ATOM     13  C   UNL     1      49.619   7.593  11.814  0.00  0.00    +0.000 C 
ENDBRANCH   4   8
ENDBRANCH   1   2
BRANCH   1  14
ATOM     14  O   UNL     1      43.905   4.573  10.233  0.00  0.00    +0.000 OA
BRANCH  14  18
ATOM     15  C   UNL     1      46.389   2.371   7.711  0.00  0.00    +0.000 A 
ATOM     16  C   UNL     1      46.374   3.764   7.579  0.00  0.00    +0.000 A 
ATOM     17  C   UNL     1      45.553   4.541   8.405  0.00  0.00    +0.000 A 
ATOM     18  C   UNL     1      44.744   3.932   9.366  0.00  0.00    +0.000 A 
ATOM     19  C   UNL     1      44.758   2.540   9.490  0.00  0.00    +0.000 A 
ATOM     20  C   UNL     1      45.569   1.759   8.664  0.00  0.00    +0.000 A 
BRANCH  15  22
ATOM     21  N   UNL     1      48.275   2.111   6.196  0.00  0.00    +0.000 N 
ATOM     22  C   UNL     1      47.231   1.512   6.843  0.00  0.00    +0.000 C 
ATOM     23  O   UNL     1      47.027   0.309   6.733  0.00  0.00    +0.000 OA
ATOM     24  H   UNL     1      48.905   1.493   5.700  0.00  0.00    +0.000 HD
ATOM     25  H   UNL     1      48.629   3.016   6.471  0.00  0.00    +0.000 HD
ENDBRANCH  15  22
ENDBRANCH  14  18
ENDBRANCH   1  14
TORSDOF 5
ENDMDL
MODEL 5
REMARK VINA RESULT:    -6.916      3.932      8.235
REMARK INTER + INTRA:          -9.751
REMARK INTER:                  -9.261
REMARK INTRA:                  -0.490
REMARK UNBOUND:                -0.814
REMARK  Name = 
REMARK  5 active torsions:
REMARK  status: ('A' for Active; 'I' for Inactive)
REMARK    1  A    between atoms: C_2  and  C_4
REMARK    2  A    between atoms: C_7  and  O_8
REMARK    3  A    between atoms: O_8  and  C_9
REMARK    4  A    between atoms: C_9  and  C_10
REMARK    5  A    between atoms: C_12  and  N_13
REMARK                            x       y       z     vdW  Elec       q    Type
REMARK                         _______ _______ _______ _____ _____    ______ ____
ROOT
ATOM      1  C   UNL     1      46.705   4.461  13.838  0.00  0.00    +0.000 C 
ENDROOT
BRANCH   1   2
ATOM      2  C   UNL     1      45.507   4.139  12.972  0.00  0.00    +0.000 A 
ATOM      3  C   UNL     1      45.666   3.736  11.644  0.00  0.00    +0.000 A 
ATOM      4  C   UNL     1      44.554   3.537  10.820  0.00  0.00    +0.000 A 
ATOM      5  C   UNL     1      43.304   3.751  11.401  0.00  0.00    +0.000 A 
ATOM      6  C   UNL     1      43.216   4.136  12.728  0.00  0.00    +0.000 A 
ATOM      7  N   UNL     1      44.285   4.349  13.519  0.00  0.00    +0.000 NA
BRANCH   4   8
ATOM      8  N   UNL     1      44.676   3.156   9.504  0.00  0.00    +0.000 N 
ATOM      9  C   UNL     1      44.757   1.750   9.079  0.00  0.00    +0.000 C 
ATOM     10  C   UNL     1      46.034   1.524   8.258  0.00  0.00    +0.000 C 
ATOM     11  O   UNL     1      46.128   2.447   7.159  0.00  0.00    +0.000 OA
ATOM     12  C   UNL     1      46.135   3.801   7.641  0.00  0.00    +0.000 C 
ATOM     13  C   UNL     1      44.852   4.132   8.422  0.00  0.00    +0.000 C 
ENDBRANCH   4   8
ENDBRANCH   1   2
BRANCH   1  14
ATOM     14  O   UNL     1      47.168   3.302  14.535  0.00  0.00    +0.000 OA
BRANCH  14  18
ATOM     15  C   UNL     1      48.707   4.159  18.314  0.00  0.00    +0.000 A 
ATOM     16  C   UNL     1      48.981   2.906  17.754  0.00  0.00    +0.000 A 
ATOM     17  C   UNL     1      48.483   2.577  16.487  0.00  0.00    +0.000 A 
ATOM     18  C   UNL     1      47.709   3.496  15.776  0.00  0.00    +0.000 A 
ATOM     19  C   UNL     1      47.432   4.743  16.343  0.00  0.00    +0.000 A 
ATOM     20  C   UNL     1      47.920   5.074  17.609  0.00  0.00    +0.000 A 
BRANCH  15  22
ATOM     21  N   UNL     1      48.662   3.881  20.732  0.00  0.00    +0.000 N 
ATOM     22  C   UNL     1      49.201   4.538  19.661  0.00  0.00    +0.000 C 
ATOM     23  O   UNL     1      50.078   5.378  19.813  0.00  0.00    +0.000 OA
ATOM     24  H   UNL     1      49.089   4.069  21.630  0.00  0.00    +0.000 HD
ATOM     25  H   UNL     1      48.153   3.015  20.628  0.00  0.00    +0.000 HD
ENDBRANCH  15  22
ENDBRANCH  14  18
ENDBRANCH   1  14
TORSDOF 5
ENDMDL
MODEL 6
REMARK VINA RESULT:    -6.613      5.139      8.215
REMARK INTER + INTRA:          -9.360
REMARK INTER:                  -8.808
REMARK INTRA:                  -0.552
REMARK UNBOUND:                -0.814
REMARK  Name = 
REMARK  5 active torsions:
REMARK  status: ('A' for Active; 'I' for Inactive)
REMARK    1  A    between atoms: C_2  and  C_4
REMARK    2  A    between atoms: C_7  and  O_8
REMARK    3  A    between atoms: O_8  and  C_9
REMARK    4  A    between atoms: C_9  and  C_10
REMARK    5  A    between atoms: C_12  and  N_13
REMARK                            x       y       z     vdW  Elec       q    Type
REMARK                         _______ _______ _______ _____ _____    ______ ____
ROOT
ATOM      1  C   UNL     1      47.638   4.166  16.455  0.00  0.00    +0.000 C 
ENDROOT
BRANCH   1   2
ATOM      2  C   UNL     1      47.402   4.914  15.161  0.00  0.00    +0.000 A 
ATOM      3  C   UNL     1      46.416   4.505  14.263  0.00  0.00    +0.000 A 
ATOM      4  C   UNL     1      46.270   5.138  13.025  0.00  0.00    +0.000 A 
ATOM      5  C   UNL     1      47.147   6.190  12.757  0.00  0.00    +0.000 A 
ATOM      6  C   UNL     1      48.093   6.555  13.700  0.00  0.00    +0.000 A 
ATOM      7  N   UNL     1      48.250   5.935  14.884  0.00  0.00    +0.000 NA
BRANCH   4   8
ATOM      8  N   UNL     1      45.319   4.749  12.110  0.00  0.00    +0.000 N 
ATOM      9  C   UNL     1      44.420   5.696  11.434  0.00  0.00    +0.000 C 
ATOM     10  C   UNL     1      42.958   5.296  11.676  0.00  0.00    +0.000 C 
ATOM     11  O   UNL     1      42.714   3.928  11.303  0.00  0.00    +0.000 OA
ATOM     12  C   UNL     1      43.557   3.044  12.060  0.00  0.00    +0.000 C 
ATOM     13  C   UNL     1      45.048   3.336  11.819  0.00  0.00    +0.000 C 
ENDBRANCH   4   8
ENDBRANCH   1   2
BRANCH   1  14
ATOM     14  O   UNL     1      48.711   4.746  17.202  0.00  0.00    +0.000 OA
BRANCH  14  18
ATOM     15  C   UNL     1      51.950   2.171  17.713  0.00  0.00    +0.000 A 
ATOM     16  C   UNL     1      52.145   3.537  17.944  0.00  0.00    +0.000 A 
ATOM     17  C   UNL     1      51.084   4.436  17.783  0.00  0.00    +0.000 A 
ATOM     18  C   UNL     1      49.825   3.976  17.390  0.00  0.00    +0.000 A 
ATOM     19  C   UNL     1      49.638   2.612  17.154  0.00  0.00    +0.000 A 
ATOM     20  C   UNL     1      50.694   1.711  17.306  0.00  0.00    +0.000 A 
BRANCH  15  22
ATOM     21  N   UNL     1      52.707  -0.100  18.154  0.00  0.00    +0.000 N 
ATOM     22  C   UNL     1      53.053   1.189  17.854  0.00  0.00    +0.000 C 
ATOM     23  O   UNL     1      54.223   1.503  17.679  0.00  0.00    +0.000 OA
ATOM     24  H   UNL     1      53.458  -0.778  18.135  0.00  0.00    +0.000 HD
ATOM     25  H   UNL     1      51.764  -0.443  18.037  0.00  0.00    +0.000 HD
ENDBRANCH  15  22
ENDBRANCH  14  18
ENDBRANCH   1  14
TORSDOF 5
ENDMDL
MODEL 7
REMARK VINA RESULT:    -6.376      2.461      6.801
REMARK INTER + INTRA:          -9.054
REMARK INTER:                  -8.406
REMARK INTRA:                  -0.649
REMARK UNBOUND:                -0.814
REMARK  Name = 
REMARK  5 active torsions:
REMARK  status: ('A' for Active; 'I' for Inactive)
REMARK    1  A    between atoms: C_2  and  C_4
REMARK    2  A    between atoms: C_7  and  O_8
REMARK    3  A    between atoms: O_8  and  C_9
REMARK    4  A    between atoms: C_9  and  C_10
REMARK    5  A    between atoms: C_12  and  N_13
REMARK                            x       y       z     vdW  Elec       q    Type
REMARK                         _______ _______ _______ _____ _____    ______ ____
ROOT
ATOM      1  C   UNL     1      45.471   6.581  12.844  0.00  0.00    +0.000 C 
ENDROOT
BRANCH   1   2
ATOM      2  C   UNL     1      44.872   5.290  12.329  0.00  0.00    +0.000 A 
ATOM      3  C   UNL     1      45.144   4.836  11.037  0.00  0.00    +0.000 A 
ATOM      4  C   UNL     1      44.509   3.697  10.531  0.00  0.00    +0.000 A 
ATOM      5  C   UNL     1      43.617   3.052  11.388  0.00  0.00    +0.000 A 
ATOM      6  C   UNL     1      43.405   3.546  12.663  0.00  0.00    +0.000 A 
ATOM      7  N   UNL     1      43.998   4.654  13.146  0.00  0.00    +0.000 NA
BRANCH   4   8
ATOM      8  N   UNL     1      44.742   3.233   9.258  0.00  0.00    +0.000 N 
ATOM      9  C   UNL     1      44.781   1.802   8.919  0.00  0.00    +0.000 C 
ATOM     10  C   UNL     1      46.119   1.459   8.250  0.00  0.00    +0.000 C 
ATOM     11  O   UNL     1      46.379   2.309   7.119  0.00  0.00    +0.000 OA
ATOM     12  C   UNL     1      46.418   3.687   7.527  0.00  0.00    +0.000 C 
ATOM     13  C   UNL     1      45.085   4.132   8.150  0.00  0.00    +0.000 C 
ENDBRANCH   4   8
ENDBRANCH   1   2
BRANCH   1  14
ATOM     14  O   UNL     1      46.671   6.338  13.583  0.00  0.00    +0.000 OA
BRANCH  14  18
ATOM     15  C   UNL     1      50.276   8.070  12.406  0.00  0.00    +0.000 A 
ATOM     16  C   UNL     1      49.283   7.879  11.438  0.00  0.00    +0.000 A 
ATOM     17  C   UNL     1      48.059   7.300  11.791  0.00  0.00    +0.000 A 
ATOM     18  C   UNL     1      47.819   6.909  13.110  0.00  0.00    +0.000 A 
ATOM     19  C   UNL     1      48.816   7.096  14.071  0.00  0.00    +0.000 A 
ATOM     20  C   UNL     1      50.043   7.666  13.724  0.00  0.00    +0.000 A 
BRANCH  15  22
ATOM     21  N   UNL     1      52.707   7.984  12.477  0.00  0.00    +0.000 N 
ATOM     22  C   UNL     1      51.593   8.664  12.068  0.00  0.00    +0.000 C 
ATOM     23  O   UNL     1      51.688   9.699  11.422  0.00  0.00    +0.000 OA
ATOM     24  H   UNL     1      53.593   8.341  12.142  0.00  0.00    +0.000 HD
ATOM     25  H   UNL     1      52.670   7.016  12.762  0.00  0.00    +0.000 HD
ENDBRANCH  15  22
ENDBRANCH  14  18
ENDBRANCH   1  14
TORSDOF 5
ENDMDL
MODEL 8
REMARK VINA RESULT:    -6.149      3.867      8.311
REMARK INTER + INTRA:          -8.760
REMARK INTER:                  -8.155
REMARK INTRA:                  -0.604
REMARK UNBOUND:                -0.814
REMARK  Name = 
REMARK  5 active torsions:
REMARK  status: ('A' for Active; 'I' for Inactive)
REMARK    1  A    between atoms: C_2  and  C_4
REMARK    2  A    between atoms: C_7  and  O_8
REMARK    3  A    between atoms: O_8  and  C_9
REMARK    4  A    between atoms: C_9  and  C_10
REMARK    5  A    between atoms: C_12  and  N_13
REMARK                            x       y       z     vdW  Elec       q    Type
REMARK                         _______ _______ _______ _____ _____    ______ ____
ROOT
ATOM      1  C   UNL     1      48.071   6.764  13.703  0.00  0.00    +0.000 C 
ENDROOT
BRANCH   1   2
ATOM      2  C   UNL     1      46.796   6.991  12.921  0.00  0.00    +0.000 A 
ATOM      3  C   UNL     1      46.085   5.919  12.378  0.00  0.00    +0.000 A 
ATOM      4  C   UNL     1      44.964   6.141  11.572  0.00  0.00    +0.000 A 
ATOM      5  C   UNL     1      44.604   7.472  11.360  0.00  0.00    +0.000 A 
ATOM      6  C   UNL     1      45.345   8.487  11.940  0.00  0.00    +0.000 A 
ATOM      7  N   UNL     1      46.437   8.279  12.700  0.00  0.00    +0.000 NA
BRANCH   4   8
ATOM      8  N   UNL     1      44.250   5.108  11.009  0.00  0.00    +0.000 N 
ATOM      9  C   UNL     1      43.138   4.433  11.694  0.00  0.00    +0.000 C 
ATOM     10  C   UNL     1      43.407   2.924  11.770  0.00  0.00    +0.000 C 
ATOM     11  O   UNL     1      43.684   2.370  10.472  0.00  0.00    +0.000 OA
ATOM     12  C   UNL     1      44.834   3.006   9.890  0.00  0.00    +0.000 C 
ATOM     13  C   UNL     1      44.619   4.519   9.716  0.00  0.00    +0.000 C 
ENDBRANCH   4   8
ENDBRANCH   1   2
BRANCH   1  14
ATOM     14  O   UNL     1      48.066   5.485  14.345  0.00  0.00    +0.000 OA
BRANCH  14  18
ATOM     15  C   UNL     1      48.154   5.220  18.504  0.00  0.00    +0.000 A 
ATOM     16  C   UNL     1      48.843   6.272  17.891  0.00  0.00    +0.000 A 
ATOM     17  C   UNL     1      48.840   6.398  16.497  0.00  0.00    +0.000 A 
ATOM     18  C   UNL     1      48.150   5.474  15.709  0.00  0.00    +0.000 A 
ATOM     19  C   UNL     1      47.470   4.421  16.326  0.00  0.00    +0.000 A 
ATOM     20  C   UNL     1      47.475   4.287  17.716  0.00  0.00    +0.000 A 
BRANCH  15  22
ATOM     21  N   UNL     1      48.534   3.823  20.460  0.00  0.00    +0.000 N 
ATOM     22  C   UNL     1      48.148   5.042  19.978  0.00  0.00    +0.000 C 
ATOM     23  O   UNL     1      47.846   5.954  20.736  0.00  0.00    +0.000 OA
ATOM     24  H   UNL     1      48.634   3.754  21.465  0.00  0.00    +0.000 HD
ATOM     25  H   UNL     1      49.039   3.157  19.894  0.00  0.00    +0.000 HD
ENDBRANCH  15  22
ENDBRANCH  14  18
ENDBRANCH   1  14
TORSDOF 5
ENDMDL
MODEL 9
REMARK VINA RESULT:    -5.986      3.623      6.004
REMARK INTER + INTRA:          -8.550
REMARK INTER:                  -7.844
REMARK INTRA:                  -0.706
REMARK UNBOUND:                -0.814
REMARK  Name = 
REMARK  5 active torsions:
REMARK  status: ('A' for Active; 'I' for Inactive)
REMARK    1  A    between atoms: C_2  and  C_4
REMARK    2  A    between atoms: C_7  and  O_8
REMARK    3  A    between atoms: O_8  and  C_9
REMARK    4  A    between atoms: C_9  and  C_10
REMARK    5  A    between atoms: C_12  and  N_13
REMARK                            x       y       z     vdW  Elec       q    Type
REMARK                         _______ _______ _______ _____ _____    ______ ____
ROOT
ATOM      1  C   UNL     1      47.991   7.507  12.975  0.00  0.00    +0.000 C 
ENDROOT
BRANCH   1   2
ATOM      2  C   UNL     1      48.352   7.537  14.444  0.00  0.00    +0.000 A 
ATOM      3  C   UNL     1      48.520   6.355  15.168  0.00  0.00    +0.000 A 
ATOM      4  C   UNL     1      48.754   6.389  16.546  0.00  0.00    +0.000 A 
ATOM      5  C   UNL     1      48.818   7.652  17.135  0.00  0.00    +0.000 A 
ATOM      6  C   UNL     1      48.658   8.785  16.356  0.00  0.00    +0.000 A 
ATOM      7  N   UNL     1      48.412   8.757  15.032  0.00  0.00    +0.000 NA
BRANCH   4   8
ATOM      8  N   UNL     1      48.908   5.243  17.292  0.00  0.00    +0.000 N 
ATOM      9  C   UNL     1      50.174   4.871  17.941  0.00  0.00    +0.000 C 
ATOM     10  C   UNL     1      50.610   3.474  17.479  0.00  0.00    +0.000 C 
ATOM     11  O   UNL     1      49.571   2.501  17.682  0.00  0.00    +0.000 OA
ATOM     12  C   UNL     1      48.389   2.871  16.951  0.00  0.00    +0.000 C 
ATOM     13  C   UNL     1      47.846   4.236  17.404  0.00  0.00    +0.000 C 
ENDBRANCH   4   8
ENDBRANCH   1   2
BRANCH   1  14
ATOM     14  O   UNL     1      46.574   7.565  12.787  0.00  0.00    +0.000 OA
BRANCH  14  18
ATOM     15  C   UNL     1      44.693   4.115  11.394  0.00  0.00    +0.000 A 
ATOM     16  C   UNL     1      45.206   5.017  10.456  0.00  0.00    +0.000 A 
ATOM     17  C   UNL     1      45.844   6.189  10.881  0.00  0.00    +0.000 A 
ATOM     18  C   UNL     1      45.973   6.465  12.244  0.00  0.00    +0.000 A 
ATOM     19  C   UNL     1      45.453   5.564  13.176  0.00  0.00    +0.000 A 
ATOM     20  C   UNL     1      44.809   4.397  12.759  0.00  0.00    +0.000 A 
BRANCH  15  22
ATOM     21  N   UNL     1      44.514   2.185   9.923  0.00  0.00    +0.000 N 
ATOM     22  C   UNL     1      43.994   2.872  10.984  0.00  0.00    +0.000 C 
ATOM     23  O   UNL     1      43.014   2.454  11.587  0.00  0.00    +0.000 OA
ATOM     24  H   UNL     1      44.095   1.285   9.728  0.00  0.00    +0.000 HD
ATOM     25  H   UNL     1      45.452   2.347   9.587  0.00  0.00    +0.000 HD
ENDBRANCH  15  22
ENDBRANCH  14  18
ENDBRANCH   1  14
TORSDOF 5
ENDMDL
