MODEL 1
REMARK VINA RESULT:    -8.055      0.000      0.000
REMARK INTER + INTRA:         -11.953
REMARK INTER:                 -10.880
REMARK INTRA:                  -1.072
REMARK UNBOUND:                -1.072
REMARK  Name = 
REMARK  6 active torsions:
REMARK  status: ('A' for Active; 'I' for Inactive)
REMARK    1  A    between atoms: C_2  and  C_4
REMARK    2  A    between atoms: C_7  and  N_8
REMARK    3  A    between atoms: N_8  and  C_9
REMARK    4  A    between atoms: C_9  and  C_10
REMARK    5  A    between atoms: C_13  and  O_14
REMARK    6  A    between atoms: O_14  and  C_15
REMARK                            x       y       z     vdW  Elec       q    Type
REMARK                         _______ _______ _______ _____ _____    ______ ____
ROOT
ATOM      1  C   UNL     1      43.871   4.930  11.363  0.00  0.00    +0.000 C 
ATOM      2  C   UNL     1      42.683   5.055  12.316  0.00  0.00    +0.000 C 
ATOM      3  C   UNL     1      42.910   6.106  11.285  0.00  0.00    +0.000 C 
ENDROOT
BRANCH   1   4
ATOM      4  C   UNL     1      45.263   5.238  11.911  0.00  0.00    +0.000 A 
ATOM      5  C   UNL     1      45.969   6.377  11.492  0.00  0.00    +0.000 A 
ATOM      6  C   UNL     1      47.188   6.744  12.075  0.00  0.00    +0.000 A 
ATOM      7  C   UNL     1      47.714   5.991  13.118  0.00  0.00    +0.000 A 
ATOM      8  C   UNL     1      47.082   4.802  13.480  0.00  0.00    +0.000 A 
ATOM      9  C   UNL     1      45.877   4.427  12.880  0.00  0.00    +0.000 A 
BRANCH   7  10
ATOM     10  O   UNL     1      48.847   6.278  13.816  0.00  0.00    +0.000 OA
BRANCH  10  11
ATOM     11  C   UNL     1      48.751   7.086  14.983  0.00  0.00    +0.000 C 
ATOM     12  F   UNL     1      47.881   8.114  14.886  0.00  0.00    +0.000 F 
ATOM     13  F   UNL     1      48.353   6.309  16.015  0.00  0.00    +0.000 F 
ATOM     14  F   UNL     1      49.973   7.580  15.278  0.00  0.00    +0.000 F 
ENDBRANCH  10  11
ENDBRANCH   7  10
ENDBRANCH   1   4
BRANCH   1  15
ATOM     15  N   UNL     1      43.818   3.743  10.482  0.00  0.00    +0.000 N 
ATOM     16  H   UNL     1      43.540   2.905  10.988  0.00  0.00    +0.000 HD
BRANCH  15  20
ATOM     17  C   UNL     1      46.479   2.619   7.465  0.00  0.00    +0.000 A 
ATOM     18  C   UNL     1      46.105   3.956   7.527  0.00  0.00    +0.000 A 
ATOM     19  C   UNL     1      45.240   4.362   8.547  0.00  0.00    +0.000 A 
ATOM     20  C   UNL     1      44.770   3.442   9.483  0.00  0.00    +0.000 A 
ATOM     21  C   UNL     1      45.193   2.116   9.303  0.00  0.00    +0.000 A 
ATOM     22  N   UNL     1      46.038   1.676   8.337  0.00  0.00    +0.000 NA
BRANCH  17  24
ATOM     23  N   UNL     1      47.481   2.967   5.285  0.00  0.00    +0.000 N 
ATOM     24  C   UNL     1      47.405   2.155   6.383  0.00  0.00    +0.000 C 
ATOM     25  O   UNL     1      48.061   1.121   6.470  0.00  0.00    +0.000 OA
ATOM     26  H   UNL     1      48.097   2.721   4.524  0.00  0.00    +0.000 HD
ATOM     27  H   UNL     1      46.939   3.821   5.254  0.00  0.00    +0.000 HD
ENDBRANCH  17  24
ENDBRANCH  15  20
ENDBRANCH   1  15
TORSDOF 6
ENDMDL
MODEL 2
REMARK VINA RESULT:    -7.967      1.120      1.609
REMARK INTER + INTRA:         -11.834
REMARK INTER:                 -11.385
REMARK INTRA:                  -0.449
REMARK UNBOUND:                -1.072
REMARK  Name = 
REMARK  6 active torsions:
REMARK  status: ('A' for Active; 'I' for Inactive)
REMARK    1  A    between atoms: C_2  and  C_4
REMARK    2  A    between atoms: C_7  and  N_8
REMARK    3  A    between atoms: N_8  and  C_9
REMARK    4  A    between atoms: C_9  and  C_10
REMARK    5  A    between atoms: C_13  and  O_14
REMARK    6  A    between atoms: O_14  and  C_15
REMARK                            x       y       z     vdW  Elec       q    Type
REMARK                         _______ _______ _______ _____ _____    ______ ____
ROOT
ATOM      1  C   UNL     1      43.833   5.112  11.364  0.00  0.00    +0.000 C 
ATOM      2  C   UNL     1      43.005   4.104  12.158  0.00  0.00    +0.000 C 
ATOM      3  C   UNL     1      42.596   5.536  12.140  0.00  0.00    +0.000 C 
ENDROOT
BRANCH   1   4
ATOM      4  C   UNL     1      45.174   5.555  11.947  0.00  0.00    +0.000 A 
ATOM      5  C   UNL     1      45.741   4.886  13.044  0.00  0.00    +0.000 A 
ATOM      6  C   UNL     1      47.024   5.194  13.512  0.00  0.00    +0.000 A 
ATOM      7  C   UNL     1      47.784   6.164  12.868  0.00  0.00    +0.000 A 
ATOM      8  C   UNL     1      47.202   6.910  11.844  0.00  0.00    +0.000 A 
ATOM      9  C   UNL     1      45.913   6.613  11.394  0.00  0.00    +0.000 A 
BRANCH   7  10
ATOM     10  O   UNL     1      49.065   6.506  13.175  0.00  0.00    +0.000 OA
BRANCH  10  11
ATOM     11  C   UNL     1      49.306   7.334  14.307  0.00  0.00    +0.000 C 
ATOM     12  F   UNL     1      50.251   8.279  14.121  0.00  0.00    +0.000 F 
ATOM     13  F   UNL     1      48.155   7.965  14.633  0.00  0.00    +0.000 F 
ATOM     14  F   UNL     1      49.668   6.558  15.351  0.00  0.00    +0.000 F 
ENDBRANCH  10  11
ENDBRANCH   7  10
ENDBRANCH   1   4
BRANCH   1  15
ATOM     15  N   UNL     1      43.865   4.857   9.907  0.00  0.00    +0.000 N 
ATOM     16  H   UNL     1      42.929   4.777   9.514  0.00  0.00    +0.000 HD
BRANCH  15  20
ATOM     17  C   UNL     1      46.304   2.070   7.977  0.00  0.00    +0.000 A 
ATOM     18  C   UNL     1      46.428   3.401   7.601  0.00  0.00    +0.000 A 
ATOM     19  C   UNL     1      45.644   4.357   8.255  0.00  0.00    +0.000 A 
ATOM     20  C   UNL     1      44.763   3.977   9.265  0.00  0.00    +0.000 A 
ATOM     21  C   UNL     1      44.704   2.602   9.540  0.00  0.00    +0.000 A 
ATOM     22  N   UNL     1      45.450   1.639   8.941  0.00  0.00    +0.000 NA
BRANCH  17  24
ATOM     23  N   UNL     1      46.841  -0.269   7.633  0.00  0.00    +0.000 N 
ATOM     24  C   UNL     1      47.132   1.024   7.295  0.00  0.00    +0.000 C 
ATOM     25  O   UNL     1      48.009   1.299   6.482  0.00  0.00    +0.000 OA
ATOM     26  H   UNL     1      47.351  -1.025   7.200  0.00  0.00    +0.000 HD
ATOM     27  H   UNL     1      46.099  -0.460   8.294  0.00  0.00    +0.000 HD
ENDBRANCH  17  24
ENDBRANCH  15  20
ENDBRANCH   1  15
TORSDOF 6
ENDMDL
MODEL 3
REMARK VINA RESULT:    -7.356      4.657      7.257
REMARK INTER + INTRA:         -11.008
REMARK INTER:                 -10.112
REMARK INTRA:                  -0.896
REMARK UNBOUND:                -1.072
REMARK  Name = 
REMARK  6 active torsions:
REMARK  status: ('A' for Active; 'I' for Inactive)
REMARK    1  A    between atoms: C_2  and  C_4
REMARK    2  A    between atoms: C_7  and  N_8
REMARK    3  A    between atoms: N_8  and  C_9
REMARK    4  A    between atoms: C_9  and  C_10
REMARK    5  A    between atoms: C_13  and  O_14
REMARK    6  A    between atoms: O_14  and  C_15
REMARK                            x       y       z     vdW  Elec       q    Type
REMARK                         _______ _______ _______ _____ _____    ______ ____
ROOT
ATOM      1  C   UNL     1      44.564   4.854  11.703  0.00  0.00    +0.000 C 
ATOM      2  C   UNL     1      43.240   5.565  11.976  0.00  0.00    +0.000 C 
ATOM      3  C   UNL     1      43.396   4.134  12.358  0.00  0.00    +0.000 C 
ENDROOT
BRANCH   1   4
ATOM      4  C   UNL     1      44.876   4.452  10.263  0.00  0.00    +0.000 A 
ATOM      5  C   UNL     1      45.717   5.238   9.458  0.00  0.00    +0.000 A 
ATOM      6  C   UNL     1      46.116   4.822   8.183  0.00  0.00    +0.000 A 
ATOM      7  C   UNL     1      45.705   3.587   7.694  0.00  0.00    +0.000 A 
ATOM      8  C   UNL     1      44.790   2.838   8.433  0.00  0.00    +0.000 A 
ATOM      9  C   UNL     1      44.376   3.267   9.697  0.00  0.00    +0.000 A 
BRANCH   7  10
ATOM     10  O   UNL     1      46.079   3.035   6.508  0.00  0.00    +0.000 OA
BRANCH  10  11
ATOM     11  C   UNL     1      47.211   2.174   6.474  0.00  0.00    +0.000 C 
ATOM     12  F   UNL     1      46.957   0.896   6.825  0.00  0.00    +0.000 F 
ATOM     13  F   UNL     1      47.706   2.161   5.215  0.00  0.00    +0.000 F 
ATOM     14  F   UNL     1      48.164   2.667   7.294  0.00  0.00    +0.000 F 
ENDBRANCH  10  11
ENDBRANCH   7  10
ENDBRANCH   1   4
BRANCH   1  15
ATOM     15  N   UNL     1      45.718   5.421  12.435  0.00  0.00    +0.000 N 
ATOM     16  H   UNL     1      46.393   5.852  11.806  0.00  0.00    +0.000 HD
BRANCH  15  20
ATOM     17  C   UNL     1      47.804   3.446  15.467  0.00  0.00    +0.000 A 
ATOM     18  C   UNL     1      47.493   4.785  15.668  0.00  0.00    +0.000 A 
ATOM     19  C   UNL     1      46.768   5.459  14.680  0.00  0.00    +0.000 A 
ATOM     20  C   UNL     1      46.364   4.795  13.523  0.00  0.00    +0.000 A 
ATOM     21  C   UNL     1      46.759   3.453  13.419  0.00  0.00    +0.000 A 
ATOM     22  N   UNL     1      47.452   2.754  14.352  0.00  0.00    +0.000 NA
BRANCH  17  24
ATOM     23  N   UNL     1      48.346   3.078  17.801  0.00  0.00    +0.000 N 
ATOM     24  C   UNL     1      48.579   2.698  16.507  0.00  0.00    +0.000 C 
ATOM     25  O   UNL     1      49.367   1.799  16.229  0.00  0.00    +0.000 OA
ATOM     26  H   UNL     1      48.825   2.605  18.554  0.00  0.00    +0.000 HD
ATOM     27  H   UNL     1      47.676   3.811  17.995  0.00  0.00    +0.000 HD
ENDBRANCH  17  24
ENDBRANCH  15  20
ENDBRANCH   1  15
TORSDOF 6
ENDMDL
MODEL 4
REMARK VINA RESULT:    -7.328      4.496      7.185
REMARK INTER + INTRA:         -10.970
REMARK INTER:                 -10.290
REMARK INTRA:                  -0.680
REMARK UNBOUND:                -1.072
REMARK  Name = 
REMARK  6 active torsions:
REMARK  status: ('A' for Active; 'I' for Inactive)
REMARK    1  A    between atoms: C_2  and  C_4
REMARK    2  A    between atoms: C_7  and  N_8
REMARK    3  A    between atoms: N_8  and  C_9
REMARK    4  A    between atoms: C_9  and  C_10
REMARK    5  A    between atoms: C_13  and  O_14
REMARK    6  A    between atoms: O_14  and  C_15
REMARK                            x       y       z     vdW  Elec       q    Type
REMARK                         _______ _______ _______ _____ _____    ______ ____
ROOT
ATOM      1  C   UNL     1      44.238   4.827  11.540  0.00  0.00    +0.000 C 
ATOM      2  C   UNL     1      42.750   4.576  11.774  0.00  0.00    +0.000 C 
ATOM      3  C   UNL     1      43.756   3.776  12.528  0.00  0.00    +0.000 C 
ENDROOT
BRANCH   1   4
ATOM      4  C   UNL     1      44.858   4.297  10.249  0.00  0.00    +0.000 A 
ATOM      5  C   UNL     1      44.721   2.949   9.881  0.00  0.00    +0.000 A 
ATOM      6  C   UNL     1      45.172   2.473   8.644  0.00  0.00    +0.000 A 
ATOM      7  C   UNL     1      45.746   3.349   7.729  0.00  0.00    +0.000 A 
ATOM      8  C   UNL     1      45.984   4.668   8.114  0.00  0.00    +0.000 A 
ATOM      9  C   UNL     1      45.552   5.134   9.359  0.00  0.00    +0.000 A 
BRANCH   7  10
ATOM     10  O   UNL     1      46.156   3.031   6.472  0.00  0.00    +0.000 OA
BRANCH  10  11
ATOM     11  C   UNL     1      47.330   2.243   6.308  0.00  0.00    +0.000 C 
ATOM     12  F   UNL     1      48.301   2.486   7.213  0.00  0.00    +0.000 F 
ATOM     13  F   UNL     1      46.991   0.938   6.412  0.00  0.00    +0.000 F 
ATOM     14  F   UNL     1      47.830   2.449   5.070  0.00  0.00    +0.000 F 
ENDBRANCH  10  11
ENDBRANCH   7  10
ENDBRANCH   1   4
BRANCH   1  15
ATOM     15  N   UNL     1      44.689   6.186  11.912  0.00  0.00    +0.000 N 
ATOM     16  H   UNL     1      44.560   6.852  11.153  0.00  0.00    +0.000 HD
BRANCH  15  20
ATOM     17  C   UNL     1      48.295   6.826  13.920  0.00  0.00    +0.000 A 
ATOM     18  C   UNL     1      47.570   7.944  13.529  0.00  0.00    +0.000 A 
ATOM     19  C   UNL     1      46.344   7.756  12.883  0.00  0.00    +0.000 A 
ATOM     20  C   UNL     1      45.863   6.470  12.644  0.00  0.00    +0.000 A 
ATOM     21  C   UNL     1      46.694   5.418  13.059  0.00  0.00    +0.000 A 
ATOM     22  N   UNL     1      47.884   5.551  13.698  0.00  0.00    +0.000 NA
BRANCH  17  24
ATOM     23  N   UNL     1      50.531   7.761  13.952  0.00  0.00    +0.000 N 
ATOM     24  C   UNL     1      49.610   6.997  14.616  0.00  0.00    +0.000 C 
ATOM     25  O   UNL     1      49.853   6.495  15.709  0.00  0.00    +0.000 OA
ATOM     26  H   UNL     1      51.435   7.930  14.370  0.00  0.00    +0.000 HD
ATOM     27  H   UNL     1      50.291   8.174  13.060  0.00  0.00    +0.000 HD
ENDBRANCH  17  24
ENDBRANCH  15  20
ENDBRANCH   1  15
TORSDOF 6
ENDMDL
MODEL 5
REMARK VINA RESULT:    -6.598      4.514      7.197
REMARK INTER + INTRA:          -9.984
REMARK INTER:                  -9.738
REMARK INTRA:                  -0.247
REMARK UNBOUND:                -1.072
REMARK  Name = 
REMARK  6 active torsions:
REMARK  status: ('A' for Active; 'I' for Inactive)
REMARK    1  A    between atoms: C_2  and  C_4
REMARK    2  A    between atoms: C_7  and  N_8
REMARK    3  A    between atoms: N_8  and  C_9
REMARK    4  A    between atoms: C_9  and  C_10
REMARK    5  A    between atoms: C_13  and  O_14
REMARK    6  A    between atoms: O_14  and  C_15
REMARK                            x       y       z     vdW  Elec       q    Type
REMARK                         _______ _______ _______ _____ _____    ______ ____
ROOT
ATOM      1  C   UNL     1      44.463   4.334  11.685  0.00  0.00    +0.000 C 
ATOM      2  C   UNL     1      43.130   5.047  11.905  0.00  0.00    +0.000 C 
ATOM      3  C   UNL     1      43.267   3.614  12.289  0.00  0.00    +0.000 C 
ENDROOT
BRANCH   1   4
ATOM      4  C   UNL     1      44.833   3.934  10.258  0.00  0.00    +0.000 A 
ATOM      5  C   UNL     1      45.395   4.865   9.369  0.00  0.00    +0.000 A 
ATOM      6  C   UNL     1      45.857   4.488   8.102  0.00  0.00    +0.000 A 
ATOM      7  C   UNL     1      45.794   3.156   7.707  0.00  0.00    +0.000 A 
ATOM      8  C   UNL     1      45.148   2.236   8.532  0.00  0.00    +0.000 A 
ATOM      9  C   UNL     1      44.668   2.621   9.786  0.00  0.00    +0.000 A 
BRANCH   7  10
ATOM     10  O   UNL     1      46.272   2.649   6.539  0.00  0.00    +0.000 OA
BRANCH  10  11
ATOM     11  C   UNL     1      47.621   2.200   6.482  0.00  0.00    +0.000 C 
ATOM     12  F   UNL     1      48.525   3.074   6.972  0.00  0.00    +0.000 F 
ATOM     13  F   UNL     1      47.726   1.058   7.199  0.00  0.00    +0.000 F 
ATOM     14  F   UNL     1      47.939   1.921   5.200  0.00  0.00    +0.000 F 
ENDBRANCH  10  11
ENDBRANCH   7  10
ENDBRANCH   1   4
BRANCH   1  15
ATOM     15  N   UNL     1      45.587   4.896  12.464  0.00  0.00    +0.000 N 
ATOM     16  H   UNL     1      45.573   4.583  13.433  0.00  0.00    +0.000 HD
BRANCH  15  20
ATOM     17  C   UNL     1      46.839   8.881  12.437  0.00  0.00    +0.000 A 
ATOM     18  C   UNL     1      47.730   7.924  11.968  0.00  0.00    +0.000 A 
ATOM     19  C   UNL     1      47.322   6.587  11.938  0.00  0.00    +0.000 A 
ATOM     20  C   UNL     1      46.046   6.228  12.366  0.00  0.00    +0.000 A 
ATOM     21  C   UNL     1      45.244   7.276  12.844  0.00  0.00    +0.000 A 
ATOM     22  N   UNL     1      45.590   8.587  12.883  0.00  0.00    +0.000 NA
BRANCH  17  24
ATOM     23  N   UNL     1      46.328  11.208  11.989  0.00  0.00    +0.000 N 
ATOM     24  C   UNL     1      47.247  10.321  12.479  0.00  0.00    +0.000 C 
ATOM     25  O   UNL     1      48.328  10.691  12.927  0.00  0.00    +0.000 OA
ATOM     26  H   UNL     1      46.533  12.197  12.000  0.00  0.00    +0.000 HD
ATOM     27  H   UNL     1      45.440  10.870  11.643  0.00  0.00    +0.000 HD
ENDBRANCH  17  24
ENDBRANCH  15  20
ENDBRANCH   1  15
TORSDOF 6
ENDMDL
MODEL 6
REMARK VINA RESULT:    -6.045      4.857      8.067
REMARK INTER + INTRA:          -9.238
REMARK INTER:                  -8.691
REMARK INTRA:                  -0.548
REMARK UNBOUND:                -1.072
REMARK  Name = 
REMARK  6 active torsions:
REMARK  status: ('A' for Active; 'I' for Inactive)
REMARK    1  A    between atoms: C_2  and  C_4
REMARK    2  A    between atoms: C_7  and  N_8
REMARK    3  A    between atoms: N_8  and  C_9
REMARK    4  A    between atoms: C_9  and  C_10
REMARK    5  A    between atoms: C_13  and  O_14
REMARK    6  A    between atoms: O_14  and  C_15
REMARK                            x       y       z     vdW  Elec       q    Type
REMARK                         _______ _______ _______ _____ _____    ______ ____
ROOT
ATOM      1  C   UNL     1      46.894   6.977  12.830  0.00  0.00    +0.000 C 
ATOM      2  C   UNL     1      47.217   8.327  12.195  0.00  0.00    +0.000 C 
ATOM      3  C   UNL     1      46.214   8.256  13.294  0.00  0.00    +0.000 C 
ENDROOT
BRANCH   1   4
ATOM      4  C   UNL     1      46.021   6.005  12.039  0.00  0.00    +0.000 A 
ATOM      5  C   UNL     1      46.007   6.024  10.634  0.00  0.00    +0.000 A 
ATOM      6  C   UNL     1      45.314   5.061   9.891  0.00  0.00    +0.000 A 
ATOM      7  C   UNL     1      44.641   4.033  10.542  0.00  0.00    +0.000 A 
ATOM      8  C   UNL     1      44.557   4.054  11.933  0.00  0.00    +0.000 A 
ATOM      9  C   UNL     1      45.232   5.030  12.671  0.00  0.00    +0.000 A 
BRANCH   7  10
ATOM     10  O   UNL     1      43.993   2.999   9.939  0.00  0.00    +0.000 OA
BRANCH  10  11
ATOM     11  C   UNL     1      44.678   2.239   8.950  0.00  0.00    +0.000 C 
ATOM     12  F   UNL     1      45.993   2.057   9.190  0.00  0.00    +0.000 F 
ATOM     13  F   UNL     1      44.104   1.017   8.871  0.00  0.00    +0.000 F 
ATOM     14  F   UNL     1      44.537   2.847   7.752  0.00  0.00    +0.000 F 
ENDBRANCH  10  11
ENDBRANCH   7  10
ENDBRANCH   1   4
BRANCH   1  15
ATOM     15  N   UNL     1      48.040   6.338  13.514  0.00  0.00    +0.000 N 
ATOM     16  H   UNL     1      48.452   5.595  12.953  0.00  0.00    +0.000 HD
BRANCH  15  20
ATOM     17  C   UNL     1      48.200   5.124  17.507  0.00  0.00    +0.000 A 
ATOM     18  C   UNL     1      48.885   6.282  17.159  0.00  0.00    +0.000 A 
ATOM     19  C   UNL     1      48.820   6.726  15.835  0.00  0.00    +0.000 A 
ATOM     20  C   UNL     1      48.079   6.020  14.889  0.00  0.00    +0.000 A 
ATOM     21  C   UNL     1      47.453   4.852  15.349  0.00  0.00    +0.000 A 
ATOM     22  N   UNL     1      47.477   4.387  16.624  0.00  0.00    +0.000 NA
BRANCH  17  24
ATOM     23  N   UNL     1      48.339   3.268  19.060  0.00  0.00    +0.000 N 
ATOM     24  C   UNL     1      48.250   4.626  18.918  0.00  0.00    +0.000 C 
ATOM     25  O   UNL     1      48.220   5.377  19.888  0.00  0.00    +0.000 OA
ATOM     26  H   UNL     1      48.390   2.864  19.984  0.00  0.00    +0.000 HD
ATOM     27  H   UNL     1      48.378   2.680  18.237  0.00  0.00    +0.000 HD
ENDBRANCH  17  24
ENDBRANCH  15  20
ENDBRANCH   1  15
TORSDOF 6
ENDMDL
MODEL 7
REMARK VINA RESULT:    -6.045      5.255      7.838
REMARK INTER + INTRA:          -9.238
REMARK INTER:                  -8.982
REMARK INTRA:                  -0.256
REMARK UNBOUND:                -1.072
REMARK  Name = 
REMARK  6 active torsions:
REMARK  status: ('A' for Active; 'I' for Inactive)
REMARK    1  A    between atoms: C_2  and  C_4
REMARK    2  A    between atoms: C_7  and  N_8
REMARK    3  A    between atoms: N_8  and  C_9
REMARK    4  A    between atoms: C_9  and  C_10
REMARK    5  A    between atoms: C_13  and  O_14
REMARK    6  A    between atoms: O_14  and  C_15
REMARK                            x       y       z     vdW  Elec       q    Type
REMARK                         _______ _______ _______ _____ _____    ______ ____
ROOT
ATOM      1  C   UNL     1      46.944   5.733  13.872  0.00  0.00    +0.000 C 
ATOM      2  C   UNL     1      48.389   6.037  13.484  0.00  0.00    +0.000 C 
ATOM      3  C   UNL     1      47.415   7.156  13.615  0.00  0.00    +0.000 C 
ENDROOT
BRANCH   1   4
ATOM      4  C   UNL     1      46.030   5.128  12.809  0.00  0.00    +0.000 A 
ATOM      5  C   UNL     1      45.661   5.863  11.670  0.00  0.00    +0.000 A 
ATOM      6  C   UNL     1      44.930   5.284  10.625  0.00  0.00    +0.000 A 
ATOM      7  C   UNL     1      44.577   3.941  10.684  0.00  0.00    +0.000 A 
ATOM      8  C   UNL     1      44.843   3.222  11.849  0.00  0.00    +0.000 A 
ATOM      9  C   UNL     1      45.554   3.810  12.899  0.00  0.00    +0.000 A 
BRANCH   7  10
ATOM     10  O   UNL     1      43.934   3.243   9.709  0.00  0.00    +0.000 OA
BRANCH  10  11
ATOM     11  C   UNL     1      44.702   2.478   8.788  0.00  0.00    +0.000 C 
ATOM     12  F   UNL     1      44.454   1.152   8.814  0.00  0.00    +0.000 F 
ATOM     13  F   UNL     1      44.440   2.919   7.536  0.00  0.00    +0.000 F 
ATOM     14  F   UNL     1      46.014   2.678   9.036  0.00  0.00    +0.000 F 
ENDBRANCH  10  11
ENDBRANCH   7  10
ENDBRANCH   1   4
BRANCH   1  15
ATOM     15  N   UNL     1      46.791   5.128  15.214  0.00  0.00    +0.000 N 
ATOM     16  H   UNL     1      46.266   5.730  15.845  0.00  0.00    +0.000 HD
BRANCH  15  20
ATOM     17  C   UNL     1      49.865   2.938  17.003  0.00  0.00    +0.000 A 
ATOM     18  C   UNL     1      49.783   4.292  17.301  0.00  0.00    +0.000 A 
ATOM     19  C   UNL     1      48.744   5.040  16.739  0.00  0.00    +0.000 A 
ATOM     20  C   UNL     1      47.810   4.433  15.902  0.00  0.00    +0.000 A 
ATOM     21  C   UNL     1      48.009   3.067  15.651  0.00  0.00    +0.000 A 
ATOM     22  N   UNL     1      48.994   2.297  16.180  0.00  0.00    +0.000 NA
BRANCH  17  24
ATOM     23  N   UNL     1      51.764   2.754  18.498  0.00  0.00    +0.000 N 
ATOM     24  C   UNL     1      50.966   2.111  17.592  0.00  0.00    +0.000 C 
ATOM     25  O   UNL     1      51.145   0.935  17.292  0.00  0.00    +0.000 OA
ATOM     26  H   UNL     1      52.518   2.252  18.944  0.00  0.00    +0.000 HD
ATOM     27  H   UNL     1      51.577   3.720  18.734  0.00  0.00    +0.000 HD
ENDBRANCH  17  24
ENDBRANCH  15  20
ENDBRANCH   1  15
TORSDOF 6
ENDMDL
MODEL 8
REMARK VINA RESULT:    -5.718      5.210      8.735
REMARK INTER + INTRA:          -8.796
REMARK INTER:                  -7.625
REMARK INTRA:                  -1.170
REMARK UNBOUND:                -1.072
REMARK  Name = 
REMARK  6 active torsions:
REMARK  status: ('A' for Active; 'I' for Inactive)
REMARK    1  A    between atoms: C_2  and  C_4
REMARK    2  A    between atoms: C_7  and  N_8
REMARK    3  A    between atoms: N_8  and  C_9
REMARK    4  A    between atoms: C_9  and  C_10
REMARK    5  A    between atoms: C_13  and  O_14
REMARK    6  A    between atoms: O_14  and  C_15
REMARK                            x       y       z     vdW  Elec       q    Type
REMARK                         _______ _______ _______ _____ _____    ______ ____
ROOT
ATOM      1  C   UNL     1      48.351   7.508  13.001  0.00  0.00    +0.000 C 
ATOM      2  C   UNL     1      49.084   7.543  11.662  0.00  0.00    +0.000 C 
ATOM      3  C   UNL     1      48.178   8.666  12.031  0.00  0.00    +0.000 C 
ENDROOT
BRANCH   1   4
ATOM      4  C   UNL     1      47.156   6.566  13.138  0.00  0.00    +0.000 A 
ATOM      5  C   UNL     1      45.850   7.011  12.874  0.00  0.00    +0.000 A 
ATOM      6  C   UNL     1      44.760   6.133  12.870  0.00  0.00    +0.000 A 
ATOM      7  C   UNL     1      44.958   4.776  13.102  0.00  0.00    +0.000 A 
ATOM      8  C   UNL     1      46.228   4.331  13.466  0.00  0.00    +0.000 A 
ATOM      9  C   UNL     1      47.311   5.215  13.490  0.00  0.00    +0.000 A 
BRANCH   7  10
ATOM     10  O   UNL     1      43.999   3.812  13.054  0.00  0.00    +0.000 OA
BRANCH  10  11
ATOM     11  C   UNL     1      43.504   3.394  11.788  0.00  0.00    +0.000 C 
ATOM     12  F   UNL     1      43.030   2.131  11.759  0.00  0.00    +0.000 F 
ATOM     13  F   UNL     1      42.494   4.218  11.426  0.00  0.00    +0.000 F 
ATOM     14  F   UNL     1      44.488   3.509  10.870  0.00  0.00    +0.000 F 
ENDBRANCH  10  11
ENDBRANCH   7  10
ENDBRANCH   1   4
BRANCH   1  15
ATOM     15  N   UNL     1      49.243   7.526  14.181  0.00  0.00    +0.000 N 
ATOM     16  H   UNL     1      49.937   6.782  14.145  0.00  0.00    +0.000 HD
BRANCH  15  20
ATOM     17  C   UNL     1      48.224   8.098  18.191  0.00  0.00    +0.000 A 
ATOM     18  C   UNL     1      48.021   9.160  17.318  0.00  0.00    +0.000 A 
ATOM     19  C   UNL     1      48.325   8.982  15.965  0.00  0.00    +0.000 A 
ATOM     20  C   UNL     1      48.816   7.761  15.506  0.00  0.00    +0.000 A 
ATOM     21  C   UNL     1      49.007   6.772  16.483  0.00  0.00    +0.000 A 
ATOM     22  N   UNL     1      48.718   6.894  17.804  0.00  0.00    +0.000 NA
BRANCH  17  24
ATOM     23  N   UNL     1      47.540   7.114  20.298  0.00  0.00    +0.000 N 
ATOM     24  C   UNL     1      47.906   8.259  19.646  0.00  0.00    +0.000 C 
ATOM     25  O   UNL     1      47.973   9.340  20.223  0.00  0.00    +0.000 OA
ATOM     26  H   UNL     1      47.326   7.148  21.284  0.00  0.00    +0.000 HD
ATOM     27  H   UNL     1      47.512   6.237  19.794  0.00  0.00    +0.000 HD
ENDBRANCH  17  24
ENDBRANCH  15  20
ENDBRANCH   1  15
TORSDOF 6
ENDMDL
MODEL 9
REMARK VINA RESULT:    -5.667      3.465      5.340
REMARK INTER + INTRA:          -8.727
REMARK INTER:                  -7.874
REMARK INTRA:                  -0.853
REMARK UNBOUND:                -1.072
REMARK  Name = 
REMARK  6 active torsions:
REMARK  status: ('A' for Active; 'I' for Inactive)
REMARK    1  A    between atoms: C_2  and  C_4
REMARK    2  A    between atoms: C_7  and  N_8
REMARK    3  A    between atoms: N_8  and  C_9
REMARK    4  A    between atoms: C_9  and  C_10
REMARK    5  A    between atoms: C_13  and  O_14
REMARK    6  A    between atoms: O_14  and  C_15
REMARK                            x       y       z     vdW  Elec       q    Type
REMARK                         _______ _______ _______ _____ _____    ______ ____
ROOT
ATOM      1  C   UNL     1      48.054   7.552  13.569  0.00  0.00    +0.000 C 
ATOM      2  C   UNL     1      48.734   8.638  12.738  0.00  0.00    +0.000 C 
ATOM      3  C   UNL     1      49.162   7.220  12.581  0.00  0.00    +0.000 C 
ENDROOT
BRANCH   1   4
ATOM      4  C   UNL     1      48.421   7.446  15.047  0.00  0.00    +0.000 A 
ATOM      5  C   UNL     1      48.329   8.560  15.897  0.00  0.00    +0.000 A 
ATOM      6  C   UNL     1      48.539   8.454  17.277  0.00  0.00    +0.000 A 
ATOM      7  C   UNL     1      48.817   7.216  17.845  0.00  0.00    +0.000 A 
ATOM      8  C   UNL     1      49.013   6.117  17.008  0.00  0.00    +0.000 A 
ATOM      9  C   UNL     1      48.825   6.232  15.628  0.00  0.00    +0.000 A 
BRANCH   7  10
ATOM     10  O   UNL     1      48.969   6.965  19.173  0.00  0.00    +0.000 OA
BRANCH  10  11
ATOM     11  C   UNL     1      47.952   6.244  19.860  0.00  0.00    +0.000 C 
ATOM     12  F   UNL     1      48.211   4.930  20.029  0.00  0.00    +0.000 F 
ATOM     13  F   UNL     1      47.789   6.790  21.086  0.00  0.00    +0.000 F 
ATOM     14  F   UNL     1      46.789   6.373  19.186  0.00  0.00    +0.000 F 
ENDBRANCH  10  11
ENDBRANCH   7  10
ENDBRANCH   1   4
BRANCH   1  15
ATOM     15  N   UNL     1      46.609   7.394  13.294  0.00  0.00    +0.000 N 
ATOM     16  H   UNL     1      46.036   7.716  14.072  0.00  0.00    +0.000 HD
BRANCH  15  20
ATOM     17  C   UNL     1      44.709   4.057  11.651  0.00  0.00    +0.000 A 
ATOM     18  C   UNL     1      45.015   5.108  10.796  0.00  0.00    +0.000 A 
ATOM     19  C   UNL     1      45.679   6.223  11.316  0.00  0.00    +0.000 A 
ATOM     20  C   UNL     1      46.029   6.271  12.664  0.00  0.00    +0.000 A 
ATOM     21  C   UNL     1      45.643   5.164  13.436  0.00  0.00    +0.000 A 
ATOM     22  N   UNL     1      45.008   4.057  12.976  0.00  0.00    +0.000 NA
BRANCH  17  24
ATOM     23  N   UNL     1      44.541   2.295   9.994  0.00  0.00    +0.000 N 
ATOM     24  C   UNL     1      43.999   2.850  11.121  0.00  0.00    +0.000 C 
ATOM     25  O   UNL     1      43.001   2.378  11.659  0.00  0.00    +0.000 OA
ATOM     26  H   UNL     1      44.120   1.471   9.591  0.00  0.00    +0.000 HD
ATOM     27  H   UNL     1      45.374   2.701   9.587  0.00  0.00    +0.000 HD
ENDBRANCH  17  24
ENDBRANCH  15  20
ENDBRANCH   1  15
TORSDOF 6
ENDMDL
