MODEL 1
REMARK VINA RESULT:    -8.661      0.000      0.000
REMARK INTER + INTRA:         -14.098
REMARK INTER:                 -12.965
REMARK INTRA:                  -1.133
REMARK UNBOUND:                -1.133
REMARK  Name = 
REMARK  9 active torsions:
REMARK  status: ('A' for Active; 'I' for Inactive)
REMARK    1  A    between atoms: N_1  and  C_2
REMARK    2  A    between atoms: C_2  and  C_3
REMARK    3  A    between atoms: C_3  and  C_4
REMARK    4  A    between atoms: C_4  and  N_5
REMARK    5  A    between atoms: C_4  and  C_18
REMARK    6  A    between atoms: C_6  and  C_8
REMARK    7  A    between atoms: C_21  and  O_22
REMARK    8  A    between atoms: O_22  and  C_23
REMARK    9  A    between atoms: C_23  and  C_24
REMARK                            x       y       z     vdW  Elec       q    Type
REMARK                         _______ _______ _______ _____ _____    ______ ____
ROOT
ATOM      1  C   UNL     1      46.507   7.850  12.834  0.00  0.00    +0.000 C 
ENDROOT
BRANCH   1   2
ATOM      2  C   UNL     1      45.925   6.696  12.011  0.00  0.00    +0.000 A 
ATOM      3  C   UNL     1      46.424   6.454  10.719  0.00  0.00    +0.000 A 
ATOM      4  C   UNL     1      45.832   5.510   9.871  0.00  0.00    +0.000 A 
ATOM      5  C   UNL     1      44.752   4.751  10.317  0.00  0.00    +0.000 A 
ATOM      6  C   UNL     1      44.261   4.963  11.606  0.00  0.00    +0.000 A 
ATOM      7  C   UNL     1      44.834   5.927  12.446  0.00  0.00    +0.000 A 
BRANCH   5   8
ATOM      8  O   UNL     1      44.068   3.830   9.574  0.00  0.00    +0.000 OA
BRANCH   8   9
ATOM      9  C   UNL     1      44.590   2.495   9.569  0.00  0.00    +0.000 C 
BRANCH   9  10
ATOM     10  C   UNL     1      45.513   2.292   8.384  0.00  0.00    +0.000 A 
ATOM     11  C   UNL     1      45.653   3.279   7.408  0.00  0.00    +0.000 A 
ATOM     12  C   UNL     1      46.531   3.066   6.348  0.00  0.00    +0.000 A 
ATOM     13  C   UNL     1      47.261   1.887   6.295  0.00  0.00    +0.000 A 
ATOM     14  C   UNL     1      47.086   0.966   7.315  0.00  0.00    +0.000 A 
ATOM     15  N   UNL     1      46.239   1.142   8.353  0.00  0.00    +0.000 NA
ENDBRANCH   9  10
ENDBRANCH   8   9
ENDBRANCH   5   8
ENDBRANCH   1   2
BRANCH   1  16
ATOM     16  N   UNL     1      47.114   7.359  14.066  0.00  0.00    +0.000 N 
ATOM     17  C   UNL     1      48.347   6.754  14.120  0.00  0.00    +0.000 C 
ATOM     18  O   UNL     1      49.093   6.657  13.150  0.00  0.00    +0.000 OA
ATOM     19  H   UNL     1      46.459   7.128  14.803  0.00  0.00    +0.000 HD
BRANCH  17  20
ATOM     20  C   UNL     1      48.752   6.256  15.440  0.00  0.00    +0.000 A 
ATOM     21  C   UNL     1      49.782   6.868  16.142  0.00  0.00    +0.000 A 
ATOM     22  S   UNL     1      50.109   6.130  17.648  0.00  0.00    +0.000 S 
ATOM     23  C   UNL     1      48.917   4.942  17.388  0.00  0.00    +0.000 A 
ATOM     24  N   UNL     1      48.706   3.946  18.290  0.00  0.00    +0.000 NA
ATOM     25  C   UNL     1      47.792   3.097  17.941  0.00  0.00    +0.000 A 
ATOM     26  N   UNL     1      47.062   3.166  16.785  0.00  0.00    +0.000 N 
ATOM     27  C   UNL     1      47.206   4.178  15.871  0.00  0.00    +0.000 A 
ATOM     28  O   UNL     1      46.476   4.259  14.891  0.00  0.00    +0.000 OA
ATOM     29  C   UNL     1      48.249   5.132  16.194  0.00  0.00    +0.000 A 
ATOM     30  H   UNL     1      46.338   2.488  16.586  0.00  0.00    +0.000 HD
ENDBRANCH  17  20
ENDBRANCH   1  16
BRANCH   1  31
ATOM     31  C   UNL     1      45.434   8.923  13.122  0.00  0.00    +0.000 C 
BRANCH  31  32
ATOM     32  C   UNL     1      45.135   9.814  11.914  0.00  0.00    +0.000 C 
BRANCH  32  33
ATOM     33  N   UNL     1      43.835  10.458  12.048  0.00  0.00    +0.000 NA
ATOM     34  H   UNL     1      43.384  10.124  12.899  0.00  0.00    +0.000 HD
ATOM     35  H   UNL     1      43.233  10.181  11.273  0.00  0.00    +0.000 HD
ENDBRANCH  32  33
ENDBRANCH  31  32
ENDBRANCH   1  31
TORSDOF 9
ENDMDL
MODEL 2
REMARK VINA RESULT:    -8.199      1.790      2.477
REMARK INTER + INTRA:         -13.406
REMARK INTER:                 -11.889
REMARK INTRA:                  -1.517
REMARK UNBOUND:                -1.133
REMARK  Name = 
REMARK  9 active torsions:
REMARK  status: ('A' for Active; 'I' for Inactive)
REMARK    1  A    between atoms: N_1  and  C_2
REMARK    2  A    between atoms: C_2  and  C_3
REMARK    3  A    between atoms: C_3  and  C_4
REMARK    4  A    between atoms: C_4  and  N_5
REMARK    5  A    between atoms: C_4  and  C_18
REMARK    6  A    between atoms: C_6  and  C_8
REMARK    7  A    between atoms: C_21  and  O_22
REMARK    8  A    between atoms: O_22  and  C_23
REMARK    9  A    between atoms: C_23  and  C_24
REMARK                            x       y       z     vdW  Elec       q    Type
REMARK                         _______ _______ _______ _____ _____    ______ ____
ROOT
ATOM      1  C   UNL     1      46.975   6.779  13.141  0.00  0.00    +0.000 C 
ENDROOT
BRANCH   1   2
ATOM      2  C   UNL     1      46.116   5.929  12.198  0.00  0.00    +0.000 A 
ATOM      3  C   UNL     1      45.543   4.738  12.677  0.00  0.00    +0.000 A 
ATOM      4  C   UNL     1      44.874   3.853  11.822  0.00  0.00    +0.000 A 
ATOM      5  C   UNL     1      44.722   4.166  10.473  0.00  0.00    +0.000 A 
ATOM      6  C   UNL     1      45.265   5.356   9.988  0.00  0.00    +0.000 A 
ATOM      7  C   UNL     1      45.960   6.230  10.836  0.00  0.00    +0.000 A 
BRANCH   5   8
ATOM      8  O   UNL     1      44.125   3.371   9.535  0.00  0.00    +0.000 OA
BRANCH   8   9
ATOM      9  C   UNL     1      44.704   2.075   9.331  0.00  0.00    +0.000 C 
BRANCH   9  10
ATOM     10  C   UNL     1      45.694   2.111   8.184  0.00  0.00    +0.000 A 
ATOM     11  C   UNL     1      45.741   3.200   7.312  0.00  0.00    +0.000 A 
ATOM     12  C   UNL     1      46.682   3.209   6.287  0.00  0.00    +0.000 A 
ATOM     13  C   UNL     1      47.566   2.145   6.164  0.00  0.00    +0.000 A 
ATOM     14  C   UNL     1      47.474   1.114   7.084  0.00  0.00    +0.000 A 
ATOM     15  N   UNL     1      46.569   1.075   8.087  0.00  0.00    +0.000 NA
ENDBRANCH   9  10
ENDBRANCH   8   9
ENDBRANCH   5   8
ENDBRANCH   1   2
BRANCH   1  16
ATOM     16  N   UNL     1      47.116   6.135  14.442  0.00  0.00    +0.000 N 
ATOM     17  C   UNL     1      48.312   6.017  15.109  0.00  0.00    +0.000 C 
ATOM     18  O   UNL     1      49.356   6.528  14.715  0.00  0.00    +0.000 OA
ATOM     19  H   UNL     1      46.402   5.450  14.660  0.00  0.00    +0.000 HD
BRANCH  17  20
ATOM     20  C   UNL     1      48.264   5.266  16.369  0.00  0.00    +0.000 A 
ATOM     21  C   UNL     1      47.954   3.912  16.374  0.00  0.00    +0.000 A 
ATOM     22  S   UNL     1      47.936   3.226  17.939  0.00  0.00    +0.000 S 
ATOM     23  C   UNL     1      48.298   4.725  18.661  0.00  0.00    +0.000 A 
ATOM     24  N   UNL     1      48.380   4.855  20.013  0.00  0.00    +0.000 NA
ATOM     25  C   UNL     1      48.628   6.059  20.418  0.00  0.00    +0.000 A 
ATOM     26  N   UNL     1      48.816   7.137  19.595  0.00  0.00    +0.000 N 
ATOM     27  C   UNL     1      48.792   7.044  18.227  0.00  0.00    +0.000 A 
ATOM     28  O   UNL     1      49.052   8.009  17.519  0.00  0.00    +0.000 OA
ATOM     29  C   UNL     1      48.475   5.723  17.722  0.00  0.00    +0.000 A 
ATOM     30  H   UNL     1      49.039   8.048  19.973  0.00  0.00    +0.000 HD
ENDBRANCH  17  20
ENDBRANCH   1  16
BRANCH   1  31
ATOM     31  C   UNL     1      46.405   8.208  13.276  0.00  0.00    +0.000 C 
BRANCH  31  32
ATOM     32  C   UNL     1      47.448   9.232  13.727  0.00  0.00    +0.000 C 
BRANCH  32  33
ATOM     33  N   UNL     1      47.574   9.245  15.179  0.00  0.00    +0.000 NA
ATOM     34  H   UNL     1      48.401   9.782  15.437  0.00  0.00    +0.000 HD
ATOM     35  H   UNL     1      47.727   8.296  15.519  0.00  0.00    +0.000 HD
ENDBRANCH  32  33
ENDBRANCH  31  32
ENDBRANCH   1  31
TORSDOF 9
ENDMDL
MODEL 3
REMARK VINA RESULT:    -7.967      2.172      2.861
REMARK INTER + INTRA:         -13.059
REMARK INTER:                 -11.432
REMARK INTRA:                  -1.627
REMARK UNBOUND:                -1.133
REMARK  Name = 
REMARK  9 active torsions:
REMARK  status: ('A' for Active; 'I' for Inactive)
REMARK    1  A    between atoms: N_1  and  C_2
REMARK    2  A    between atoms: C_2  and  C_3
REMARK    3  A    between atoms: C_3  and  C_4
REMARK    4  A    between atoms: C_4  and  N_5
REMARK    5  A    between atoms: C_4  and  C_18
REMARK    6  A    between atoms: C_6  and  C_8
REMARK    7  A    between atoms: C_21  and  O_22
REMARK    8  A    between atoms: O_22  and  C_23
REMARK    9  A    between atoms: C_23  and  C_24
REMARK                            x       y       z     vdW  Elec       q    Type
REMARK                         _______ _______ _______ _____ _____    ______ ____
ROOT
ATOM      1  C   UNL     1      48.200   7.056  13.633  0.00  0.00    +0.000 C 
ENDROOT
BRANCH   1   2
ATOM      2  C   UNL     1      47.047   6.256  13.018  0.00  0.00    +0.000 A 
ATOM      3  C   UNL     1      46.835   4.929  13.430  0.00  0.00    +0.000 A 
ATOM      4  C   UNL     1      45.892   4.109  12.799  0.00  0.00    +0.000 A 
ATOM      5  C   UNL     1      45.105   4.615  11.768  0.00  0.00    +0.000 A 
ATOM      6  C   UNL     1      45.287   5.939  11.363  0.00  0.00    +0.000 A 
ATOM      7  C   UNL     1      46.250   6.753  11.975  0.00  0.00    +0.000 A 
BRANCH   5   8
ATOM      8  O   UNL     1      44.181   3.907  11.051  0.00  0.00    +0.000 OA
BRANCH   8   9
ATOM      9  C   UNL     1      44.046   4.250   9.665  0.00  0.00    +0.000 C 
BRANCH   9  10
ATOM     10  C   UNL     1      45.077   3.512   8.834  0.00  0.00    +0.000 A 
ATOM     11  C   UNL     1      45.257   2.135   8.974  0.00  0.00    +0.000 A 
ATOM     12  C   UNL     1      46.195   1.489   8.173  0.00  0.00    +0.000 A 
ATOM     13  C   UNL     1      46.917   2.222   7.242  0.00  0.00    +0.000 A 
ATOM     14  C   UNL     1      46.663   3.580   7.144  0.00  0.00    +0.000 A 
ATOM     15  N   UNL     1      45.762   4.236   7.910  0.00  0.00    +0.000 NA
ENDBRANCH   9  10
ENDBRANCH   8   9
ENDBRANCH   5   8
ENDBRANCH   1   2
BRANCH   1  16
ATOM     16  N   UNL     1      48.076   7.121  15.084  0.00  0.00    +0.000 N 
ATOM     17  C   UNL     1      49.092   6.797  15.952  0.00  0.00    +0.000 C 
ATOM     18  O   UNL     1      50.229   6.517  15.584  0.00  0.00    +0.000 OA
ATOM     19  H   UNL     1      47.130   7.035  15.437  0.00  0.00    +0.000 HD
BRANCH  17  20
ATOM     20  C   UNL     1      48.749   6.847  17.378  0.00  0.00    +0.000 A 
ATOM     21  C   UNL     1      48.398   8.049  17.980  0.00  0.00    +0.000 A 
ATOM     22  S   UNL     1      48.049   7.897  19.646  0.00  0.00    +0.000 S 
ATOM     23  C   UNL     1      48.400   6.231  19.625  0.00  0.00    +0.000 A 
ATOM     24  N   UNL     1      48.347   5.486  20.761  0.00  0.00    +0.000 NA
ATOM     25  C   UNL     1      48.672   4.243  20.598  0.00  0.00    +0.000 A 
ATOM     26  N   UNL     1      49.028   3.679  19.403  0.00  0.00    +0.000 N 
ATOM     27  C   UNL     1      49.048   4.380  18.224  0.00  0.00    +0.000 A 
ATOM     28  O   UNL     1      49.285   3.825  17.157  0.00  0.00    +0.000 OA
ATOM     29  C   UNL     1      48.733   5.788  18.359  0.00  0.00    +0.000 A 
ATOM     30  H   UNL     1      49.240   2.692  19.335  0.00  0.00    +0.000 HD
ENDBRANCH  17  20
ENDBRANCH   1  16
BRANCH   1  31
ATOM     31  C   UNL     1      48.292   8.467  13.010  0.00  0.00    +0.000 C 
BRANCH  31  32
ATOM     32  C   UNL     1      49.731   8.911  12.739  0.00  0.00    +0.000 C 
BRANCH  32  33
ATOM     33  N   UNL     1      50.665   7.808  12.932  0.00  0.00    +0.000 NA
ATOM     34  H   UNL     1      50.906   7.746  13.920  0.00  0.00    +0.000 HD
ATOM     35  H   UNL     1      51.533   8.002  12.433  0.00  0.00    +0.000 HD
ENDBRANCH  32  33
ENDBRANCH  31  32
ENDBRANCH   1  31
TORSDOF 9
ENDMDL
MODEL 4
REMARK VINA RESULT:    -7.748      2.464      4.704
REMARK INTER + INTRA:         -12.731
REMARK INTER:                 -11.372
REMARK INTRA:                  -1.359
REMARK UNBOUND:                -1.133
REMARK  Name = 
REMARK  9 active torsions:
REMARK  status: ('A' for Active; 'I' for Inactive)
REMARK    1  A    between atoms: N_1  and  C_2
REMARK    2  A    between atoms: C_2  and  C_3
REMARK    3  A    between atoms: C_3  and  C_4
REMARK    4  A    between atoms: C_4  and  N_5
REMARK    5  A    between atoms: C_4  and  C_18
REMARK    6  A    between atoms: C_6  and  C_8
REMARK    7  A    between atoms: C_21  and  O_22
REMARK    8  A    between atoms: O_22  and  C_23
REMARK    9  A    between atoms: C_23  and  C_24
REMARK                            x       y       z     vdW  Elec       q    Type
REMARK                         _______ _______ _______ _____ _____    ______ ____
ROOT
ATOM      1  C   UNL     1      47.135   5.448  14.623  0.00  0.00    +0.000 C 
ENDROOT
BRANCH   1   2
ATOM      2  C   UNL     1      46.288   5.043  13.412  0.00  0.00    +0.000 A 
ATOM      3  C   UNL     1      45.894   3.701  13.267  0.00  0.00    +0.000 A 
ATOM      4  C   UNL     1      45.247   3.249  12.110  0.00  0.00    +0.000 A 
ATOM      5  C   UNL     1      44.937   4.144  11.089  0.00  0.00    +0.000 A 
ATOM      6  C   UNL     1      45.300   5.484  11.229  0.00  0.00    +0.000 A 
ATOM      7  C   UNL     1      45.973   5.933  12.373  0.00  0.00    +0.000 A 
BRANCH   5   8
ATOM      8  O   UNL     1      44.343   3.820   9.901  0.00  0.00    +0.000 OA
BRANCH   8   9
ATOM      9  C   UNL     1      44.475   2.460   9.470  0.00  0.00    +0.000 C 
BRANCH   9  10
ATOM     10  C   UNL     1      45.526   2.348   8.382  0.00  0.00    +0.000 A 
ATOM     11  C   UNL     1      45.834   3.439   7.570  0.00  0.00    +0.000 A 
ATOM     12  C   UNL     1      46.824   3.305   6.600  0.00  0.00    +0.000 A 
ATOM     13  C   UNL     1      47.496   2.096   6.475  0.00  0.00    +0.000 A 
ATOM     14  C   UNL     1      47.151   1.068   7.336  0.00  0.00    +0.000 A 
ATOM     15  N   UNL     1      46.192   1.167   8.284  0.00  0.00    +0.000 NA
ENDBRANCH   9  10
ENDBRANCH   8   9
ENDBRANCH   5   8
ENDBRANCH   1   2
BRANCH   1  16
ATOM     16  N   UNL     1      48.321   6.188  14.208  0.00  0.00    +0.000 N 
ATOM     17  C   UNL     1      48.953   7.120  14.995  0.00  0.00    +0.000 C 
ATOM     18  O   UNL     1      48.635   7.346  16.158  0.00  0.00    +0.000 OA
ATOM     19  H   UNL     1      48.437   6.283  13.205  0.00  0.00    +0.000 HD
BRANCH  17  20
ATOM     20  C   UNL     1      50.084   7.817  14.369  0.00  0.00    +0.000 A 
ATOM     21  C   UNL     1      51.352   7.754  14.932  0.00  0.00    +0.000 A 
ATOM     22  S   UNL     1      52.524   8.643  14.062  0.00  0.00    +0.000 S 
ATOM     23  C   UNL     1      51.365   9.176  12.935  0.00  0.00    +0.000 A 
ATOM     24  N   UNL     1      51.700  10.029  11.929  0.00  0.00    +0.000 NA
ATOM     25  C   UNL     1      50.708  10.374  11.172  0.00  0.00    +0.000 A 
ATOM     26  N   UNL     1      49.421   9.932  11.319  0.00  0.00    +0.000 N 
ATOM     27  C   UNL     1      49.048   9.034  12.287  0.00  0.00    +0.000 A 
ATOM     28  O   UNL     1      47.907   8.590  12.337  0.00  0.00    +0.000 OA
ATOM     29  C   UNL     1      50.114   8.649  13.190  0.00  0.00    +0.000 A 
ATOM     30  H   UNL     1      48.696  10.214  10.673  0.00  0.00    +0.000 HD
ENDBRANCH  17  20
ENDBRANCH   1  16
BRANCH   1  31
ATOM     31  C   UNL     1      47.507   4.218  15.478  0.00  0.00    +0.000 C 
BRANCH  31  32
ATOM     32  C   UNL     1      47.108   4.364  16.948  0.00  0.00    +0.000 C 
BRANCH  32  33
ATOM     33  N   UNL     1      46.666   3.090  17.500  0.00  0.00    +0.000 NA
ATOM     34  H   UNL     1      45.835   2.780  16.998  0.00  0.00    +0.000 HD
ATOM     35  H   UNL     1      46.387   3.214  18.473  0.00  0.00    +0.000 HD
ENDBRANCH  32  33
ENDBRANCH  31  32
ENDBRANCH   1  31
TORSDOF 9
ENDMDL
MODEL 5
REMARK VINA RESULT:    -7.681      2.331      2.804
REMARK INTER + INTRA:         -12.632
REMARK INTER:                 -11.312
REMARK INTRA:                  -1.319
REMARK UNBOUND:                -1.133
REMARK  Name = 
REMARK  9 active torsions:
REMARK  status: ('A' for Active; 'I' for Inactive)
REMARK    1  A    between atoms: N_1  and  C_2
REMARK    2  A    between atoms: C_2  and  C_3
REMARK    3  A    between atoms: C_3  and  C_4
REMARK    4  A    between atoms: C_4  and  N_5
REMARK    5  A    between atoms: C_4  and  C_18
REMARK    6  A    between atoms: C_6  and  C_8
REMARK    7  A    between atoms: C_21  and  O_22
REMARK    8  A    between atoms: O_22  and  C_23
REMARK    9  A    between atoms: C_23  and  C_24
REMARK                            x       y       z     vdW  Elec       q    Type
REMARK                         _______ _______ _______ _____ _____    ______ ____
ROOT
ATOM      1  C   UNL     1      47.808   7.314  13.762  0.00  0.00    +0.000 C 
ENDROOT
BRANCH   1   2
ATOM      2  C   UNL     1      46.989   6.344  12.903  0.00  0.00    +0.000 A 
ATOM      3  C   UNL     1      46.674   6.698  11.580  0.00  0.00    +0.000 A 
ATOM      4  C   UNL     1      45.808   5.918  10.801  0.00  0.00    +0.000 A 
ATOM      5  C   UNL     1      45.275   4.740  11.317  0.00  0.00    +0.000 A 
ATOM      6  C   UNL     1      45.597   4.364  12.622  0.00  0.00    +0.000 A 
ATOM      7  C   UNL     1      46.440   5.157  13.413  0.00  0.00    +0.000 A 
BRANCH   5   8
ATOM      8  O   UNL     1      44.393   3.918  10.673  0.00  0.00    +0.000 OA
BRANCH   8   9
ATOM      9  C   UNL     1      44.246   4.116   9.261  0.00  0.00    +0.000 C 
BRANCH   9  10
ATOM     10  C   UNL     1      45.308   3.341   8.504  0.00  0.00    +0.000 A 
ATOM     11  C   UNL     1      45.486   1.974   8.719  0.00  0.00    +0.000 A 
ATOM     12  C   UNL     1      46.453   1.292   7.985  0.00  0.00    +0.000 A 
ATOM     13  C   UNL     1      47.204   1.981   7.044  0.00  0.00    +0.000 A 
ATOM     14  C   UNL     1      46.951   3.331   6.870  0.00  0.00    +0.000 A 
ATOM     15  N   UNL     1      46.023   4.021   7.570  0.00  0.00    +0.000 NA
ENDBRANCH   9  10
ENDBRANCH   8   9
ENDBRANCH   5   8
ENDBRANCH   1   2
BRANCH   1  16
ATOM     16  N   UNL     1      47.873   6.860  15.146  0.00  0.00    +0.000 N 
ATOM     17  C   UNL     1      49.041   6.514  15.782  0.00  0.00    +0.000 C 
ATOM     18  O   UNL     1      50.150   6.648  15.273  0.00  0.00    +0.000 OA
ATOM     19  H   UNL     1      47.020   6.442  15.499  0.00  0.00    +0.000 HD
BRANCH  17  20
ATOM     20  C   UNL     1      48.892   6.004  17.151  0.00  0.00    +0.000 A 
ATOM     21  C   UNL     1      49.201   4.684  17.451  0.00  0.00    +0.000 A 
ATOM     22  S   UNL     1      48.946   4.284  19.093  0.00  0.00    +0.000 S 
ATOM     23  C   UNL     1      48.373   5.849  19.442  0.00  0.00    +0.000 A 
ATOM     24  N   UNL     1      47.929   6.175  20.687  0.00  0.00    +0.000 NA
ATOM     25  C   UNL     1      47.492   7.389  20.794  0.00  0.00    +0.000 A 
ATOM     26  N   UNL     1      47.473   8.306  19.778  0.00  0.00    +0.000 N 
ATOM     27  C   UNL     1      47.955   8.037  18.522  0.00  0.00    +0.000 A 
ATOM     28  O   UNL     1      48.006   8.906  17.660  0.00  0.00    +0.000 OA
ATOM     29  C   UNL     1      48.417   6.676  18.337  0.00  0.00    +0.000 A 
ATOM     30  H   UNL     1      47.148   9.251  19.935  0.00  0.00    +0.000 HD
ENDBRANCH  17  20
ENDBRANCH   1  16
BRANCH   1  31
ATOM     31  C   UNL     1      47.251   8.751  13.664  0.00  0.00    +0.000 C 
BRANCH  31  32
ATOM     32  C   UNL     1      48.283   9.763  13.164  0.00  0.00    +0.000 C 
BRANCH  32  33
ATOM     33  N   UNL     1      47.668  11.062  12.924  0.00  0.00    +0.000 NA
ATOM     34  H   UNL     1      47.967  11.712  13.650  0.00  0.00    +0.000 HD
ATOM     35  H   UNL     1      46.655  10.983  13.006  0.00  0.00    +0.000 HD
ENDBRANCH  32  33
ENDBRANCH  31  32
ENDBRANCH   1  31
TORSDOF 9
ENDMDL
MODEL 6
REMARK VINA RESULT:    -7.511      2.851      4.558
REMARK INTER + INTRA:         -12.377
REMARK INTER:                 -10.610
REMARK INTRA:                  -1.767
REMARK UNBOUND:                -1.133
REMARK  Name = 
REMARK  9 active torsions:
REMARK  status: ('A' for Active; 'I' for Inactive)
REMARK    1  A    between atoms: N_1  and  C_2
REMARK    2  A    between atoms: C_2  and  C_3
REMARK    3  A    between atoms: C_3  and  C_4
REMARK    4  A    between atoms: C_4  and  N_5
REMARK    5  A    between atoms: C_4  and  C_18
REMARK    6  A    between atoms: C_6  and  C_8
REMARK    7  A    between atoms: C_21  and  O_22
REMARK    8  A    between atoms: O_22  and  C_23
REMARK    9  A    between atoms: C_23  and  C_24
REMARK                            x       y       z     vdW  Elec       q    Type
REMARK                         _______ _______ _______ _____ _____    ______ ____
ROOT
ATOM      1  C   UNL     1      47.165   5.801  14.227  0.00  0.00    +0.000 C 
ENDROOT
BRANCH   1   2
ATOM      2  C   UNL     1      46.289   5.317  13.066  0.00  0.00    +0.000 A 
ATOM      3  C   UNL     1      45.588   4.105  13.194  0.00  0.00    +0.000 A 
ATOM      4  C   UNL     1      44.892   3.545  12.115  0.00  0.00    +0.000 A 
ATOM      5  C   UNL     1      44.844   4.213  10.894  0.00  0.00    +0.000 A 
ATOM      6  C   UNL     1      45.515   5.430  10.759  0.00  0.00    +0.000 A 
ATOM      7  C   UNL     1      46.235   5.977  11.829  0.00  0.00    +0.000 A 
BRANCH   5   8
ATOM      8  O   UNL     1      44.232   3.755   9.760  0.00  0.00    +0.000 OA
BRANCH   8   9
ATOM      9  C   UNL     1      44.473   2.386   9.412  0.00  0.00    +0.000 C 
BRANCH   9  10
ATOM     10  C   UNL     1      45.547   2.291   8.345  0.00  0.00    +0.000 A 
ATOM     11  C   UNL     1      45.858   3.390   7.543  0.00  0.00    +0.000 A 
ATOM     12  C   UNL     1      46.869   3.272   6.593  0.00  0.00    +0.000 A 
ATOM     13  C   UNL     1      47.559   2.073   6.477  0.00  0.00    +0.000 A 
ATOM     14  C   UNL     1      47.210   1.037   7.327  0.00  0.00    +0.000 A 
ATOM     15  N   UNL     1      46.230   1.119   8.256  0.00  0.00    +0.000 NA
ENDBRANCH   9  10
ENDBRANCH   8   9
ENDBRANCH   5   8
ENDBRANCH   1   2
BRANCH   1  16
ATOM     16  N   UNL     1      48.382   6.434  13.734  0.00  0.00    +0.000 N 
ATOM     17  C   UNL     1      48.645   7.778  13.852  0.00  0.00    +0.000 C 
ATOM     18  O   UNL     1      47.921   8.554  14.468  0.00  0.00    +0.000 OA
ATOM     19  H   UNL     1      48.843   5.943  12.977  0.00  0.00    +0.000 HD
BRANCH  17  20
ATOM     20  C   UNL     1      49.888   8.239  13.221  0.00  0.00    +0.000 A 
ATOM     21  C   UNL     1      49.886   8.708  11.914  0.00  0.00    +0.000 A 
ATOM     22  S   UNL     1      51.432   9.182  11.362  0.00  0.00    +0.000 S 
ATOM     23  C   UNL     1      52.158   8.734  12.836  0.00  0.00    +0.000 A 
ATOM     24  N   UNL     1      53.502   8.836  13.019  0.00  0.00    +0.000 NA
ATOM     25  C   UNL     1      53.914   8.426  14.177  0.00  0.00    +0.000 A 
ATOM     26  N   UNL     1      53.103   7.941  15.168  0.00  0.00    +0.000 N 
ATOM     27  C   UNL     1      51.739   7.866  15.045  0.00  0.00    +0.000 A 
ATOM     28  O   UNL     1      51.034   7.510  15.982  0.00  0.00    +0.000 OA
ATOM     29  C   UNL     1      51.231   8.273  13.750  0.00  0.00    +0.000 A 
ATOM     30  H   UNL     1      53.483   7.666  16.063  0.00  0.00    +0.000 HD
ENDBRANCH  17  20
ENDBRANCH   1  16
BRANCH   1  31
ATOM     31  C   UNL     1      47.483   4.646  15.202  0.00  0.00    +0.000 C 
BRANCH  31  32
ATOM     32  C   UNL     1      48.072   5.126  16.531  0.00  0.00    +0.000 C 
BRANCH  32  33
ATOM     33  N   UNL     1      49.529   5.125  16.487  0.00  0.00    +0.000 NA
ATOM     34  H   UNL     1      49.867   6.072  16.653  0.00  0.00    +0.000 HD
ATOM     35  H   UNL     1      49.844   4.864  15.554  0.00  0.00    +0.000 HD
ENDBRANCH  32  33
ENDBRANCH  31  32
ENDBRANCH   1  31
TORSDOF 9
ENDMDL
MODEL 7
REMARK VINA RESULT:    -6.923      2.425      4.200
REMARK INTER + INTRA:         -11.496
REMARK INTER:                 -10.225
REMARK INTRA:                  -1.272
REMARK UNBOUND:                -1.133
REMARK  Name = 
REMARK  9 active torsions:
REMARK  status: ('A' for Active; 'I' for Inactive)
REMARK    1  A    between atoms: N_1  and  C_2
REMARK    2  A    between atoms: C_2  and  C_3
REMARK    3  A    between atoms: C_3  and  C_4
REMARK    4  A    between atoms: C_4  and  N_5
REMARK    5  A    between atoms: C_4  and  C_18
REMARK    6  A    between atoms: C_6  and  C_8
REMARK    7  A    between atoms: C_21  and  O_22
REMARK    8  A    between atoms: O_22  and  C_23
REMARK    9  A    between atoms: C_23  and  C_24
REMARK                            x       y       z     vdW  Elec       q    Type
REMARK                         _______ _______ _______ _____ _____    ______ ____
ROOT
ATOM      1  C   UNL     1      46.693   5.123  14.873  0.00  0.00    +0.000 C 
ENDROOT
BRANCH   1   2
ATOM      2  C   UNL     1      46.030   4.780  13.535  0.00  0.00    +0.000 A 
ATOM      3  C   UNL     1      45.280   5.764  12.868  0.00  0.00    +0.000 A 
ATOM      4  C   UNL     1      44.535   5.463  11.720  0.00  0.00    +0.000 A 
ATOM      5  C   UNL     1      44.563   4.177  11.187  0.00  0.00    +0.000 A 
ATOM      6  C   UNL     1      45.323   3.195  11.825  0.00  0.00    +0.000 A 
ATOM      7  C   UNL     1      46.046   3.486  12.990  0.00  0.00    +0.000 A 
BRANCH   5   8
ATOM      8  O   UNL     1      43.853   3.751  10.099  0.00  0.00    +0.000 OA
BRANCH   8   9
ATOM      9  C   UNL     1      44.276   4.249   8.824  0.00  0.00    +0.000 C 
BRANCH   9  10
ATOM     10  C   UNL     1      45.387   3.386   8.259  0.00  0.00    +0.000 A 
ATOM     11  C   UNL     1      45.450   2.022   8.546  0.00  0.00    +0.000 A 
ATOM     12  C   UNL     1      46.471   1.258   7.987  0.00  0.00    +0.000 A 
ATOM     13  C   UNL     1      47.391   1.863   7.143  0.00  0.00    +0.000 A 
ATOM     14  C   UNL     1      47.247   3.216   6.886  0.00  0.00    +0.000 A 
ATOM     15  N   UNL     1      46.270   3.985   7.417  0.00  0.00    +0.000 NA
ENDBRANCH   9  10
ENDBRANCH   8   9
ENDBRANCH   5   8
ENDBRANCH   1   2
BRANCH   1  16
ATOM     16  N   UNL     1      47.501   6.332  14.762  0.00  0.00    +0.000 N 
ATOM     17  C   UNL     1      48.490   6.505  13.823  0.00  0.00    +0.000 C 
ATOM     18  O   UNL     1      48.720   5.695  12.930  0.00  0.00    +0.000 OA
ATOM     19  H   UNL     1      47.581   6.872  15.615  0.00  0.00    +0.000 HD
BRANCH  17  20
ATOM     20  C   UNL     1      49.247   7.759  13.923  0.00  0.00    +0.000 A 
ATOM     21  C   UNL     1      49.280   8.651  12.860  0.00  0.00    +0.000 A 
ATOM     22  S   UNL     1      50.227  10.040  13.170  0.00  0.00    +0.000 S 
ATOM     23  C   UNL     1      50.657   9.471  14.716  0.00  0.00    +0.000 A 
ATOM     24  N   UNL     1      51.509  10.171  15.513  0.00  0.00    +0.000 NA
ATOM     25  C   UNL     1      51.770   9.598  16.644  0.00  0.00    +0.000 A 
ATOM     26  N   UNL     1      51.246   8.402  17.054  0.00  0.00    +0.000 N 
ATOM     27  C   UNL     1      50.347   7.686  16.306  0.00  0.00    +0.000 A 
ATOM     28  O   UNL     1      49.829   6.664  16.740  0.00  0.00    +0.000 OA
ATOM     29  C   UNL     1      50.053   8.263  15.009  0.00  0.00    +0.000 A 
ATOM     30  H   UNL     1      51.466   8.023  17.966  0.00  0.00    +0.000 HD
ENDBRANCH  17  20
ENDBRANCH   1  16
BRANCH   1  31
ATOM     31  C   UNL     1      47.525   3.934  15.402  0.00  0.00    +0.000 C 
BRANCH  31  32
ATOM     32  C   UNL     1      47.531   3.837  16.929  0.00  0.00    +0.000 C 
BRANCH  32  33
ATOM     33  N   UNL     1      47.196   5.119  17.537  0.00  0.00    +0.000 NA
ATOM     34  H   UNL     1      46.905   5.767  16.806  0.00  0.00    +0.000 HD
ATOM     35  H   UNL     1      48.027   5.522  17.968  0.00  0.00    +0.000 HD
ENDBRANCH  32  33
ENDBRANCH  31  32
ENDBRANCH   1  31
TORSDOF 9
ENDMDL
MODEL 8
REMARK VINA RESULT:    -6.890      3.305      5.554
REMARK INTER + INTRA:         -11.447
REMARK INTER:                  -9.777
REMARK INTRA:                  -1.671
REMARK UNBOUND:                -1.133
REMARK  Name = 
REMARK  9 active torsions:
REMARK  status: ('A' for Active; 'I' for Inactive)
REMARK    1  A    between atoms: N_1  and  C_2
REMARK    2  A    between atoms: C_2  and  C_3
REMARK    3  A    between atoms: C_3  and  C_4
REMARK    4  A    between atoms: C_4  and  N_5
REMARK    5  A    between atoms: C_4  and  C_18
REMARK    6  A    between atoms: C_6  and  C_8
REMARK    7  A    between atoms: C_21  and  O_22
REMARK    8  A    between atoms: O_22  and  C_23
REMARK    9  A    between atoms: C_23  and  C_24
REMARK                            x       y       z     vdW  Elec       q    Type
REMARK                         _______ _______ _______ _____ _____    ______ ____
ROOT
ATOM      1  C   UNL     1      49.289   6.178  17.668  0.00  0.00    +0.000 C 
ENDROOT
BRANCH   1   2
ATOM      2  C   UNL     1      48.482   5.517  16.545  0.00  0.00    +0.000 A 
ATOM      3  C   UNL     1      48.365   6.172  15.307  0.00  0.00    +0.000 A 
ATOM      4  C   UNL     1      47.523   5.684  14.299  0.00  0.00    +0.000 A 
ATOM      5  C   UNL     1      46.814   4.502  14.493  0.00  0.00    +0.000 A 
ATOM      6  C   UNL     1      46.939   3.828  15.709  0.00  0.00    +0.000 A 
ATOM      7  C   UNL     1      47.759   4.328  16.729  0.00  0.00    +0.000 A 
BRANCH   5   8
ATOM      8  O   UNL     1      45.935   3.946  13.605  0.00  0.00    +0.000 OA
BRANCH   8   9
ATOM      9  C   UNL     1      45.138   4.857  12.837  0.00  0.00    +0.000 C 
BRANCH   9  10
ATOM     10  C   UNL     1      45.118   4.445  11.379  0.00  0.00    +0.000 A 
ATOM     11  C   UNL     1      44.582   3.217  10.989  0.00  0.00    +0.000 A 
ATOM     12  C   UNL     1      44.557   2.885   9.637  0.00  0.00    +0.000 A 
ATOM     13  C   UNL     1      45.047   3.789   8.705  0.00  0.00    +0.000 A 
ATOM     14  C   UNL     1      45.539   4.998   9.167  0.00  0.00    +0.000 A 
ATOM     15  N   UNL     1      45.581   5.347  10.473  0.00  0.00    +0.000 NA
ENDBRANCH   9  10
ENDBRANCH   8   9
ENDBRANCH   5   8
ENDBRANCH   1   2
BRANCH   1  16
ATOM     16  N   UNL     1      50.379   5.316  18.106  0.00  0.00    +0.000 N 
ATOM     17  C   UNL     1      51.616   5.286  17.508  0.00  0.00    +0.000 C 
ATOM     18  O   UNL     1      51.948   6.052  16.609  0.00  0.00    +0.000 OA
ATOM     19  H   UNL     1      50.091   4.480  18.601  0.00  0.00    +0.000 HD
BRANCH  17  20
ATOM     20  C   UNL     1      52.556   4.292  18.042  0.00  0.00    +0.000 A 
ATOM     21  C   UNL     1      53.708   4.694  18.705  0.00  0.00    +0.000 A 
ATOM     22  S   UNL     1      54.675   3.388  19.236  0.00  0.00    +0.000 S 
ATOM     23  C   UNL     1      53.607   2.249  18.557  0.00  0.00    +0.000 A 
ATOM     24  N   UNL     1      53.872   0.915  18.611  0.00  0.00    +0.000 NA
ATOM     25  C   UNL     1      52.989   0.173  18.023  0.00  0.00    +0.000 A 
ATOM     26  N   UNL     1      51.862   0.642  17.404  0.00  0.00    +0.000 N 
ATOM     27  C   UNL     1      51.529   1.972  17.368  0.00  0.00    +0.000 A 
ATOM     28  O   UNL     1      50.469   2.350  16.884  0.00  0.00    +0.000 OA
ATOM     29  C   UNL     1      52.509   2.851  17.975  0.00  0.00    +0.000 A 
ATOM     30  H   UNL     1      51.192   0.007  16.990  0.00  0.00    +0.000 HD
ENDBRANCH  17  20
ENDBRANCH   1  16
BRANCH   1  31
ATOM     31  C   UNL     1      48.375   6.578  18.847  0.00  0.00    +0.000 C 
BRANCH  31  32
ATOM     32  C   UNL     1      48.800   5.951  20.177  0.00  0.00    +0.000 C 
BRANCH  32  33
ATOM     33  N   UNL     1      48.275   4.598  20.309  0.00  0.00    +0.000 NA
ATOM     34  H   UNL     1      48.808   4.102  21.022  0.00  0.00    +0.000 HD
ATOM     35  H   UNL     1      48.414   4.089  19.436  0.00  0.00    +0.000 HD
ENDBRANCH  32  33
ENDBRANCH  31  32
ENDBRANCH   1  31
TORSDOF 9
ENDMDL
MODEL 9
REMARK VINA RESULT:    -6.874      3.404      7.826
REMARK INTER + INTRA:         -11.423
REMARK INTER:                  -9.701
REMARK INTRA:                  -1.721
REMARK UNBOUND:                -1.133
REMARK  Name = 
REMARK  9 active torsions:
REMARK  status: ('A' for Active; 'I' for Inactive)
REMARK    1  A    between atoms: N_1  and  C_2
REMARK    2  A    between atoms: C_2  and  C_3
REMARK    3  A    between atoms: C_3  and  C_4
REMARK    4  A    between atoms: C_4  and  N_5
REMARK    5  A    between atoms: C_4  and  C_18
REMARK    6  A    between atoms: C_6  and  C_8
REMARK    7  A    between atoms: C_21  and  O_22
REMARK    8  A    between atoms: O_22  and  C_23
REMARK    9  A    between atoms: C_23  and  C_24
REMARK                            x       y       z     vdW  Elec       q    Type
REMARK                         _______ _______ _______ _____ _____    ______ ____
ROOT
ATOM      1  C   UNL     1      48.158   7.533  12.898  0.00  0.00    +0.000 C 
ENDROOT
BRANCH   1   2
ATOM      2  C   UNL     1      48.555   6.982  14.271  0.00  0.00    +0.000 A 
ATOM      3  C   UNL     1      49.727   7.454  14.888  0.00  0.00    +0.000 A 
ATOM      4  C   UNL     1      50.212   6.882  16.071  0.00  0.00    +0.000 A 
ATOM      5  C   UNL     1      49.507   5.853  16.689  0.00  0.00    +0.000 A 
ATOM      6  C   UNL     1      48.329   5.390  16.101  0.00  0.00    +0.000 A 
ATOM      7  C   UNL     1      47.856   5.942  14.903  0.00  0.00    +0.000 A 
BRANCH   5   8
ATOM      8  O   UNL     1      49.895   5.190  17.820  0.00  0.00    +0.000 OA
BRANCH   8   9
ATOM      9  C   UNL     1      51.306   5.043  18.024  0.00  0.00    +0.000 C 
BRANCH   9  10
ATOM     10  C   UNL     1      51.706   3.583  17.930  0.00  0.00    +0.000 A 
ATOM     11  C   UNL     1      50.814   2.626  17.446  0.00  0.00    +0.000 A 
ATOM     12  C   UNL     1      51.227   1.300  17.349  0.00  0.00    +0.000 A 
ATOM     13  C   UNL     1      52.522   0.962  17.717  0.00  0.00    +0.000 A 
ATOM     14  C   UNL     1      53.357   1.973  18.163  0.00  0.00    +0.000 A 
ATOM     15  N   UNL     1      52.983   3.268  18.272  0.00  0.00    +0.000 NA
ENDBRANCH   9  10
ENDBRANCH   8   9
ENDBRANCH   5   8
ENDBRANCH   1   2
BRANCH   1  16
ATOM     16  N   UNL     1      47.448   6.528  12.117  0.00  0.00    +0.000 N 
ATOM     17  C   UNL     1      46.245   6.756  11.492  0.00  0.00    +0.000 C 
ATOM     18  O   UNL     1      45.704   7.858  11.454  0.00  0.00    +0.000 OA
ATOM     19  H   UNL     1      47.660   5.568  12.361  0.00  0.00    +0.000 HD
BRANCH  17  20
ATOM     20  C   UNL     1      45.647   5.596  10.821  0.00  0.00    +0.000 A 
ATOM     21  C   UNL     1      45.728   5.457   9.441  0.00  0.00    +0.000 A 
ATOM     22  S   UNL     1      44.959   4.048   8.855  0.00  0.00    +0.000 S 
ATOM     23  C   UNL     1      44.455   3.604  10.420  0.00  0.00    +0.000 A 
ATOM     24  N   UNL     1      43.693   2.497  10.627  0.00  0.00    +0.000 NA
ATOM     25  C   UNL     1      43.358   2.305  11.864  0.00  0.00    +0.000 A 
ATOM     26  N   UNL     1      43.730   3.109  12.907  0.00  0.00    +0.000 N 
ATOM     27  C   UNL     1      44.537   4.207  12.753  0.00  0.00    +0.000 A 
ATOM     28  O   UNL     1      44.924   4.854  13.718  0.00  0.00    +0.000 OA
ATOM     29  C   UNL     1      44.905   4.491  11.380  0.00  0.00    +0.000 A 
ATOM     30  H   UNL     1      43.462   2.886  13.857  0.00  0.00    +0.000 HD
ENDBRANCH  17  20
ENDBRANCH   1  16
BRANCH   1  31
ATOM     31  C   UNL     1      49.390   8.073  12.138  0.00  0.00    +0.000 C 
BRANCH  31  32
ATOM     32  C   UNL     1      49.248   9.540  11.728  0.00  0.00    +0.000 C 
BRANCH  32  33
ATOM     33  N   UNL     1      47.854   9.964  11.775  0.00  0.00    +0.000 NA
ATOM     34  H   UNL     1      47.540  10.179  10.829  0.00  0.00    +0.000 HD
ATOM     35  H   UNL     1      47.776  10.828  12.309  0.00  0.00    +0.000 HD
ENDBRANCH  32  33
ENDBRANCH  31  32
ENDBRANCH   1  31
TORSDOF 9
ENDMDL
