MODEL 1
REMARK VINA RESULT:    -8.195      0.000      0.000
REMARK INTER + INTRA:         -13.141
REMARK INTER:                 -12.028
REMARK INTRA:                  -1.113
REMARK UNBOUND:                -1.113
REMARK  Name = 
REMARK  9 active torsions:
REMARK  status: ('A' for Active; 'I' for Inactive)
REMARK    1  A    between atoms: C_1  and  O_2
REMARK    2  A    between atoms: O_2  and  C_3
REMARK    3  A    between atoms: C_10  and  C_11
REMARK    4  A    between atoms: N_13  and  C_14
REMARK    5  A    between atoms: C_14  and  C_15
REMARK    6  A    between atoms: C_18  and  C_19
REMARK    7  A    between atoms: C_19  and  O_20
REMARK    8  A    between atoms: O_20  and  C_21
REMARK    9  A    between atoms: C_21  and  C_22
REMARK                            x       y       z     vdW  Elec       q    Type
REMARK                         _______ _______ _______ _____ _____    ______ ____
ROOT
ATOM      1  C   UNL     1      48.010   6.861  13.279  0.00  0.00    +0.000 C 
ENDROOT
BRANCH   1   2
ATOM      2  C   UNL     1      46.900   6.013  12.713  0.00  0.00    +0.000 A 
ATOM      3  C   UNL     1      46.399   4.915  13.426  0.00  0.00    +0.000 A 
ATOM      4  C   UNL     1      45.345   4.152  12.912  0.00  0.00    +0.000 A 
ATOM      5  C   UNL     1      44.777   4.462  11.669  0.00  0.00    +0.000 A 
ATOM      6  C   UNL     1      45.302   5.537  10.940  0.00  0.00    +0.000 A 
ATOM      7  C   UNL     1      46.357   6.300  11.454  0.00  0.00    +0.000 A 
BRANCH   5   8
ATOM      8  C   UNL     1      43.624   3.653  11.125  0.00  0.00    +0.000 C 
BRANCH   8   9
ATOM      9  O   UNL     1      43.842   3.407   9.740  0.00  0.00    +0.000 OA
BRANCH   9  10
ATOM     10  C   UNL     1      44.483   2.146   9.522  0.00  0.00    +0.000 C 
BRANCH  10  11
ATOM     11  C   UNL     1      45.561   2.248   8.465  0.00  0.00    +0.000 A 
ATOM     12  C   UNL     1      45.739   3.419   7.730  0.00  0.00    +0.000 A 
ATOM     13  C   UNL     1      46.722   3.461   6.746  0.00  0.00    +0.000 A 
ATOM     14  C   UNL     1      47.496   2.333   6.510  0.00  0.00    +0.000 A 
ATOM     15  C   UNL     1      47.249   1.203   7.269  0.00  0.00    +0.000 A 
ATOM     16  N   UNL     1      46.301   1.131   8.230  0.00  0.00    +0.000 NA
ENDBRANCH  10  11
ENDBRANCH   9  10
ENDBRANCH   8   9
ENDBRANCH   5   8
ENDBRANCH   1   2
BRANCH   1  19
ATOM     17  C   UNL     1      49.061   6.927  15.498  0.00  0.00    +0.000 C 
ATOM     18  O   UNL     1      50.181   6.839  15.001  0.00  0.00    +0.000 OA
ATOM     19  N   UNL     1      47.939   6.937  14.716  0.00  0.00    +0.000 N 
ATOM     20  H   UNL     1      47.023   6.957  15.139  0.00  0.00    +0.000 HD
BRANCH  17  28
ATOM     21  C   UNL     1      49.020   4.639  18.075  0.00  0.00    +0.000 A 
ATOM     22  N   UNL     1      48.882   3.970  19.237  0.00  0.00    +0.000 NA
ATOM     23  C   UNL     1      48.597   4.673  20.337  0.00  0.00    +0.000 A 
ATOM     24  N   UNL     1      48.441   5.991  20.427  0.00  0.00    +0.000 NA
ATOM     25  C   UNL     1      48.576   6.617  19.247  0.00  0.00    +0.000 A 
ATOM     26  S   UNL     1      48.420   8.306  19.176  0.00  0.00    +0.000 S 
ATOM     27  C   UNL     1      48.675   8.308  17.496  0.00  0.00    +0.000 A 
ATOM     28  C   UNL     1      48.878   7.042  16.956  0.00  0.00    +0.000 A 
ATOM     29  C   UNL     1      48.847   6.034  18.013  0.00  0.00    +0.000 A 
BRANCH  21  31
ATOM     30  C   UNL     1      48.772   2.624  16.885  0.00  0.00    +0.000 C 
ATOM     31  O   UNL     1      49.352   3.926  16.941  0.00  0.00    +0.000 OA
ENDBRANCH  21  31
ENDBRANCH  17  28
ENDBRANCH   1  19
TORSDOF 8
ENDMDL
MODEL 2
REMARK VINA RESULT:    -7.457      2.479      3.239
REMARK INTER + INTRA:         -12.057
REMARK INTER:                 -11.055
REMARK INTRA:                  -1.002
REMARK UNBOUND:                -1.113
REMARK  Name = 
REMARK  9 active torsions:
REMARK  status: ('A' for Active; 'I' for Inactive)
REMARK    1  A    between atoms: C_1  and  O_2
REMARK    2  A    between atoms: O_2  and  C_3
REMARK    3  A    between atoms: C_10  and  C_11
REMARK    4  A    between atoms: N_13  and  C_14
REMARK    5  A    between atoms: C_14  and  C_15
REMARK    6  A    between atoms: C_18  and  C_19
REMARK    7  A    between atoms: C_19  and  O_20
REMARK    8  A    between atoms: O_20  and  C_21
REMARK    9  A    between atoms: C_21  and  C_22
REMARK                            x       y       z     vdW  Elec       q    Type
REMARK                         _______ _______ _______ _____ _____    ______ ____
ROOT
ATOM      1  C   UNL     1      49.032   7.268  15.407  0.00  0.00    +0.000 C 
ENDROOT
BRANCH   1   2
ATOM      2  C   UNL     1      48.077   6.534  14.501  0.00  0.00    +0.000 A 
ATOM      3  C   UNL     1      47.535   5.298  14.879  0.00  0.00    +0.000 A 
ATOM      4  C   UNL     1      46.622   4.637  14.049  0.00  0.00    +0.000 A 
ATOM      5  C   UNL     1      46.240   5.191  12.819  0.00  0.00    +0.000 A 
ATOM      6  C   UNL     1      46.810   6.410  12.427  0.00  0.00    +0.000 A 
ATOM      7  C   UNL     1      47.724   7.070  13.256  0.00  0.00    +0.000 A 
BRANCH   5   8
ATOM      8  C   UNL     1      45.237   4.490  11.936  0.00  0.00    +0.000 C 
BRANCH   8   9
ATOM      9  O   UNL     1      45.008   5.282  10.775  0.00  0.00    +0.000 OA
BRANCH   9  10
ATOM     10  C   UNL     1      44.241   4.574   9.796  0.00  0.00    +0.000 C 
BRANCH  10  11
ATOM     11  C   UNL     1      45.126   3.729   8.903  0.00  0.00    +0.000 A 
ATOM     12  C   UNL     1      45.202   2.347   9.069  0.00  0.00    +0.000 A 
ATOM     13  C   UNL     1      46.050   1.611   8.247  0.00  0.00    +0.000 A 
ATOM     14  C   UNL     1      46.810   2.269   7.290  0.00  0.00    +0.000 A 
ATOM     15  C   UNL     1      46.692   3.645   7.197  0.00  0.00    +0.000 A 
ATOM     16  N   UNL     1      45.879   4.387   7.982  0.00  0.00    +0.000 NA
ENDBRANCH  10  11
ENDBRANCH   9  10
ENDBRANCH   8   9
ENDBRANCH   5   8
ENDBRANCH   1   2
BRANCH   1  19
ATOM     17  C   UNL     1      50.109   5.925  17.159  0.00  0.00    +0.000 C 
ATOM     18  O   UNL     1      49.234   6.227  17.967  0.00  0.00    +0.000 OA
ATOM     19  N   UNL     1      50.085   6.404  15.878  0.00  0.00    +0.000 N 
ATOM     20  H   UNL     1      50.837   6.191  15.240  0.00  0.00    +0.000 HD
BRANCH  17  28
ATOM     21  C   UNL     1      50.499   2.501  17.101  0.00  0.00    +0.000 A 
ATOM     22  N   UNL     1      50.887   1.219  17.256  0.00  0.00    +0.000 NA
ATOM     23  C   UNL     1      52.090   0.986  17.787  0.00  0.00    +0.000 A 
ATOM     24  N   UNL     1      52.981   1.892  18.182  0.00  0.00    +0.000 NA
ATOM     25  C   UNL     1      52.551   3.154  18.020  0.00  0.00    +0.000 A 
ATOM     26  S   UNL     1      53.565   4.443  18.461  0.00  0.00    +0.000 S 
ATOM     27  C   UNL     1      52.389   5.584  18.013  0.00  0.00    +0.000 A 
ATOM     28  C   UNL     1      51.213   5.022  17.529  0.00  0.00    +0.000 A 
ATOM     29  C   UNL     1      51.325   3.565  17.507  0.00  0.00    +0.000 A 
BRANCH  21  31
ATOM     30  C   UNL     1      48.192   2.809  17.444  0.00  0.00    +0.000 C 
ATOM     31  O   UNL     1      49.274   2.752  16.518  0.00  0.00    +0.000 OA
ENDBRANCH  21  31
ENDBRANCH  17  28
ENDBRANCH   1  19
TORSDOF 8
ENDMDL
MODEL 3
REMARK VINA RESULT:    -7.180      1.989      3.592
REMARK INTER + INTRA:         -11.651
REMARK INTER:                 -10.394
REMARK INTRA:                  -1.257
REMARK UNBOUND:                -1.113
REMARK  Name = 
REMARK  9 active torsions:
REMARK  status: ('A' for Active; 'I' for Inactive)
REMARK    1  A    between atoms: C_1  and  O_2
REMARK    2  A    between atoms: O_2  and  C_3
REMARK    3  A    between atoms: C_10  and  C_11
REMARK    4  A    between atoms: N_13  and  C_14
REMARK    5  A    between atoms: C_14  and  C_15
REMARK    6  A    between atoms: C_18  and  C_19
REMARK    7  A    between atoms: C_19  and  O_20
REMARK    8  A    between atoms: O_20  and  C_21
REMARK    9  A    between atoms: C_21  and  C_22
REMARK                            x       y       z     vdW  Elec       q    Type
REMARK                         _______ _______ _______ _____ _____    ______ ____
ROOT
ATOM      1  C   UNL     1      47.433   4.526  14.937  0.00  0.00    +0.000 C 
ENDROOT
BRANCH   1   2
ATOM      2  C   UNL     1      46.458   4.512  13.788  0.00  0.00    +0.000 A 
ATOM      3  C   UNL     1      46.102   3.311  13.161  0.00  0.00    +0.000 A 
ATOM      4  C   UNL     1      45.170   3.300  12.117  0.00  0.00    +0.000 A 
ATOM      5  C   UNL     1      44.582   4.492  11.670  0.00  0.00    +0.000 A 
ATOM      6  C   UNL     1      44.966   5.697  12.274  0.00  0.00    +0.000 A 
ATOM      7  C   UNL     1      45.898   5.707  13.317  0.00  0.00    +0.000 A 
BRANCH   5   8
ATOM      8  C   UNL     1      43.559   4.477  10.560  0.00  0.00    +0.000 C 
BRANCH   8   9
ATOM      9  O   UNL     1      43.913   3.471   9.617  0.00  0.00    +0.000 OA
BRANCH   9  10
ATOM     10  C   UNL     1      44.573   4.026   8.476  0.00  0.00    +0.000 C 
BRANCH  10  11
ATOM     11  C   UNL     1      45.656   3.104   7.958  0.00  0.00    +0.000 A 
ATOM     12  C   UNL     1      46.611   3.556   7.048  0.00  0.00    +0.000 A 
ATOM     13  C   UNL     1      47.571   2.668   6.574  0.00  0.00    +0.000 A 
ATOM     14  C   UNL     1      47.550   1.348   7.006  0.00  0.00    +0.000 A 
ATOM     15  C   UNL     1      46.561   0.971   7.897  0.00  0.00    +0.000 A 
ATOM     16  N   UNL     1      45.614   1.810   8.374  0.00  0.00    +0.000 NA
ENDBRANCH  10  11
ENDBRANCH   9  10
ENDBRANCH   8   9
ENDBRANCH   5   8
ENDBRANCH   1   2
BRANCH   1  19
ATOM     17  C   UNL     1      48.755   6.172  16.193  0.00  0.00    +0.000 C 
ATOM     18  O   UNL     1      49.557   5.306  16.538  0.00  0.00    +0.000 OA
ATOM     19  N   UNL     1      47.677   5.865  15.409  0.00  0.00    +0.000 N 
ATOM     20  H   UNL     1      46.998   6.575  15.176  0.00  0.00    +0.000 HD
BRANCH  17  28
ATOM     21  C   UNL     1      48.740   9.155  14.467  0.00  0.00    +0.000 A 
ATOM     22  N   UNL     1      48.860  10.429  14.042  0.00  0.00    +0.000 NA
ATOM     23  C   UNL     1      49.148  11.369  14.947  0.00  0.00    +0.000 A 
ATOM     24  N   UNL     1      49.325  11.195  16.253  0.00  0.00    +0.000 NA
ATOM     25  C   UNL     1      49.208   9.911  16.632  0.00  0.00    +0.000 A 
ATOM     26  S   UNL     1      49.392   9.506  18.270  0.00  0.00    +0.000 S 
ATOM     27  C   UNL     1      49.149   7.857  17.939  0.00  0.00    +0.000 A 
ATOM     28  C   UNL     1      48.929   7.579  16.595  0.00  0.00    +0.000 A 
ATOM     29  C   UNL     1      48.936   8.816  15.818  0.00  0.00    +0.000 A 
BRANCH  21  31
ATOM     30  C   UNL     1      48.633   8.565  12.191  0.00  0.00    +0.000 C 
ATOM     31  O   UNL     1      48.405   8.183  13.545  0.00  0.00    +0.000 OA
ENDBRANCH  21  31
ENDBRANCH  17  28
ENDBRANCH   1  19
TORSDOF 8
ENDMDL
MODEL 4
REMARK VINA RESULT:    -7.152      2.201      2.640
REMARK INTER + INTRA:         -11.610
REMARK INTER:                 -10.426
REMARK INTRA:                  -1.184
REMARK UNBOUND:                -1.113
REMARK  Name = 
REMARK  9 active torsions:
REMARK  status: ('A' for Active; 'I' for Inactive)
REMARK    1  A    between atoms: C_1  and  O_2
REMARK    2  A    between atoms: O_2  and  C_3
REMARK    3  A    between atoms: C_10  and  C_11
REMARK    4  A    between atoms: N_13  and  C_14
REMARK    5  A    between atoms: C_14  and  C_15
REMARK    6  A    between atoms: C_18  and  C_19
REMARK    7  A    between atoms: C_19  and  O_20
REMARK    8  A    between atoms: O_20  and  C_21
REMARK    9  A    between atoms: C_21  and  C_22
REMARK                            x       y       z     vdW  Elec       q    Type
REMARK                         _______ _______ _______ _____ _____    ______ ____
ROOT
ATOM      1  C   UNL     1      48.426   7.624  14.004  0.00  0.00    +0.000 C 
ENDROOT
BRANCH   1   2
ATOM      2  C   UNL     1      47.502   6.581  13.431  0.00  0.00    +0.000 A 
ATOM      3  C   UNL     1      46.808   6.813  12.236  0.00  0.00    +0.000 A 
ATOM      4  C   UNL     1      45.978   5.828  11.690  0.00  0.00    +0.000 A 
ATOM      5  C   UNL     1      45.815   4.592  12.332  0.00  0.00    +0.000 A 
ATOM      6  C   UNL     1      46.482   4.374  13.545  0.00  0.00    +0.000 A 
ATOM      7  C   UNL     1      47.311   5.360  14.091  0.00  0.00    +0.000 A 
BRANCH   5   8
ATOM      8  C   UNL     1      44.939   3.520  11.730  0.00  0.00    +0.000 C 
BRANCH   8   9
ATOM      9  O   UNL     1      44.577   3.906  10.409  0.00  0.00    +0.000 OA
BRANCH   9  10
ATOM     10  C   UNL     1      44.310   2.770   9.581  0.00  0.00    +0.000 C 
BRANCH  10  11
ATOM     11  C   UNL     1      45.400   2.565   8.551  0.00  0.00    +0.000 A 
ATOM     12  C   UNL     1      45.748   3.582   7.662  0.00  0.00    +0.000 A 
ATOM     13  C   UNL     1      46.735   3.343   6.711  0.00  0.00    +0.000 A 
ATOM     14  C   UNL     1      47.342   2.095   6.659  0.00  0.00    +0.000 A 
ATOM     15  C   UNL     1      46.932   1.133   7.564  0.00  0.00    +0.000 A 
ATOM     16  N   UNL     1      45.975   1.334   8.498  0.00  0.00    +0.000 NA
ENDBRANCH  10  11
ENDBRANCH   9  10
ENDBRANCH   8   9
ENDBRANCH   5   8
ENDBRANCH   1   2
BRANCH   1  19
ATOM     17  C   UNL     1      50.350   7.714  15.529  0.00  0.00    +0.000 C 
ATOM     18  O   UNL     1      50.105   8.884  15.814  0.00  0.00    +0.000 OA
ATOM     19  N   UNL     1      49.572   7.025  14.639  0.00  0.00    +0.000 N 
ATOM     20  H   UNL     1      49.815   6.082  14.375  0.00  0.00    +0.000 HD
BRANCH  17  28
ATOM     21  C   UNL     1      50.623   4.739  17.247  0.00  0.00    +0.000 A 
ATOM     22  N   UNL     1      50.998   3.685  17.999  0.00  0.00    +0.000 NA
ATOM     23  C   UNL     1      52.277   3.604  18.377  0.00  0.00    +0.000 A 
ATOM     24  N   UNL     1      53.254   4.457  18.082  0.00  0.00    +0.000 NA
ATOM     25  C   UNL     1      52.836   5.497  17.341  0.00  0.00    +0.000 A 
ATOM     26  S   UNL     1      53.954   6.681  16.861  0.00  0.00    +0.000 S 
ATOM     27  C   UNL     1      52.745   7.569  16.064  0.00  0.00    +0.000 A 
ATOM     28  C   UNL     1      51.480   6.997  16.146  0.00  0.00    +0.000 A 
ATOM     29  C   UNL     1      51.543   5.740  16.888  0.00  0.00    +0.000 A 
BRANCH  21  31
ATOM     30  C   UNL     1      48.359   4.842  17.880  0.00  0.00    +0.000 C 
ATOM     31  O   UNL     1      49.313   4.810  16.821  0.00  0.00    +0.000 OA
ENDBRANCH  21  31
ENDBRANCH  17  28
ENDBRANCH   1  19
TORSDOF 8
ENDMDL
MODEL 5
REMARK VINA RESULT:    -7.051      1.853      2.660
REMARK INTER + INTRA:         -11.461
REMARK INTER:                 -10.469
REMARK INTRA:                  -0.992
REMARK UNBOUND:                -1.113
REMARK  Name = 
REMARK  9 active torsions:
REMARK  status: ('A' for Active; 'I' for Inactive)
REMARK    1  A    between atoms: C_1  and  O_2
REMARK    2  A    between atoms: O_2  and  C_3
REMARK    3  A    between atoms: C_10  and  C_11
REMARK    4  A    between atoms: N_13  and  C_14
REMARK    5  A    between atoms: C_14  and  C_15
REMARK    6  A    between atoms: C_18  and  C_19
REMARK    7  A    between atoms: C_19  and  O_20
REMARK    8  A    between atoms: O_20  and  C_21
REMARK    9  A    between atoms: C_21  and  C_22
REMARK                            x       y       z     vdW  Elec       q    Type
REMARK                         _______ _______ _______ _____ _____    ______ ____
ROOT
ATOM      1  C   UNL     1      47.375   7.517  13.380  0.00  0.00    +0.000 C 
ENDROOT
BRANCH   1   2
ATOM      2  C   UNL     1      46.487   6.448  12.798  0.00  0.00    +0.000 A 
ATOM      3  C   UNL     1      46.066   5.361  13.575  0.00  0.00    +0.000 A 
ATOM      4  C   UNL     1      45.213   4.390  13.040  0.00  0.00    +0.000 A 
ATOM      5  C   UNL     1      44.771   4.478  11.712  0.00  0.00    +0.000 A 
ATOM      6  C   UNL     1      45.221   5.546  10.925  0.00  0.00    +0.000 A 
ATOM      7  C   UNL     1      46.075   6.517  11.461  0.00  0.00    +0.000 A 
BRANCH   5   8
ATOM      8  C   UNL     1      43.831   3.443  11.142  0.00  0.00    +0.000 C 
BRANCH   8   9
ATOM      9  O   UNL     1      44.011   3.381   9.731  0.00  0.00    +0.000 OA
BRANCH   9  10
ATOM     10  C   UNL     1      44.442   2.083   9.310  0.00  0.00    +0.000 C 
BRANCH  10  11
ATOM     11  C   UNL     1      45.635   2.168   8.383  0.00  0.00    +0.000 A 
ATOM     12  C   UNL     1      45.963   3.362   7.741  0.00  0.00    +0.000 A 
ATOM     13  C   UNL     1      47.051   3.390   6.874  0.00  0.00    +0.000 A 
ATOM     14  C   UNL     1      47.778   2.228   6.657  0.00  0.00    +0.000 A 
ATOM     15  C   UNL     1      47.382   1.079   7.318  0.00  0.00    +0.000 A 
ATOM     16  N   UNL     1      46.329   1.019   8.165  0.00  0.00    +0.000 NA
ENDBRANCH  10  11
ENDBRANCH   9  10
ENDBRANCH   8   9
ENDBRANCH   5   8
ENDBRANCH   1   2
BRANCH   1  19
ATOM     17  C   UNL     1      48.895   7.838  15.284  0.00  0.00    +0.000 C 
ATOM     18  O   UNL     1      49.367   8.851  14.771  0.00  0.00    +0.000 OA
ATOM     19  N   UNL     1      47.915   7.120  14.656  0.00  0.00    +0.000 N 
ATOM     20  H   UNL     1      47.573   6.262  15.063  0.00  0.00    +0.000 HD
BRANCH  17  28
ATOM     21  C   UNL     1      48.436   8.966  18.507  0.00  0.00    +0.000 A 
ATOM     22  N   UNL     1      48.485   9.222  19.830  0.00  0.00    +0.000 NA
ATOM     23  C   UNL     1      49.214   8.411  20.601  0.00  0.00    +0.000 A 
ATOM     24  N   UNL     1      49.907   7.346  20.212  0.00  0.00    +0.000 NA
ATOM     25  C   UNL     1      49.841   7.132  18.887  0.00  0.00    +0.000 A 
ATOM     26  S   UNL     1      50.658   5.805  18.215  0.00  0.00    +0.000 S 
ATOM     27  C   UNL     1      50.144   6.220  16.649  0.00  0.00    +0.000 A 
ATOM     28  C   UNL     1      49.354   7.363  16.601  0.00  0.00    +0.000 A 
ATOM     29  C   UNL     1      49.150   7.891  17.948  0.00  0.00    +0.000 A 
BRANCH  21  31
ATOM     30  C   UNL     1      47.590  11.132  18.144  0.00  0.00    +0.000 C 
ATOM     31  O   UNL     1      47.654   9.776  17.709  0.00  0.00    +0.000 OA
ENDBRANCH  21  31
ENDBRANCH  17  28
ENDBRANCH   1  19
TORSDOF 8
ENDMDL
MODEL 6
REMARK VINA RESULT:    -6.932      1.933      2.744
REMARK INTER + INTRA:         -11.287
REMARK INTER:                 -10.091
REMARK INTRA:                  -1.196
REMARK UNBOUND:                -1.113
REMARK  Name = 
REMARK  9 active torsions:
REMARK  status: ('A' for Active; 'I' for Inactive)
REMARK    1  A    between atoms: C_1  and  O_2
REMARK    2  A    between atoms: O_2  and  C_3
REMARK    3  A    between atoms: C_10  and  C_11
REMARK    4  A    between atoms: N_13  and  C_14
REMARK    5  A    between atoms: C_14  and  C_15
REMARK    6  A    between atoms: C_18  and  C_19
REMARK    7  A    between atoms: C_19  and  O_20
REMARK    8  A    between atoms: O_20  and  C_21
REMARK    9  A    between atoms: C_21  and  C_22
REMARK                            x       y       z     vdW  Elec       q    Type
REMARK                         _______ _______ _______ _____ _____    ______ ____
ROOT
ATOM      1  C   UNL     1      47.544   4.599  15.727  0.00  0.00    +0.000 C 
ENDROOT
BRANCH   1   2
ATOM      2  C   UNL     1      46.989   4.791  14.339  0.00  0.00    +0.000 A 
ATOM      3  C   UNL     1      46.209   3.797  13.732  0.00  0.00    +0.000 A 
ATOM      4  C   UNL     1      45.668   3.994  12.458  0.00  0.00    +0.000 A 
ATOM      5  C   UNL     1      45.904   5.185  11.756  0.00  0.00    +0.000 A 
ATOM      6  C   UNL     1      46.713   6.163  12.348  0.00  0.00    +0.000 A 
ATOM      7  C   UNL     1      47.255   5.965  13.623  0.00  0.00    +0.000 A 
BRANCH   5   8
ATOM      8  C   UNL     1      45.300   5.407  10.390  0.00  0.00    +0.000 C 
BRANCH   8   9
ATOM      9  O   UNL     1      44.525   4.266  10.036  0.00  0.00    +0.000 OA
BRANCH   9  10
ATOM     10  C   UNL     1      44.446   4.103   8.616  0.00  0.00    +0.000 C 
BRANCH  10  11
ATOM     11  C   UNL     1      45.540   3.192   8.101  0.00  0.00    +0.000 A 
ATOM     12  C   UNL     1      46.513   3.666   7.220  0.00  0.00    +0.000 A 
ATOM     13  C   UNL     1      47.484   2.789   6.747  0.00  0.00    +0.000 A 
ATOM     14  C   UNL     1      47.456   1.460   7.150  0.00  0.00    +0.000 A 
ATOM     15  C   UNL     1      46.450   1.063   8.013  0.00  0.00    +0.000 A 
ATOM     16  N   UNL     1      45.492   1.890   8.489  0.00  0.00    +0.000 NA
ENDBRANCH  10  11
ENDBRANCH   9  10
ENDBRANCH   8   9
ENDBRANCH   5   8
ENDBRANCH   1   2
BRANCH   1  19
ATOM     17  C   UNL     1      49.262   6.055  16.708  0.00  0.00    +0.000 C 
ATOM     18  O   UNL     1      50.109   5.170  16.607  0.00  0.00    +0.000 OA
ATOM     19  N   UNL     1      47.972   5.849  16.303  0.00  0.00    +0.000 N 
ATOM     20  H   UNL     1      47.275   6.565  16.440  0.00  0.00    +0.000 HD
BRANCH  17  28
ATOM     21  C   UNL     1      47.885   8.036  19.168  0.00  0.00    +0.000 A 
ATOM     22  N   UNL     1      47.515   9.026  20.006  0.00  0.00    +0.000 NA
ATOM     23  C   UNL     1      48.225  10.157  19.995  0.00  0.00    +0.000 A 
ATOM     24  N   UNL     1      49.290  10.427  19.245  0.00  0.00    +0.000 NA
ATOM     25  C   UNL     1      49.618   9.421  18.418  0.00  0.00    +0.000 A 
ATOM     26  S   UNL     1      50.961   9.588  17.393  0.00  0.00    +0.000 S 
ATOM     27  C   UNL     1      50.703   8.047  16.725  0.00  0.00    +0.000 A 
ATOM     28  C   UNL     1      49.603   7.380  17.254  0.00  0.00    +0.000 A 
ATOM     29  C   UNL     1      48.972   8.195  18.290  0.00  0.00    +0.000 A 
BRANCH  21  31
ATOM     30  C   UNL     1      47.660   5.917  20.166  0.00  0.00    +0.000 C 
ATOM     31  O   UNL     1      47.181   6.850  19.200  0.00  0.00    +0.000 OA
ENDBRANCH  21  31
ENDBRANCH  17  28
ENDBRANCH   1  19
TORSDOF 8
ENDMDL
MODEL 7
REMARK VINA RESULT:    -6.799      1.673      2.934
REMARK INTER + INTRA:         -11.092
REMARK INTER:                 -10.317
REMARK INTRA:                  -0.775
REMARK UNBOUND:                -1.113
REMARK  Name = 
REMARK  9 active torsions:
REMARK  status: ('A' for Active; 'I' for Inactive)
REMARK    1  A    between atoms: C_1  and  O_2
REMARK    2  A    between atoms: O_2  and  C_3
REMARK    3  A    between atoms: C_10  and  C_11
REMARK    4  A    between atoms: N_13  and  C_14
REMARK    5  A    between atoms: C_14  and  C_15
REMARK    6  A    between atoms: C_18  and  C_19
REMARK    7  A    between atoms: C_19  and  O_20
REMARK    8  A    between atoms: O_20  and  C_21
REMARK    9  A    between atoms: C_21  and  C_22
REMARK                            x       y       z     vdW  Elec       q    Type
REMARK                         _______ _______ _______ _____ _____    ______ ____
ROOT
ATOM      1  C   UNL     1      47.531   3.753  15.248  0.00  0.00    +0.000 C 
ENDROOT
BRANCH   1   2
ATOM      2  C   UNL     1      46.778   4.225  14.030  0.00  0.00    +0.000 A 
ATOM      3  C   UNL     1      46.789   5.575  13.655  0.00  0.00    +0.000 A 
ATOM      4  C   UNL     1      46.117   6.001  12.505  0.00  0.00    +0.000 A 
ATOM      5  C   UNL     1      45.408   5.089  11.710  0.00  0.00    +0.000 A 
ATOM      6  C   UNL     1      45.367   3.746  12.106  0.00  0.00    +0.000 A 
ATOM      7  C   UNL     1      46.039   3.320  13.257  0.00  0.00    +0.000 A 
BRANCH   5   8
ATOM      8  C   UNL     1      44.703   5.545  10.456  0.00  0.00    +0.000 C 
BRANCH   8   9
ATOM      9  O   UNL     1      45.384   5.016   9.323  0.00  0.00    +0.000 OA
BRANCH   9  10
ATOM     10  C   UNL     1      44.809   3.779   8.891  0.00  0.00    +0.000 C 
BRANCH  10  11
ATOM     11  C   UNL     1      45.802   2.949   8.107  0.00  0.00    +0.000 A 
ATOM     12  C   UNL     1      46.560   3.515   7.082  0.00  0.00    +0.000 A 
ATOM     13  C   UNL     1      47.441   2.710   6.365  0.00  0.00    +0.000 A 
ATOM     14  C   UNL     1      47.536   1.361   6.677  0.00  0.00    +0.000 A 
ATOM     15  C   UNL     1      46.739   0.870   7.696  0.00  0.00    +0.000 A 
ATOM     16  N   UNL     1      45.874   1.625   8.409  0.00  0.00    +0.000 NA
ENDBRANCH  10  11
ENDBRANCH   9  10
ENDBRANCH   8   9
ENDBRANCH   5   8
ENDBRANCH   1   2
BRANCH   1  19
ATOM     17  C   UNL     1      48.444   5.101  17.088  0.00  0.00    +0.000 C 
ATOM     18  O   UNL     1      49.585   4.714  16.841  0.00  0.00    +0.000 OA
ATOM     19  N   UNL     1      47.376   4.666  16.352  0.00  0.00    +0.000 N 
ATOM     20  H   UNL     1      46.439   4.950  16.598  0.00  0.00    +0.000 HD
BRANCH  17  28
ATOM     21  C   UNL     1      48.368   8.542  17.254  0.00  0.00    +0.000 A 
ATOM     22  N   UNL     1      48.350   9.840  17.616  0.00  0.00    +0.000 NA
ATOM     23  C   UNL     1      48.125  10.133  18.900  0.00  0.00    +0.000 A 
ATOM     24  N   UNL     1      47.901   9.273  19.889  0.00  0.00    +0.000 NA
ATOM     25  C   UNL     1      47.938   7.992  19.489  0.00  0.00    +0.000 A 
ATOM     26  S   UNL     1      47.661   6.756  20.620  0.00  0.00    +0.000 S 
ATOM     27  C   UNL     1      47.888   5.557  19.439  0.00  0.00    +0.000 A 
ATOM     28  C   UNL     1      48.180   6.059  18.175  0.00  0.00    +0.000 A 
ATOM     29  C   UNL     1      48.181   7.520  18.203  0.00  0.00    +0.000 A 
BRANCH  21  31
ATOM     30  C   UNL     1      49.932   8.149  15.540  0.00  0.00    +0.000 C 
ATOM     31  O   UNL     1      48.561   8.232  15.923  0.00  0.00    +0.000 OA
ENDBRANCH  21  31
ENDBRANCH  17  28
ENDBRANCH   1  19
TORSDOF 8
ENDMDL
MODEL 8
REMARK VINA RESULT:    -6.575      3.536      4.542
REMARK INTER + INTRA:         -10.764
REMARK INTER:                  -9.552
REMARK INTRA:                  -1.212
REMARK UNBOUND:                -1.113
REMARK  Name = 
REMARK  9 active torsions:
REMARK  status: ('A' for Active; 'I' for Inactive)
REMARK    1  A    between atoms: C_1  and  O_2
REMARK    2  A    between atoms: O_2  and  C_3
REMARK    3  A    between atoms: C_10  and  C_11
REMARK    4  A    between atoms: N_13  and  C_14
REMARK    5  A    between atoms: C_14  and  C_15
REMARK    6  A    between atoms: C_18  and  C_19
REMARK    7  A    between atoms: C_19  and  O_20
REMARK    8  A    between atoms: O_20  and  C_21
REMARK    9  A    between atoms: C_21  and  C_22
REMARK                            x       y       z     vdW  Elec       q    Type
REMARK                         _______ _______ _______ _____ _____    ______ ____
ROOT
ATOM      1  C   UNL     1      46.918   8.562  12.976  0.00  0.00    +0.000 C 
ENDROOT
BRANCH   1   2
ATOM      2  C   UNL     1      46.157   7.394  12.403  0.00  0.00    +0.000 A 
ATOM      3  C   UNL     1      46.694   6.100  12.436  0.00  0.00    +0.000 A 
ATOM      4  C   UNL     1      45.969   5.014  11.934  0.00  0.00    +0.000 A 
ATOM      5  C   UNL     1      44.695   5.199  11.377  0.00  0.00    +0.000 A 
ATOM      6  C   UNL     1      44.174   6.498  11.313  0.00  0.00    +0.000 A 
ATOM      7  C   UNL     1      44.900   7.584  11.814  0.00  0.00    +0.000 A 
BRANCH   5   8
ATOM      8  C   UNL     1      43.903   4.023  10.858  0.00  0.00    +0.000 C 
BRANCH   8   9
ATOM      9  O   UNL     1      44.790   2.935  10.622  0.00  0.00    +0.000 OA
BRANCH   9  10
ATOM     10  C   UNL     1      44.436   2.212   9.438  0.00  0.00    +0.000 C 
BRANCH  10  11
ATOM     11  C   UNL     1      45.555   2.236   8.419  0.00  0.00    +0.000 A 
ATOM     12  C   UNL     1      45.811   3.378   7.661  0.00  0.00    +0.000 A 
ATOM     13  C   UNL     1      46.830   3.348   6.713  0.00  0.00    +0.000 A 
ATOM     14  C   UNL     1      47.558   2.180   6.533  0.00  0.00    +0.000 A 
ATOM     15  C   UNL     1      47.233   1.084   7.312  0.00  0.00    +0.000 A 
ATOM     16  N   UNL     1      46.249   1.081   8.239  0.00  0.00    +0.000 NA
ENDBRANCH  10  11
ENDBRANCH   9  10
ENDBRANCH   8   9
ENDBRANCH   5   8
ENDBRANCH   1   2
BRANCH   1  19
ATOM     17  C   UNL     1      49.159   9.212  12.208  0.00  0.00    +0.000 C 
ATOM     18  O   UNL     1      48.703  10.189  11.617  0.00  0.00    +0.000 OA
ATOM     19  N   UNL     1      48.342   8.357  12.894  0.00  0.00    +0.000 N 
ATOM     20  H   UNL     1      48.722   7.530  13.331  0.00  0.00    +0.000 HD
BRANCH  17  28
ATOM     21  C   UNL     1      51.372   8.213  14.653  0.00  0.00    +0.000 A 
ATOM     22  N   UNL     1      52.445   7.910  15.411  0.00  0.00    +0.000 NA
ATOM     23  C   UNL     1      53.645   7.892  14.823  0.00  0.00    +0.000 A 
ATOM     24  N   UNL     1      53.914   8.133  13.544  0.00  0.00    +0.000 NA
ATOM     25  C   UNL     1      52.820   8.442  12.827  0.00  0.00    +0.000 A 
ATOM     26  S   UNL     1      52.974   8.769  11.169  0.00  0.00    +0.000 S 
ATOM     27  C   UNL     1      51.308   9.066  11.022  0.00  0.00    +0.000 A 
ATOM     28  C   UNL     1      50.605   8.929  12.214  0.00  0.00    +0.000 A 
ATOM     29  C   UNL     1      51.510   8.526  13.289  0.00  0.00    +0.000 A 
BRANCH  21  31
ATOM     30  C   UNL     1      49.820   9.372  15.989  0.00  0.00    +0.000 C 
ATOM     31  O   UNL     1      50.125   8.196  15.243  0.00  0.00    +0.000 OA
ENDBRANCH  21  31
ENDBRANCH  17  28
ENDBRANCH   1  19
TORSDOF 8
ENDMDL
MODEL 9
REMARK VINA RESULT:    -6.432      3.241      8.221
REMARK INTER + INTRA:         -10.553
REMARK INTER:                  -8.977
REMARK INTRA:                  -1.576
REMARK UNBOUND:                -1.113
REMARK  Name = 
REMARK  9 active torsions:
REMARK  status: ('A' for Active; 'I' for Inactive)
REMARK    1  A    between atoms: C_1  and  O_2
REMARK    2  A    between atoms: O_2  and  C_3
REMARK    3  A    between atoms: C_10  and  C_11
REMARK    4  A    between atoms: N_13  and  C_14
REMARK    5  A    between atoms: C_14  and  C_15
REMARK    6  A    between atoms: C_18  and  C_19
REMARK    7  A    between atoms: C_19  and  O_20
REMARK    8  A    between atoms: O_20  and  C_21
REMARK    9  A    between atoms: C_21  and  C_22
REMARK                            x       y       z     vdW  Elec       q    Type
REMARK                         _______ _______ _______ _____ _____    ______ ____
ROOT
ATOM      1  C   UNL     1      48.329   8.053  11.801  0.00  0.00    +0.000 C 
ENDROOT
BRANCH   1   2
ATOM      2  C   UNL     1      48.509   7.976  13.295  0.00  0.00    +0.000 A 
ATOM      3  C   UNL     1      49.243   6.934  13.879  0.00  0.00    +0.000 A 
ATOM      4  C   UNL     1      49.436   6.887  15.263  0.00  0.00    +0.000 A 
ATOM      5  C   UNL     1      48.889   7.872  16.097  0.00  0.00    +0.000 A 
ATOM      6  C   UNL     1      48.125   8.894  15.516  0.00  0.00    +0.000 A 
ATOM      7  C   UNL     1      47.932   8.941  14.131  0.00  0.00    +0.000 A 
BRANCH   5   8
ATOM      8  C   UNL     1      49.118   7.834  17.589  0.00  0.00    +0.000 C 
BRANCH   8   9
ATOM      9  O   UNL     1      48.299   6.817  18.156  0.00  0.00    +0.000 OA
BRANCH   9  10
ATOM     10  C   UNL     1      49.082   5.808  18.802  0.00  0.00    +0.000 C 
BRANCH  10  11
ATOM     11  C   UNL     1      49.094   4.520  18.006  0.00  0.00    +0.000 A 
ATOM     12  C   UNL     1      47.972   4.113  17.283  0.00  0.00    +0.000 A 
ATOM     13  C   UNL     1      48.014   2.908  16.588  0.00  0.00    +0.000 A 
ATOM     14  C   UNL     1      49.165   2.132  16.639  0.00  0.00    +0.000 A 
ATOM     15  C   UNL     1      50.230   2.597  17.391  0.00  0.00    +0.000 A 
ATOM     16  N   UNL     1      50.219   3.761  18.078  0.00  0.00    +0.000 NA
ENDBRANCH  10  11
ENDBRANCH   9  10
ENDBRANCH   8   9
ENDBRANCH   5   8
ENDBRANCH   1   2
BRANCH   1  19
ATOM     17  C   UNL     1      46.222   6.907  11.270  0.00  0.00    +0.000 C 
ATOM     18  O   UNL     1      45.567   7.858  11.690  0.00  0.00    +0.000 OA
ATOM     19  N   UNL     1      47.590   6.923  11.298  0.00  0.00    +0.000 N 
ATOM     20  H   UNL     1      48.115   6.115  10.999  0.00  0.00    +0.000 HD
BRANCH  17  28
ATOM     21  C   UNL     1      44.437   4.301  12.649  0.00  0.00    +0.000 A 
ATOM     22  N   UNL     1      43.787   3.152  12.922  0.00  0.00    +0.000 NA
ATOM     23  C   UNL     1      43.507   2.331  11.905  0.00  0.00    +0.000 A 
ATOM     24  N   UNL     1      43.790   2.522  10.621  0.00  0.00    +0.000 NA
ATOM     25  C   UNL     1      44.447   3.672  10.394  0.00  0.00    +0.000 A 
ATOM     26  S   UNL     1      44.881   4.086   8.805  0.00  0.00    +0.000 S 
ATOM     27  C   UNL     1      45.624   5.521   9.330  0.00  0.00    +0.000 A 
ATOM     28  C   UNL     1      45.565   5.715  10.705  0.00  0.00    +0.000 A 
ATOM     29  C   UNL     1      44.833   4.620  11.337  0.00  0.00    +0.000 A 
BRANCH  21  31
ATOM     30  C   UNL     1      46.022   5.080  14.204  0.00  0.00    +0.000 C 
ATOM     31  O   UNL     1      44.697   5.173  13.687  0.00  0.00    +0.000 OA
ENDBRANCH  21  31
ENDBRANCH  17  28
ENDBRANCH   1  19
TORSDOF 8
ENDMDL
