MODEL 1
REMARK VINA RESULT:    -7.556      0.000      0.000
REMARK INTER + INTRA:         -10.869
REMARK INTER:                  -9.765
REMARK INTRA:                  -1.104
REMARK UNBOUND:                -1.104
REMARK  Name = 
REMARK  6 active torsions:
REMARK  status: ('A' for Active; 'I' for Inactive)
REMARK    1  A    between atoms: C_1  and  C_2
REMARK    2  A    between atoms: C_2  and  N_3
REMARK    3  A    between atoms: C_2  and  C_24
REMARK    4  A    between atoms: C_7  and  C_8
REMARK    5  A    between atoms: C_8  and  N_9
REMARK    6  A    between atoms: C_10  and  C_12
REMARK                            x       y       z     vdW  Elec       q    Type
REMARK                         _______ _______ _______ _____ _____    ______ ____
ROOT
ATOM      1  N   UNL     1      44.681   5.581  10.392  0.00  0.00    +0.000 N 
ATOM      2  C   UNL     1      45.346   6.352  11.350  0.00  0.00    +0.000 A 
ATOM      3  C   UNL     1      44.914   7.658  11.572  0.00  0.00    +0.000 A 
ATOM      4  C   UNL     1      45.604   8.480  12.462  0.00  0.00    +0.000 A 
ATOM      5  C   UNL     1      46.745   8.001  13.099  0.00  0.00    +0.000 A 
ATOM      6  C   UNL     1      47.132   6.704  12.790  0.00  0.00    +0.000 A 
ATOM      7  N   UNL     1      46.455   5.876  11.953  0.00  0.00    +0.000 NA
ATOM      8  H   UNL     1      43.711   5.852  10.274  0.00  0.00    +0.000 HD
ENDROOT
BRANCH   1  10
ATOM      9  C   UNL     1      43.401   3.518  10.787  0.00  0.00    +0.000 C 
ATOM     10  C   UNL     1      44.788   4.124  10.527  0.00  0.00    +0.000 C 
BRANCH  10  11
ATOM     11  C   UNL     1      45.404   3.559   9.242  0.00  0.00    +0.000 A 
ATOM     12  C   UNL     1      45.530   2.177   9.101  0.00  0.00    +0.000 A 
ATOM     13  C   UNL     1      46.120   1.662   7.950  0.00  0.00    +0.000 A 
ATOM     14  C   UNL     1      46.582   2.535   6.973  0.00  0.00    +0.000 A 
ATOM     15  C   UNL     1      46.437   3.894   7.192  0.00  0.00    +0.000 A 
ATOM     16  N   UNL     1      45.867   4.424   8.298  0.00  0.00    +0.000 NA
ENDBRANCH  10  11
ENDBRANCH   1  10
BRANCH   5  17
ATOM     17  C   UNL     1      47.529   8.854  14.050  0.00  0.00    +0.000 C 
BRANCH  17  18
ATOM     18  N   UNL     1      47.887   8.141  15.252  0.00  0.00    +0.000 N 
ATOM     19  C   UNL     1      49.183   7.843  15.580  0.00  0.00    +0.000 C 
ATOM     20  O   UNL     1      50.125   8.147  14.851  0.00  0.00    +0.000 OA
ATOM     21  H   UNL     1      47.128   7.742  15.796  0.00  0.00    +0.000 HD
BRANCH  19  22
ATOM     22  C   UNL     1      49.406   7.197  16.882  0.00  0.00    +0.000 A 
ATOM     23  C   UNL     1      50.093   7.883  17.875  0.00  0.00    +0.000 A 
ATOM     24  S   UNL     1      50.246   7.014  19.333  0.00  0.00    +0.000 S 
ATOM     25  C   UNL     1      49.436   5.670  18.678  0.00  0.00    +0.000 A 
ATOM     26  N   UNL     1      49.252   4.542  19.416  0.00  0.00    +0.000 NA
ATOM     27  C   UNL     1      48.660   3.584  18.785  0.00  0.00    +0.000 A 
ATOM     28  N   UNL     1      48.220   3.658  17.489  0.00  0.00    +0.000 N 
ATOM     29  C   UNL     1      48.317   4.802  16.732  0.00  0.00    +0.000 A 
ATOM     30  O   UNL     1      47.801   4.876  15.621  0.00  0.00    +0.000 OA
ATOM     31  C   UNL     1      49.026   5.893  17.374  0.00  0.00    +0.000 A 
ATOM     32  H   UNL     1      47.738   2.880  17.063  0.00  0.00    +0.000 HD
ENDBRANCH  19  22
ENDBRANCH  17  18
ENDBRANCH   5  17
TORSDOF 5
ENDMDL
MODEL 2
REMARK VINA RESULT:    -7.300      1.949      2.208
REMARK INTER + INTRA:         -10.539
REMARK INTER:                  -9.556
REMARK INTRA:                  -0.983
REMARK UNBOUND:                -1.104
REMARK  Name = 
REMARK  6 active torsions:
REMARK  status: ('A' for Active; 'I' for Inactive)
REMARK    1  A    between atoms: C_1  and  C_2
REMARK    2  A    between atoms: C_2  and  N_3
REMARK    3  A    between atoms: C_2  and  C_24
REMARK    4  A    between atoms: C_7  and  C_8
REMARK    5  A    between atoms: C_8  and  N_9
REMARK    6  A    between atoms: C_10  and  C_12
REMARK                            x       y       z     vdW  Elec       q    Type
REMARK                         _______ _______ _______ _____ _____    ______ ____
ROOT
ATOM      1  N   UNL     1      44.595   6.092  10.824  0.00  0.00    +0.000 N 
ATOM      2  C   UNL     1      45.362   6.844  11.719  0.00  0.00    +0.000 A 
ATOM      3  C   UNL     1      45.118   8.213  11.818  0.00  0.00    +0.000 A 
ATOM      4  C   UNL     1      45.916   9.006  12.642  0.00  0.00    +0.000 A 
ATOM      5  C   UNL     1      46.976   8.430  13.336  0.00  0.00    +0.000 A 
ATOM      6  C   UNL     1      47.176   7.069  13.149  0.00  0.00    +0.000 A 
ATOM      7  N   UNL     1      46.391   6.273  12.379  0.00  0.00    +0.000 NA
ATOM      8  H   UNL     1      43.675   6.485  10.667  0.00  0.00    +0.000 HD
ENDROOT
BRANCH   1  10
ATOM      9  C   UNL     1      43.028   4.265  11.330  0.00  0.00    +0.000 C 
ATOM     10  C   UNL     1      44.494   4.652  11.089  0.00  0.00    +0.000 C 
BRANCH  10  11
ATOM     11  C   UNL     1      45.076   3.893   9.891  0.00  0.00    +0.000 A 
ATOM     12  C   UNL     1      45.619   4.617   8.829  0.00  0.00    +0.000 A 
ATOM     13  C   UNL     1      46.118   3.933   7.725  0.00  0.00    +0.000 A 
ATOM     14  C   UNL     1      46.052   2.546   7.697  0.00  0.00    +0.000 A 
ATOM     15  C   UNL     1      45.484   1.898   8.780  0.00  0.00    +0.000 A 
ATOM     16  N   UNL     1      44.992   2.534   9.867  0.00  0.00    +0.000 NA
ENDBRANCH  10  11
ENDBRANCH   1  10
BRANCH   5  17
ATOM     17  C   UNL     1      47.871   9.246  14.219  0.00  0.00    +0.000 C 
BRANCH  17  18
ATOM     18  N   UNL     1      47.694   8.929  15.615  0.00  0.00    +0.000 N 
ATOM     19  C   UNL     1      48.288   9.647  16.620  0.00  0.00    +0.000 C 
ATOM     20  O   UNL     1      49.031  10.598  16.389  0.00  0.00    +0.000 OA
ATOM     21  H   UNL     1      47.214   8.062  15.835  0.00  0.00    +0.000 HD
BRANCH  19  22
ATOM     22  C   UNL     1      47.941   9.269  17.998  0.00  0.00    +0.000 A 
ATOM     23  C   UNL     1      47.531  10.250  18.891  0.00  0.00    +0.000 A 
ATOM     24  S   UNL     1      47.139   9.652  20.438  0.00  0.00    +0.000 S 
ATOM     25  C   UNL     1      47.544   8.063  19.986  0.00  0.00    +0.000 A 
ATOM     26  N   UNL     1      47.459   7.042  20.880  0.00  0.00    +0.000 NA
ATOM     27  C   UNL     1      47.836   5.897  20.417  0.00  0.00    +0.000 A 
ATOM     28  N   UNL     1      48.273   5.678  19.137  0.00  0.00    +0.000 N 
ATOM     29  C   UNL     1      48.303   6.665  18.179  0.00  0.00    +0.000 A 
ATOM     30  O   UNL     1      48.577   6.410  17.011  0.00  0.00    +0.000 OA
ATOM     31  C   UNL     1      47.943   7.985  18.662  0.00  0.00    +0.000 A 
ATOM     32  H   UNL     1      48.526   4.750  18.830  0.00  0.00    +0.000 HD
ENDBRANCH  19  22
ENDBRANCH  17  18
ENDBRANCH   5  17
TORSDOF 5
ENDMDL
MODEL 3
REMARK VINA RESULT:    -6.960      4.228      9.565
REMARK INTER + INTRA:         -10.098
REMARK INTER:                  -9.218
REMARK INTRA:                  -0.880
REMARK UNBOUND:                -1.104
REMARK  Name = 
REMARK  6 active torsions:
REMARK  status: ('A' for Active; 'I' for Inactive)
REMARK    1  A    between atoms: C_1  and  C_2
REMARK    2  A    between atoms: C_2  and  N_3
REMARK    3  A    between atoms: C_2  and  C_24
REMARK    4  A    between atoms: C_7  and  C_8
REMARK    5  A    between atoms: C_8  and  N_9
REMARK    6  A    between atoms: C_10  and  C_12
REMARK                            x       y       z     vdW  Elec       q    Type
REMARK                         _______ _______ _______ _____ _____    ______ ____
ROOT
ATOM      1  N   UNL     1      52.525   3.284  18.619  0.00  0.00    +0.000 N 
ATOM      2  C   UNL     1      51.209   3.358  18.154  0.00  0.00    +0.000 A 
ATOM      3  C   UNL     1      50.361   4.315  18.708  0.00  0.00    +0.000 A 
ATOM      4  C   UNL     1      49.020   4.365  18.326  0.00  0.00    +0.000 A 
ATOM      5  C   UNL     1      48.528   3.433  17.417  0.00  0.00    +0.000 A 
ATOM      6  C   UNL     1      49.429   2.488  16.946  0.00  0.00    +0.000 A 
ATOM      7  N   UNL     1      50.744   2.443  17.279  0.00  0.00    +0.000 NA
ATOM      8  H   UNL     1      52.871   4.172  18.963  0.00  0.00    +0.000 HD
ENDROOT
BRANCH   1  10
ATOM      9  C   UNL     1      54.630   3.672  17.405  0.00  0.00    +0.000 C 
ATOM     10  C   UNL     1      53.509   2.670  17.718  0.00  0.00    +0.000 C 
BRANCH  10  11
ATOM     11  C   UNL     1      54.066   1.410  18.390  0.00  0.00    +0.000 A 
ATOM     12  C   UNL     1      54.988   1.547  19.427  0.00  0.00    +0.000 A 
ATOM     13  C   UNL     1      55.521   0.405  20.018  0.00  0.00    +0.000 A 
ATOM     14  C   UNL     1      55.134  -0.845  19.553  0.00  0.00    +0.000 A 
ATOM     15  C   UNL     1      54.228  -0.901  18.509  0.00  0.00    +0.000 A 
ATOM     16  N   UNL     1      53.691   0.190  17.916  0.00  0.00    +0.000 NA
ENDBRANCH  10  11
ENDBRANCH   1  10
BRANCH   5  17
ATOM     17  C   UNL     1      47.091   3.437  16.990  0.00  0.00    +0.000 C 
BRANCH  17  18
ATOM     18  N   UNL     1      46.834   4.406  15.953  0.00  0.00    +0.000 N 
ATOM     19  C   UNL     1      46.968   4.120  14.620  0.00  0.00    +0.000 C 
ATOM     20  O   UNL     1      47.341   3.017  14.225  0.00  0.00    +0.000 OA
ATOM     21  H   UNL     1      46.675   5.365  16.246  0.00  0.00    +0.000 HD
BRANCH  19  22
ATOM     22  C   UNL     1      46.580   5.176  13.673  0.00  0.00    +0.000 A 
ATOM     23  C   UNL     1      47.475   6.199  13.390  0.00  0.00    +0.000 A 
ATOM     24  S   UNL     1      46.892   7.330  12.256  0.00  0.00    +0.000 S 
ATOM     25  C   UNL     1      45.403   6.518  12.132  0.00  0.00    +0.000 A 
ATOM     26  N   UNL     1      44.415   6.995  11.329  0.00  0.00    +0.000 NA
ATOM     27  C   UNL     1      43.323   6.306  11.361  0.00  0.00    +0.000 A 
ATOM     28  N   UNL     1      43.137   5.174  12.111  0.00  0.00    +0.000 N 
ATOM     29  C   UNL     1      44.131   4.614  12.878  0.00  0.00    +0.000 A 
ATOM     30  O   UNL     1      43.973   3.533  13.436  0.00  0.00    +0.000 OA
ATOM     31  C   UNL     1      45.363   5.381  12.922  0.00  0.00    +0.000 A 
ATOM     32  H   UNL     1      42.266   4.665  12.068  0.00  0.00    +0.000 HD
ENDBRANCH  19  22
ENDBRANCH  17  18
ENDBRANCH   5  17
TORSDOF 5
ENDMDL
MODEL 4
REMARK VINA RESULT:    -6.827      4.558      9.035
REMARK INTER + INTRA:          -9.927
REMARK INTER:                  -9.293
REMARK INTRA:                  -0.634
REMARK UNBOUND:                -1.104
REMARK  Name = 
REMARK  6 active torsions:
REMARK  status: ('A' for Active; 'I' for Inactive)
REMARK    1  A    between atoms: C_1  and  C_2
REMARK    2  A    between atoms: C_2  and  N_3
REMARK    3  A    between atoms: C_2  and  C_24
REMARK    4  A    between atoms: C_7  and  C_8
REMARK    5  A    between atoms: C_8  and  N_9
REMARK    6  A    between atoms: C_10  and  C_12
REMARK                            x       y       z     vdW  Elec       q    Type
REMARK                         _______ _______ _______ _____ _____    ______ ____
ROOT
ATOM      1  N   UNL     1      52.146   1.471  17.351  0.00  0.00    +0.000 N 
ATOM      2  C   UNL     1      51.327   2.603  17.404  0.00  0.00    +0.000 A 
ATOM      3  C   UNL     1      49.949   2.424  17.503  0.00  0.00    +0.000 A 
ATOM      4  C   UNL     1      49.097   3.529  17.478  0.00  0.00    +0.000 A 
ATOM      5  C   UNL     1      49.630   4.804  17.319  0.00  0.00    +0.000 A 
ATOM      6  C   UNL     1      51.009   4.891  17.185  0.00  0.00    +0.000 A 
ATOM      7  N   UNL     1      51.857   3.833  17.241  0.00  0.00    +0.000 NA
ATOM      8  H   UNL     1      51.742   0.671  17.824  0.00  0.00    +0.000 HD
ENDROOT
BRANCH   1  10
ATOM      9  C   UNL     1      53.608   2.338  19.129  0.00  0.00    +0.000 C 
ATOM     10  C   UNL     1      53.545   1.648  17.759  0.00  0.00    +0.000 C 
BRANCH  10  11
ATOM     11  C   UNL     1      54.218   0.271  17.802  0.00  0.00    +0.000 A 
ATOM     12  C   UNL     1      54.850  -0.210  16.656  0.00  0.00    +0.000 A 
ATOM     13  C   UNL     1      55.434  -1.474  16.681  0.00  0.00    +0.000 A 
ATOM     14  C   UNL     1      55.362  -2.232  17.842  0.00  0.00    +0.000 A 
ATOM     15  C   UNL     1      54.704  -1.694  18.934  0.00  0.00    +0.000 A 
ATOM     16  N   UNL     1      54.129  -0.470  18.941  0.00  0.00    +0.000 NA
ENDBRANCH  10  11
ENDBRANCH   1  10
BRANCH   5  17
ATOM     17  C   UNL     1      48.753   6.019  17.269  0.00  0.00    +0.000 C 
BRANCH  17  18
ATOM     18  N   UNL     1      47.895   6.024  16.109  0.00  0.00    +0.000 N 
ATOM     19  C   UNL     1      48.340   6.364  14.859  0.00  0.00    +0.000 C 
ATOM     20  O   UNL     1      49.500   6.710  14.652  0.00  0.00    +0.000 OA
ATOM     21  H   UNL     1      46.901   5.894  16.270  0.00  0.00    +0.000 HD
BRANCH  19  22
ATOM     22  C   UNL     1      47.377   6.231  13.755  0.00  0.00    +0.000 A 
ATOM     23  C   UNL     1      47.002   7.361  13.039  0.00  0.00    +0.000 A 
ATOM     24  S   UNL     1      45.903   7.042  11.776  0.00  0.00    +0.000 S 
ATOM     25  C   UNL     1      45.853   5.387  12.166  0.00  0.00    +0.000 A 
ATOM     26  N   UNL     1      45.058   4.532  11.469  0.00  0.00    +0.000 NA
ATOM     27  C   UNL     1      45.084   3.314  11.895  0.00  0.00    +0.000 A 
ATOM     28  N   UNL     1      45.847   2.870  12.944  0.00  0.00    +0.000 N 
ATOM     29  C   UNL     1      46.720   3.682  13.628  0.00  0.00    +0.000 A 
ATOM     30  O   UNL     1      47.481   3.228  14.477  0.00  0.00    +0.000 OA
ATOM     31  C   UNL     1      46.689   5.077  13.226  0.00  0.00    +0.000 A 
ATOM     32  H   UNL     1      45.842   1.896  13.209  0.00  0.00    +0.000 HD
ENDBRANCH  19  22
ENDBRANCH  17  18
ENDBRANCH   5  17
TORSDOF 5
ENDMDL
MODEL 5
REMARK VINA RESULT:    -6.823      3.679      8.736
REMARK INTER + INTRA:          -9.921
REMARK INTER:                  -8.974
REMARK INTRA:                  -0.947
REMARK UNBOUND:                -1.104
REMARK  Name = 
REMARK  6 active torsions:
REMARK  status: ('A' for Active; 'I' for Inactive)
REMARK    1  A    between atoms: C_1  and  C_2
REMARK    2  A    between atoms: C_2  and  N_3
REMARK    3  A    between atoms: C_2  and  C_24
REMARK    4  A    between atoms: C_7  and  C_8
REMARK    5  A    between atoms: C_8  and  N_9
REMARK    6  A    between atoms: C_10  and  C_12
REMARK                            x       y       z     vdW  Elec       q    Type
REMARK                         _______ _______ _______ _____ _____    ______ ____
ROOT
ATOM      1  N   UNL     1      51.081   3.744  18.382  0.00  0.00    +0.000 N 
ATOM      2  C   UNL     1      50.582   4.840  17.671  0.00  0.00    +0.000 A 
ATOM      3  C   UNL     1      49.200   4.999  17.578  0.00  0.00    +0.000 A 
ATOM      4  C   UNL     1      48.667   6.035  16.811  0.00  0.00    +0.000 A 
ATOM      5  C   UNL     1      49.520   6.884  16.113  0.00  0.00    +0.000 A 
ATOM      6  C   UNL     1      50.880   6.630  16.225  0.00  0.00    +0.000 A 
ATOM      7  N   UNL     1      51.420   5.650  16.993  0.00  0.00    +0.000 NA
ATOM      8  H   UNL     1      50.455   3.433  19.115  0.00  0.00    +0.000 HD
ENDROOT
BRANCH   1  10
ATOM      9  C   UNL     1      52.419   4.273  20.378  0.00  0.00    +0.000 C 
ATOM     10  C   UNL     1      52.450   3.862  18.899  0.00  0.00    +0.000 C 
BRANCH  10  11
ATOM     11  C   UNL     1      53.158   2.515  18.715  0.00  0.00    +0.000 A 
ATOM     12  C   UNL     1      52.613   1.577  17.838  0.00  0.00    +0.000 A 
ATOM     13  C   UNL     1      53.235   0.340  17.693  0.00  0.00    +0.000 A 
ATOM     14  C   UNL     1      54.375   0.061  18.436  0.00  0.00    +0.000 A 
ATOM     15  C   UNL     1      54.847   1.035  19.298  0.00  0.00    +0.000 A 
ATOM     16  N   UNL     1      54.267   2.246  19.459  0.00  0.00    +0.000 NA
ENDBRANCH  10  11
ENDBRANCH   1  10
BRANCH   5  17
ATOM     17  C   UNL     1      48.992   8.000  15.262  0.00  0.00    +0.000 C 
BRANCH  17  18
ATOM     18  N   UNL     1      47.832   7.603  14.501  0.00  0.00    +0.000 N 
ATOM     19  C   UNL     1      47.916   6.838  13.367  0.00  0.00    +0.000 C 
ATOM     20  O   UNL     1      48.994   6.462  12.913  0.00  0.00    +0.000 OA
ATOM     21  H   UNL     1      46.945   8.022  14.759  0.00  0.00    +0.000 HD
BRANCH  19  22
ATOM     22  C   UNL     1      46.645   6.430  12.749  0.00  0.00    +0.000 A 
ATOM     23  C   UNL     1      45.841   7.390  12.147  0.00  0.00    +0.000 A 
ATOM     24  S   UNL     1      44.419   6.758  11.453  0.00  0.00    +0.000 S 
ATOM     25  C   UNL     1      44.803   5.183  11.967  0.00  0.00    +0.000 A 
ATOM     26  N   UNL     1      43.962   4.145  11.716  0.00  0.00    +0.000 NA
ATOM     27  C   UNL     1      44.355   3.013  12.197  0.00  0.00    +0.000 A 
ATOM     28  N   UNL     1      45.520   2.823  12.893  0.00  0.00    +0.000 N 
ATOM     29  C   UNL     1      46.435   3.828  13.105  0.00  0.00    +0.000 A 
ATOM     30  O   UNL     1      47.525   3.598  13.619  0.00  0.00    +0.000 OA
ATOM     31  C   UNL     1      46.017   5.135  12.633  0.00  0.00    +0.000 A 
ATOM     32  H   UNL     1      45.783   1.904  13.218  0.00  0.00    +0.000 HD
ENDBRANCH  19  22
ENDBRANCH  17  18
ENDBRANCH   5  17
TORSDOF 5
ENDMDL
MODEL 6
REMARK VINA RESULT:    -6.803      3.714      9.350
REMARK INTER + INTRA:          -9.895
REMARK INTER:                  -9.005
REMARK INTRA:                  -0.890
REMARK UNBOUND:                -1.104
REMARK  Name = 
REMARK  6 active torsions:
REMARK  status: ('A' for Active; 'I' for Inactive)
REMARK    1  A    between atoms: C_1  and  C_2
REMARK    2  A    between atoms: C_2  and  N_3
REMARK    3  A    between atoms: C_2  and  C_24
REMARK    4  A    between atoms: C_7  and  C_8
REMARK    5  A    between atoms: C_8  and  N_9
REMARK    6  A    between atoms: C_10  and  C_12
REMARK                            x       y       z     vdW  Elec       q    Type
REMARK                         _______ _______ _______ _____ _____    ______ ____
ROOT
ATOM      1  N   UNL     1      52.762   3.729  17.922  0.00  0.00    +0.000 N 
ATOM      2  C   UNL     1      51.379   3.656  17.734  0.00  0.00    +0.000 A 
ATOM      3  C   UNL     1      50.823   2.437  17.350  0.00  0.00    +0.000 A 
ATOM      4  C   UNL     1      49.458   2.347  17.076  0.00  0.00    +0.000 A 
ATOM      5  C   UNL     1      48.664   3.487  17.154  0.00  0.00    +0.000 A 
ATOM      6  C   UNL     1      49.304   4.669  17.501  0.00  0.00    +0.000 A 
ATOM      7  N   UNL     1      50.623   4.771  17.805  0.00  0.00    +0.000 NA
ATOM      8  H   UNL     1      53.168   2.843  18.201  0.00  0.00    +0.000 HD
ENDROOT
BRANCH   1  10
ATOM      9  C   UNL     1      54.055   4.218  19.957  0.00  0.00    +0.000 C 
ATOM     10  C   UNL     1      53.254   4.808  18.788  0.00  0.00    +0.000 C 
BRANCH  10  11
ATOM     11  C   UNL     1      54.120   5.752  17.947  0.00  0.00    +0.000 A 
ATOM     12  C   UNL     1      54.349   5.446  16.606  0.00  0.00    +0.000 A 
ATOM     13  C   UNL     1      55.162   6.284  15.847  0.00  0.00    +0.000 A 
ATOM     14  C   UNL     1      55.737   7.398  16.445  0.00  0.00    +0.000 A 
ATOM     15  C   UNL     1      55.477   7.626  17.785  0.00  0.00    +0.000 A 
ATOM     16  N   UNL     1      54.691   6.833  18.547  0.00  0.00    +0.000 NA
ENDBRANCH  10  11
ENDBRANCH   1  10
BRANCH   5  17
ATOM     17  C   UNL     1      47.196   3.443  16.852  0.00  0.00    +0.000 C 
BRANCH  17  18
ATOM     18  N   UNL     1      46.815   4.417  15.858  0.00  0.00    +0.000 N 
ATOM     19  C   UNL     1      46.864   4.163  14.513  0.00  0.00    +0.000 C 
ATOM     20  O   UNL     1      47.259   3.088  14.067  0.00  0.00    +0.000 OA
ATOM     21  H   UNL     1      46.632   5.361  16.183  0.00  0.00    +0.000 HD
BRANCH  19  22
ATOM     22  C   UNL     1      46.355   5.215  13.621  0.00  0.00    +0.000 A 
ATOM     23  C   UNL     1      47.130   6.345  13.389  0.00  0.00    +0.000 A 
ATOM     24  S   UNL     1      46.418   7.459  12.313  0.00  0.00    +0.000 S 
ATOM     25  C   UNL     1      45.027   6.494  12.150  0.00  0.00    +0.000 A 
ATOM     26  N   UNL     1      43.987   6.898  11.372  0.00  0.00    +0.000 NA
ATOM     27  C   UNL     1      42.979   6.091  11.371  0.00  0.00    +0.000 A 
ATOM     28  N   UNL     1      42.924   4.909  12.063  0.00  0.00    +0.000 N 
ATOM     29  C   UNL     1      43.979   4.426  12.800  0.00  0.00    +0.000 A 
ATOM     30  O   UNL     1      43.945   3.307  13.303  0.00  0.00    +0.000 OA
ATOM     31  C   UNL     1      45.118   5.321  12.882  0.00  0.00    +0.000 A 
ATOM     32  H   UNL     1      42.114   4.310  11.995  0.00  0.00    +0.000 HD
ENDBRANCH  19  22
ENDBRANCH  17  18
ENDBRANCH   5  17
TORSDOF 5
ENDMDL
MODEL 7
REMARK VINA RESULT:    -6.441      3.200      7.952
REMARK INTER + INTRA:          -9.428
REMARK INTER:                  -8.978
REMARK INTRA:                  -0.450
REMARK UNBOUND:                -1.104
REMARK  Name = 
REMARK  6 active torsions:
REMARK  status: ('A' for Active; 'I' for Inactive)
REMARK    1  A    between atoms: C_1  and  C_2
REMARK    2  A    between atoms: C_2  and  N_3
REMARK    3  A    between atoms: C_2  and  C_24
REMARK    4  A    between atoms: C_7  and  C_8
REMARK    5  A    between atoms: C_8  and  N_9
REMARK    6  A    between atoms: C_10  and  C_12
REMARK                            x       y       z     vdW  Elec       q    Type
REMARK                         _______ _______ _______ _____ _____    ______ ____
ROOT
ATOM      1  N   UNL     1      49.415   7.591  17.401  0.00  0.00    +0.000 N 
ATOM      2  C   UNL     1      49.222   7.733  16.024  0.00  0.00    +0.000 A 
ATOM      3  C   UNL     1      48.902   8.993  15.523  0.00  0.00    +0.000 A 
ATOM      4  C   UNL     1      48.625   9.155  14.165  0.00  0.00    +0.000 A 
ATOM      5  C   UNL     1      48.635   8.046  13.324  0.00  0.00    +0.000 A 
ATOM      6  C   UNL     1      48.921   6.821  13.911  0.00  0.00    +0.000 A 
ATOM      7  N   UNL     1      49.227   6.648  15.222  0.00  0.00    +0.000 NA
ATOM      8  H   UNL     1      49.744   8.443  17.842  0.00  0.00    +0.000 HD
ENDROOT
BRANCH   1  10
ATOM      9  C   UNL     1      50.691   6.660  19.287  0.00  0.00    +0.000 C 
ATOM     10  C   UNL     1      50.224   6.448  17.840  0.00  0.00    +0.000 C 
BRANCH  10  11
ATOM     11  C   UNL     1      49.377   5.176  17.714  0.00  0.00    +0.000 A 
ATOM     12  C   UNL     1      48.033   5.217  18.083  0.00  0.00    +0.000 A 
ATOM     13  C   UNL     1      47.269   4.056  18.001  0.00  0.00    +0.000 A 
ATOM     14  C   UNL     1      47.866   2.879  17.569  0.00  0.00    +0.000 A 
ATOM     15  C   UNL     1      49.209   2.912  17.237  0.00  0.00    +0.000 A 
ATOM     16  N   UNL     1      49.976   4.024  17.304  0.00  0.00    +0.000 NA
ENDBRANCH  10  11
ENDBRANCH   1  10
BRANCH   5  17
ATOM     17  C   UNL     1      48.326   8.168  11.862  0.00  0.00    +0.000 C 
BRANCH  17  18
ATOM     18  N   UNL     1      47.609   7.022  11.359  0.00  0.00    +0.000 N 
ATOM     19  C   UNL     1      46.243   6.918  11.414  0.00  0.00    +0.000 C 
ATOM     20  O   UNL     1      45.544   7.793  11.919  0.00  0.00    +0.000 OA
ATOM     21  H   UNL     1      48.161   6.218  11.078  0.00  0.00    +0.000 HD
BRANCH  19  22
ATOM     22  C   UNL     1      45.643   5.736  10.777  0.00  0.00    +0.000 A 
ATOM     23  C   UNL     1      45.806   5.542   9.411  0.00  0.00    +0.000 A 
ATOM     24  S   UNL     1      45.077   4.116   8.828  0.00  0.00    +0.000 S 
ATOM     25  C   UNL     1      44.479   3.726  10.372  0.00  0.00    +0.000 A 
ATOM     26  N   UNL     1      43.723   2.612  10.564  0.00  0.00    +0.000 NA
ATOM     27  C   UNL     1      43.300   2.459  11.774  0.00  0.00    +0.000 A 
ATOM     28  N   UNL     1      43.579   3.309  12.812  0.00  0.00    +0.000 N 
ATOM     29  C   UNL     1      44.400   4.404  12.681  0.00  0.00    +0.000 A 
ATOM     30  O   UNL     1      44.733   5.072  13.654  0.00  0.00    +0.000 OA
ATOM     31  C   UNL     1      44.857   4.656  11.326  0.00  0.00    +0.000 A 
ATOM     32  H   UNL     1      43.240   3.114  13.743  0.00  0.00    +0.000 HD
ENDBRANCH  19  22
ENDBRANCH  17  18
ENDBRANCH   5  17
TORSDOF 5
ENDMDL
MODEL 8
REMARK VINA RESULT:    -6.358      2.794      3.769
REMARK INTER + INTRA:          -9.320
REMARK INTER:                  -8.537
REMARK INTRA:                  -0.783
REMARK UNBOUND:                -1.104
REMARK  Name = 
REMARK  6 active torsions:
REMARK  status: ('A' for Active; 'I' for Inactive)
REMARK    1  A    between atoms: C_1  and  C_2
REMARK    2  A    between atoms: C_2  and  N_3
REMARK    3  A    between atoms: C_2  and  C_24
REMARK    4  A    between atoms: C_7  and  C_8
REMARK    5  A    between atoms: C_8  and  N_9
REMARK    6  A    between atoms: C_10  and  C_12
REMARK                            x       y       z     vdW  Elec       q    Type
REMARK                         _______ _______ _______ _____ _____    ______ ____
ROOT
ATOM      1  N   UNL     1      44.203   3.683   9.263  0.00  0.00    +0.000 N 
ATOM      2  C   UNL     1      44.479   4.675  10.209  0.00  0.00    +0.000 A 
ATOM      3  C   UNL     1      43.473   5.585  10.530  0.00  0.00    +0.000 A 
ATOM      4  C   UNL     1      43.737   6.636  11.410  0.00  0.00    +0.000 A 
ATOM      5  C   UNL     1      45.017   6.789  11.934  0.00  0.00    +0.000 A 
ATOM      6  C   UNL     1      45.970   5.865  11.529  0.00  0.00    +0.000 A 
ATOM      7  N   UNL     1      45.726   4.817  10.702  0.00  0.00    +0.000 NA
ATOM      8  H   UNL     1      43.222   3.431   9.232  0.00  0.00    +0.000 HD
ENDROOT
BRANCH   1  10
ATOM      9  C   UNL     1      44.146   1.225   9.346  0.00  0.00    +0.000 C 
ATOM     10  C   UNL     1      45.036   2.475   9.313  0.00  0.00    +0.000 C 
BRANCH  10  11
ATOM     11  C   UNL     1      45.956   2.466   8.086  0.00  0.00    +0.000 A 
ATOM     12  C   UNL     1      45.905   3.537   7.194  0.00  0.00    +0.000 A 
ATOM     13  C   UNL     1      46.715   3.517   6.061  0.00  0.00    +0.000 A 
ATOM     14  C   UNL     1      47.543   2.425   5.837  0.00  0.00    +0.000 A 
ATOM     15  C   UNL     1      47.526   1.393   6.759  0.00  0.00    +0.000 A 
ATOM     16  N   UNL     1      46.753   1.384   7.868  0.00  0.00    +0.000 NA
ENDBRANCH  10  11
ENDBRANCH   1  10
BRANCH   5  17
ATOM     17  C   UNL     1      45.352   7.913  12.868  0.00  0.00    +0.000 C 
BRANCH  17  18
ATOM     18  N   UNL     1      46.610   7.704  13.542  0.00  0.00    +0.000 N 
ATOM     19  C   UNL     1      47.614   8.637  13.544  0.00  0.00    +0.000 C 
ATOM     20  O   UNL     1      47.510   9.707  12.949  0.00  0.00    +0.000 OA
ATOM     21  H   UNL     1      46.789   6.775  13.911  0.00  0.00    +0.000 HD
BRANCH  19  22
ATOM     22  C   UNL     1      48.804   8.327  14.352  0.00  0.00    +0.000 A 
ATOM     23  C   UNL     1      48.659   8.078  15.710  0.00  0.00    +0.000 A 
ATOM     24  S   UNL     1      50.122   7.708  16.502  0.00  0.00    +0.000 S 
ATOM     25  C   UNL     1      51.012   7.909  15.066  0.00  0.00    +0.000 A 
ATOM     26  N   UNL     1      52.364   7.762  15.059  0.00  0.00    +0.000 NA
ATOM     27  C   UNL     1      52.917   7.983  13.914  0.00  0.00    +0.000 A 
ATOM     28  N   UNL     1      52.239   8.321  12.772  0.00  0.00    +0.000 N 
ATOM     29  C   UNL     1      50.868   8.407  12.715  0.00  0.00    +0.000 A 
ATOM     30  O   UNL     1      50.284   8.587  11.651  0.00  0.00    +0.000 OA
ATOM     31  C   UNL     1      50.199   8.223  13.990  0.00  0.00    +0.000 A 
ATOM     32  H   UNL     1      52.731   8.452  11.900  0.00  0.00    +0.000 HD
ENDBRANCH  19  22
ENDBRANCH  17  18
ENDBRANCH   5  17
TORSDOF 5
ENDMDL
MODEL 9
REMARK VINA RESULT:    -5.031     10.701     13.907
REMARK INTER + INTRA:          -7.606
REMARK INTER:                  -6.697
REMARK INTRA:                  -0.910
REMARK UNBOUND:                -1.104
REMARK  Name = 
REMARK  6 active torsions:
REMARK  status: ('A' for Active; 'I' for Inactive)
REMARK    1  A    between atoms: C_1  and  C_2
REMARK    2  A    between atoms: C_2  and  N_3
REMARK    3  A    between atoms: C_2  and  C_24
REMARK    4  A    between atoms: C_7  and  C_8
REMARK    5  A    between atoms: C_8  and  N_9
REMARK    6  A    between atoms: C_10  and  C_12
REMARK                            x       y       z     vdW  Elec       q    Type
REMARK                         _______ _______ _______ _____ _____    ______ ____
ROOT
ATOM      1  N   UNL     1      39.332  -0.868  18.300  0.00  0.00    +0.000 N 
ATOM      2  C   UNL     1      39.696  -1.612  17.174  0.00  0.00    +0.000 A 
ATOM      3  C   UNL     1      40.688  -2.583  17.310  0.00  0.00    +0.000 A 
ATOM      4  C   UNL     1      41.132  -3.288  16.191  0.00  0.00    +0.000 A 
ATOM      5  C   UNL     1      40.605  -2.993  14.937  0.00  0.00    +0.000 A 
ATOM      6  C   UNL     1      39.653  -1.984  14.884  0.00  0.00    +0.000 A 
ATOM      7  N   UNL     1      39.183  -1.310  15.964  0.00  0.00    +0.000 NA
ATOM      8  H   UNL     1      39.473  -1.373  19.168  0.00  0.00    +0.000 HD
ENDROOT
BRANCH   1  10
ATOM      9  C   UNL     1      37.204  -0.687  19.522  0.00  0.00    +0.000 C 
ATOM     10  C   UNL     1      37.999  -0.254  18.282  0.00  0.00    +0.000 C 
BRANCH  10  11
ATOM     11  C   UNL     1      38.166   1.270  18.237  0.00  0.00    +0.000 A 
ATOM     12  C   UNL     1      37.855   1.951  17.061  0.00  0.00    +0.000 A 
ATOM     13  C   UNL     1      38.036   3.331  17.006  0.00  0.00    +0.000 A 
ATOM     14  C   UNL     1      38.536   3.995  18.118  0.00  0.00    +0.000 A 
ATOM     15  C   UNL     1      38.837   3.249  19.244  0.00  0.00    +0.000 A 
ATOM     16  N   UNL     1      38.670   1.910  19.328  0.00  0.00    +0.000 NA
ENDBRANCH  10  11
ENDBRANCH   1  10
BRANCH   5  17
ATOM     17  C   UNL     1      41.064  -3.712  13.705  0.00  0.00    +0.000 C 
BRANCH  17  18
ATOM     18  N   UNL     1      40.127  -3.580  12.616  0.00  0.00    +0.000 N 
ATOM     19  C   UNL     1      40.282  -2.661  11.612  0.00  0.00    +0.000 C 
ATOM     20  O   UNL     1      41.225  -1.872  11.591  0.00  0.00    +0.000 OA
ATOM     21  H   UNL     1      39.261  -4.106  12.684  0.00  0.00    +0.000 HD
BRANCH  19  22
ATOM     22  C   UNL     1      39.301  -2.703  10.518  0.00  0.00    +0.000 A 
ATOM     23  C   UNL     1      39.330  -3.760   9.617  0.00  0.00    +0.000 A 
ATOM     24  S   UNL     1      38.114  -3.682   8.425  0.00  0.00    +0.000 S 
ATOM     25  C   UNL     1      37.528  -2.210   9.043  0.00  0.00    +0.000 A 
ATOM     26  N   UNL     1      36.486  -1.571   8.447  0.00  0.00    +0.000 NA
ATOM     27  C   UNL     1      36.170  -0.444   8.992  0.00  0.00    +0.000 A 
ATOM     28  N   UNL     1      36.792   0.093  10.089  0.00  0.00    +0.000 N 
ATOM     29  C   UNL     1      37.798  -0.552  10.768  0.00  0.00    +0.000 A 
ATOM     30  O   UNL     1      38.247  -0.106  11.819  0.00  0.00    +0.000 OA
ATOM     31  C   UNL     1      38.231  -1.799  10.163  0.00  0.00    +0.000 A 
ATOM     32  H   UNL     1      36.475   0.967  10.484  0.00  0.00    +0.000 HD
ENDBRANCH  19  22
ENDBRANCH  17  18
ENDBRANCH   5  17
TORSDOF 5
ENDMDL
