MODEL 1
REMARK VINA RESULT:    -8.808      0.000      0.000
REMARK INTER + INTRA:         -12.284
REMARK INTER:                 -11.383
REMARK INTRA:                  -0.901
REMARK UNBOUND:                -0.901
REMARK  Name = 
REMARK  5 active torsions:
REMARK  status: ('A' for Active; 'I' for Inactive)
REMARK    1  A    between atoms: C_2  and  C_4
REMARK    2  A    between atoms: C_7  and  O_8
REMARK    3  A    between atoms: O_8  and  C_9
REMARK    4  A    between atoms: C_9  and  C_10
REMARK    5  A    between atoms: C_14  and  C_15
REMARK                            x       y       z     vdW  Elec       q    Type
REMARK                         _______ _______ _______ _____ _____    ______ ____
ROOT
ATOM      1  C   UNL     1      43.690   5.332  10.875  0.00  0.00    +0.000 C 
ENDROOT
BRANCH   1   2
ATOM      2  C   UNL     1      44.817   5.233  11.865  0.00  0.00    +0.000 A 
ATOM      3  C   UNL     1      44.732   4.351  12.934  0.00  0.00    +0.000 A 
ATOM      4  N   UNL     1      45.674   4.234  13.892  0.00  0.00    +0.000 NA
ATOM      5  C   UNL     1      46.753   5.049  13.784  0.00  0.00    +0.000 A 
ATOM      6  C   UNL     1      46.951   5.997  12.779  0.00  0.00    +0.000 A 
ATOM      7  C   UNL     1      45.939   6.070  11.810  0.00  0.00    +0.000 A 
BRANCH   6   8
ATOM      8  C   UNL     1      48.125   6.892  12.746  0.00  0.00    +0.000 A 
ATOM      9  C   UNL     1      48.343   7.777  11.672  0.00  0.00    +0.000 A 
ATOM     10  C   UNL     1      49.424   8.663  11.661  0.00  0.00    +0.000 A 
ATOM     11  C   UNL     1      50.324   8.676  12.723  0.00  0.00    +0.000 A 
ATOM     12  C   UNL     1      50.138   7.800  13.787  0.00  0.00    +0.000 A 
ATOM     13 CL   UNL     1      51.245   7.809  15.105  0.00  0.00    +0.000 Cl
ATOM     14  C   UNL     1      49.053   6.919  13.802  0.00  0.00    +0.000 A 
ENDBRANCH   6   8
ENDBRANCH   1   2
BRANCH   1  15
ATOM     15  O   UNL     1      43.456   4.065  10.254  0.00  0.00    +0.000 OA
BRANCH  15  19
ATOM     16  C   UNL     1      46.369   2.429   7.754  0.00  0.00    +0.000 A 
ATOM     17  C   UNL     1      46.118   3.802   7.679  0.00  0.00    +0.000 A 
ATOM     18  C   UNL     1      45.156   4.389   8.507  0.00  0.00    +0.000 A 
ATOM     19  C   UNL     1      44.432   3.609   9.411  0.00  0.00    +0.000 A 
ATOM     20  C   UNL     1      44.684   2.236   9.484  0.00  0.00    +0.000 A 
ATOM     21  C   UNL     1      45.644   1.644   8.658  0.00  0.00    +0.000 A 
BRANCH  16  23
ATOM     22  N   UNL     1      48.449   2.506   6.486  0.00  0.00    +0.000 N 
ATOM     23  C   UNL     1      47.360   1.771   6.866  0.00  0.00    +0.000 C 
ATOM     24  O   UNL     1      47.227   0.609   6.503  0.00  0.00    +0.000 OA
ATOM     25  H   UNL     1      49.155   2.016   5.951  0.00  0.00    +0.000 HD
ATOM     26  H   UNL     1      48.724   3.355   6.957  0.00  0.00    +0.000 HD
ENDBRANCH  16  23
ENDBRANCH  15  19
ENDBRANCH   1  15
TORSDOF 5
ENDMDL
MODEL 2
REMARK VINA RESULT:    -8.749      1.203      1.328
REMARK INTER + INTRA:         -12.207
REMARK INTER:                 -11.407
REMARK INTRA:                  -0.800
REMARK UNBOUND:                -0.901
REMARK  Name = 
REMARK  5 active torsions:
REMARK  status: ('A' for Active; 'I' for Inactive)
REMARK    1  A    between atoms: C_2  and  C_4
REMARK    2  A    between atoms: C_7  and  O_8
REMARK    3  A    between atoms: O_8  and  C_9
REMARK    4  A    between atoms: C_9  and  C_10
REMARK    5  A    between atoms: C_14  and  C_15
REMARK                            x       y       z     vdW  Elec       q    Type
REMARK                         _______ _______ _______ _____ _____    ______ ____
ROOT
ATOM      1  C   UNL     1      43.410   4.796  10.918  0.00  0.00    +0.000 C 
ENDROOT
BRANCH   1   2
ATOM      2  C   UNL     1      44.610   5.073  11.779  0.00  0.00    +0.000 A 
ATOM      3  C   UNL     1      44.825   4.336  12.936  0.00  0.00    +0.000 A 
ATOM      4  N   UNL     1      45.848   4.551  13.789  0.00  0.00    +0.000 NA
ATOM      5  C   UNL     1      46.695   5.564  13.477  0.00  0.00    +0.000 A 
ATOM      6  C   UNL     1      46.579   6.398  12.363  0.00  0.00    +0.000 A 
ATOM      7  C   UNL     1      45.498   6.124  11.513  0.00  0.00    +0.000 A 
BRANCH   6   8
ATOM      8  C   UNL     1      47.506   7.519  12.106  0.00  0.00    +0.000 A 
ATOM      9  C   UNL     1      47.073   8.858  12.171  0.00  0.00    +0.000 A 
ATOM     10  C   UNL     1      47.958   9.924  11.980  0.00  0.00    +0.000 A 
ATOM     11  C   UNL     1      49.299   9.673  11.705  0.00  0.00    +0.000 A 
ATOM     12  C   UNL     1      49.746   8.359  11.621  0.00  0.00    +0.000 A 
ATOM     13 CL   UNL     1      51.403   8.040  11.283  0.00  0.00    +0.000 Cl
ATOM     14  C   UNL     1      48.864   7.293  11.818  0.00  0.00    +0.000 A 
ENDBRANCH   6   8
ENDBRANCH   1   2
BRANCH   1  15
ATOM     15  O   UNL     1      43.489   3.484  10.356  0.00  0.00    +0.000 OA
BRANCH  15  19
ATOM     16  C   UNL     1      46.431   2.617   7.525  0.00  0.00    +0.000 A 
ATOM     17  C   UNL     1      45.898   3.909   7.562  0.00  0.00    +0.000 A 
ATOM     18  C   UNL     1      44.918   4.241   8.503  0.00  0.00    +0.000 A 
ATOM     19  C   UNL     1      44.455   3.284   9.408  0.00  0.00    +0.000 A 
ATOM     20  C   UNL     1      44.989   1.992   9.369  0.00  0.00    +0.000 A 
ATOM     21  C   UNL     1      45.968   1.655   8.430  0.00  0.00    +0.000 A 
BRANCH  16  23
ATOM     22  N   UNL     1      47.453   2.906   5.332  0.00  0.00    +0.000 N 
ATOM     23  C   UNL     1      47.448   2.225   6.518  0.00  0.00    +0.000 C 
ATOM     24  O   UNL     1      48.269   1.344   6.743  0.00  0.00    +0.000 OA
ATOM     25  H   UNL     1      48.206   2.684   4.691  0.00  0.00    +0.000 HD
ATOM     26  H   UNL     1      46.979   3.788   5.208  0.00  0.00    +0.000 HD
ENDBRANCH  16  23
ENDBRANCH  15  19
ENDBRANCH   1  15
TORSDOF 5
ENDMDL
MODEL 3
REMARK VINA RESULT:    -8.722      1.432      1.653
REMARK INTER + INTRA:         -12.172
REMARK INTER:                 -11.370
REMARK INTRA:                  -0.802
REMARK UNBOUND:                -0.901
REMARK  Name = 
REMARK  5 active torsions:
REMARK  status: ('A' for Active; 'I' for Inactive)
REMARK    1  A    between atoms: C_2  and  C_4
REMARK    2  A    between atoms: C_7  and  O_8
REMARK    3  A    between atoms: O_8  and  C_9
REMARK    4  A    between atoms: C_9  and  C_10
REMARK    5  A    between atoms: C_14  and  C_15
REMARK                            x       y       z     vdW  Elec       q    Type
REMARK                         _______ _______ _______ _____ _____    ______ ____
ROOT
ATOM      1  C   UNL     1      43.483   4.896  10.987  0.00  0.00    +0.000 C 
ENDROOT
BRANCH   1   2
ATOM      2  C   UNL     1      44.685   5.045  11.876  0.00  0.00    +0.000 A 
ATOM      3  C   UNL     1      44.823   4.246  13.004  0.00  0.00    +0.000 A 
ATOM      4  N   UNL     1      45.844   4.348  13.880  0.00  0.00    +0.000 NA
ATOM      5  C   UNL     1      46.771   5.305  13.623  0.00  0.00    +0.000 A 
ATOM      6  C   UNL     1      46.739   6.190  12.544  0.00  0.00    +0.000 A 
ATOM      7  C   UNL     1      45.655   6.034  11.667  0.00  0.00    +0.000 A 
BRANCH   6   8
ATOM      8  C   UNL     1      47.752   7.246  12.348  0.00  0.00    +0.000 A 
ATOM      9  C   UNL     1      49.130   6.963  12.418  0.00  0.00    +0.000 A 
ATOM     10  C   UNL     1      50.094   7.948  12.182  0.00  0.00    +0.000 A 
ATOM     11  C   UNL     1      49.699   9.249  11.881  0.00  0.00    +0.000 A 
ATOM     12  C   UNL     1      48.343   9.555  11.821  0.00  0.00    +0.000 A 
ATOM     13 CL   UNL     1      47.846  11.160  11.448  0.00  0.00    +0.000 Cl
ATOM     14  C   UNL     1      47.380   8.570  12.050  0.00  0.00    +0.000 A 
ENDBRANCH   6   8
ENDBRANCH   1   2
BRANCH   1  15
ATOM     15  O   UNL     1      43.479   3.610  10.361  0.00  0.00    +0.000 OA
BRANCH  15  19
ATOM     16  C   UNL     1      46.426   2.660   7.564  0.00  0.00    +0.000 A 
ATOM     17  C   UNL     1      45.980   3.983   7.642  0.00  0.00    +0.000 A 
ATOM     18  C   UNL     1      45.000   4.342   8.573  0.00  0.00    +0.000 A 
ATOM     19  C   UNL     1      44.453   3.383   9.428  0.00  0.00    +0.000 A 
ATOM     20  C   UNL     1      44.901   2.061   9.348  0.00  0.00    +0.000 A 
ATOM     21  C   UNL     1      45.879   1.696   8.419  0.00  0.00    +0.000 A 
BRANCH  16  23
ATOM     22  N   UNL     1      47.464   2.912   5.373  0.00  0.00    +0.000 N 
ATOM     23  C   UNL     1      47.440   2.241   6.564  0.00  0.00    +0.000 C 
ATOM     24  O   UNL     1      48.244   1.346   6.800  0.00  0.00    +0.000 OA
ATOM     25  H   UNL     1      48.215   2.671   4.738  0.00  0.00    +0.000 HD
ATOM     26  H   UNL     1      47.007   3.802   5.240  0.00  0.00    +0.000 HD
ENDBRANCH  16  23
ENDBRANCH  15  19
ENDBRANCH   1  15
TORSDOF 5
ENDMDL
MODEL 4
REMARK VINA RESULT:    -8.325      1.266      1.509
REMARK INTER + INTRA:         -11.658
REMARK INTER:                 -10.842
REMARK INTRA:                  -0.816
REMARK UNBOUND:                -0.901
REMARK  Name = 
REMARK  5 active torsions:
REMARK  status: ('A' for Active; 'I' for Inactive)
REMARK    1  A    between atoms: C_2  and  C_4
REMARK    2  A    between atoms: C_7  and  O_8
REMARK    3  A    between atoms: O_8  and  C_9
REMARK    4  A    between atoms: C_9  and  C_10
REMARK    5  A    between atoms: C_14  and  C_15
REMARK                            x       y       z     vdW  Elec       q    Type
REMARK                         _______ _______ _______ _____ _____    ______ ____
ROOT
ATOM      1  C   UNL     1      44.141   3.688  11.658  0.00  0.00    +0.000 C 
ENDROOT
BRANCH   1   2
ATOM      2  C   UNL     1      44.599   5.115  11.773  0.00  0.00    +0.000 A 
ATOM      3  C   UNL     1      43.723   6.155  11.486  0.00  0.00    +0.000 A 
ATOM      4  N   UNL     1      44.066   7.459  11.516  0.00  0.00    +0.000 NA
ATOM      5  C   UNL     1      45.353   7.741  11.838  0.00  0.00    +0.000 A 
ATOM      6  C   UNL     1      46.340   6.795  12.121  0.00  0.00    +0.000 A 
ATOM      7  C   UNL     1      45.923   5.456  12.076  0.00  0.00    +0.000 A 
BRANCH   6   8
ATOM      8  C   UNL     1      47.739   7.165  12.414  0.00  0.00    +0.000 A 
ATOM      9  C   UNL     1      48.557   7.771  11.440  0.00  0.00    +0.000 A 
ATOM     10  C   UNL     1      49.866   8.169  11.729  0.00  0.00    +0.000 A 
ATOM     11  C   UNL     1      50.393   7.959  13.000  0.00  0.00    +0.000 A 
ATOM     12  C   UNL     1      49.609   7.348  13.972  0.00  0.00    +0.000 A 
ATOM     13 CL   UNL     1      50.252   7.086  15.547  0.00  0.00    +0.000 Cl
ATOM     14  C   UNL     1      48.299   6.956  13.688  0.00  0.00    +0.000 A 
ENDBRANCH   6   8
ENDBRANCH   1   2
BRANCH   1  15
ATOM     15  O   UNL     1      43.670   3.418  10.336  0.00  0.00    +0.000 OA
BRANCH  15  19
ATOM     16  C   UNL     1      46.563   2.642   7.430  0.00  0.00    +0.000 A 
ATOM     17  C   UNL     1      46.102   3.954   7.581  0.00  0.00    +0.000 A 
ATOM     18  C   UNL     1      45.140   4.255   8.551  0.00  0.00    +0.000 A 
ATOM     19  C   UNL     1      44.625   3.249   9.370  0.00  0.00    +0.000 A 
ATOM     20  C   UNL     1      45.087   1.939   9.217  0.00  0.00    +0.000 A 
ATOM     21  C   UNL     1      46.048   1.632   8.250  0.00  0.00    +0.000 A 
BRANCH  16  23
ATOM     22  N   UNL     1      47.512   2.976   5.210  0.00  0.00    +0.000 N 
ATOM     23  C   UNL     1      47.559   2.285   6.389  0.00  0.00    +0.000 C 
ATOM     24  O   UNL     1      48.408   1.423   6.580  0.00  0.00    +0.000 OA
ATOM     25  H   UNL     1      48.250   2.779   4.545  0.00  0.00    +0.000 HD
ATOM     26  H   UNL     1      47.012   3.848   5.109  0.00  0.00    +0.000 HD
ENDBRANCH  16  23
ENDBRANCH  15  19
ENDBRANCH   1  15
TORSDOF 5
ENDMDL
MODEL 5
REMARK VINA RESULT:    -7.952      3.874      7.297
REMARK INTER + INTRA:         -11.177
REMARK INTER:                 -10.700
REMARK INTRA:                  -0.476
REMARK UNBOUND:                -0.901
REMARK  Name = 
REMARK  5 active torsions:
REMARK  status: ('A' for Active; 'I' for Inactive)
REMARK    1  A    between atoms: C_2  and  C_4
REMARK    2  A    between atoms: C_7  and  O_8
REMARK    3  A    between atoms: O_8  and  C_9
REMARK    4  A    between atoms: C_9  and  C_10
REMARK    5  A    between atoms: C_14  and  C_15
REMARK                            x       y       z     vdW  Elec       q    Type
REMARK                         _______ _______ _______ _____ _____    ______ ____
ROOT
ATOM      1  C   UNL     1      45.933   7.192  11.772  0.00  0.00    +0.000 C 
ENDROOT
BRANCH   1   2
ATOM      2  C   UNL     1      45.202   6.148  10.974  0.00  0.00    +0.000 A 
ATOM      3  C   UNL     1      43.870   5.865  11.247  0.00  0.00    +0.000 A 
ATOM      4  N   UNL     1      43.156   4.913  10.613  0.00  0.00    +0.000 NA
ATOM      5  C   UNL     1      43.808   4.196   9.664  0.00  0.00    +0.000 A 
ATOM      6  C   UNL     1      45.150   4.358   9.311  0.00  0.00    +0.000 A 
ATOM      7  C   UNL     1      45.839   5.365  10.003  0.00  0.00    +0.000 A 
BRANCH   6   8
ATOM      8  C   UNL     1      45.818   3.509   8.304  0.00  0.00    +0.000 A 
ATOM      9  C   UNL     1      46.445   4.068   7.174  0.00  0.00    +0.000 A 
ATOM     10  C   UNL     1      47.124   3.273   6.244  0.00  0.00    +0.000 A 
ATOM     11  C   UNL     1      47.180   1.893   6.420  0.00  0.00    +0.000 A 
ATOM     12  C   UNL     1      46.553   1.318   7.520  0.00  0.00    +0.000 A 
ATOM     13 CL   UNL     1      46.619  -0.388   7.745  0.00  0.00    +0.000 Cl
ATOM     14  C   UNL     1      45.881   2.112   8.453  0.00  0.00    +0.000 A 
ENDBRANCH   6   8
ENDBRANCH   1   2
BRANCH   1  15
ATOM     15  O   UNL     1      47.244   6.734  12.111  0.00  0.00    +0.000 OA
BRANCH  15  19
ATOM     16  C   UNL     1      47.526   4.578  15.673  0.00  0.00    +0.000 A 
ATOM     17  C   UNL     1      48.180   5.810  15.583  0.00  0.00    +0.000 A 
ATOM     18  C   UNL     1      48.102   6.566  14.410  0.00  0.00    +0.000 A 
ATOM     19  C   UNL     1      47.376   6.096  13.314  0.00  0.00    +0.000 A 
ATOM     20  C   UNL     1      46.723   4.863  13.405  0.00  0.00    +0.000 A 
ATOM     21  C   UNL     1      46.799   4.103  14.575  0.00  0.00    +0.000 A 
BRANCH  16  23
ATOM     22  N   UNL     1      48.836   3.649  17.505  0.00  0.00    +0.000 N 
ATOM     23  C   UNL     1      47.617   3.737  16.892  0.00  0.00    +0.000 C 
ATOM     24  O   UNL     1      46.638   3.160  17.351  0.00  0.00    +0.000 OA
ATOM     25  H   UNL     1      48.862   3.142  18.382  0.00  0.00    +0.000 HD
ATOM     26  H   UNL     1      49.588   4.297  17.318  0.00  0.00    +0.000 HD
ENDBRANCH  16  23
ENDBRANCH  15  19
ENDBRANCH   1  15
TORSDOF 5
ENDMDL
MODEL 6
REMARK VINA RESULT:    -7.571      3.788      7.167
REMARK INTER + INTRA:         -10.684
REMARK INTER:                  -9.905
REMARK INTRA:                  -0.779
REMARK UNBOUND:                -0.901
REMARK  Name = 
REMARK  5 active torsions:
REMARK  status: ('A' for Active; 'I' for Inactive)
REMARK    1  A    between atoms: C_2  and  C_4
REMARK    2  A    between atoms: C_7  and  O_8
REMARK    3  A    between atoms: O_8  and  C_9
REMARK    4  A    between atoms: C_9  and  C_10
REMARK    5  A    between atoms: C_14  and  C_15
REMARK                            x       y       z     vdW  Elec       q    Type
REMARK                         _______ _______ _______ _____ _____    ______ ____
ROOT
ATOM      1  C   UNL     1      44.062   7.112  11.517  0.00  0.00    +0.000 C 
ENDROOT
BRANCH   1   2
ATOM      2  C   UNL     1      43.969   5.657  11.150  0.00  0.00    +0.000 A 
ATOM      3  C   UNL     1      43.191   4.793  11.910  0.00  0.00    +0.000 A 
ATOM      4  N   UNL     1      43.091   3.468  11.679  0.00  0.00    +0.000 NA
ATOM      5  C   UNL     1      43.814   2.976  10.642  0.00  0.00    +0.000 A 
ATOM      6  C   UNL     1      44.655   3.726   9.817  0.00  0.00    +0.000 A 
ATOM      7  C   UNL     1      44.716   5.098  10.105  0.00  0.00    +0.000 A 
BRANCH   6   8
ATOM      8  C   UNL     1      45.458   3.122   8.735  0.00  0.00    +0.000 A 
ATOM      9  C   UNL     1      46.053   3.914   7.733  0.00  0.00    +0.000 A 
ATOM     10  C   UNL     1      46.857   3.352   6.737  0.00  0.00    +0.000 A 
ATOM     11  C   UNL     1      47.075   1.978   6.712  0.00  0.00    +0.000 A 
ATOM     12  C   UNL     1      46.485   1.174   7.682  0.00  0.00    +0.000 A 
ATOM     13 CL   UNL     1      46.750  -0.526   7.659  0.00  0.00    +0.000 Cl
ATOM     14  C   UNL     1      45.687   1.735   8.682  0.00  0.00    +0.000 A 
ENDBRANCH   6   8
ENDBRANCH   1   2
BRANCH   1  15
ATOM     15  O   UNL     1      45.338   7.640  11.148  0.00  0.00    +0.000 OA
BRANCH  15  19
ATOM     16  C   UNL     1      48.399   7.481  13.981  0.00  0.00    +0.000 A 
ATOM     17  C   UNL     1      47.422   8.474  14.106  0.00  0.00    +0.000 A 
ATOM     18  C   UNL     1      46.375   8.553  13.182  0.00  0.00    +0.000 A 
ATOM     19  C   UNL     1      46.300   7.649  12.121  0.00  0.00    +0.000 A 
ATOM     20  C   UNL     1      47.278   6.657  11.997  0.00  0.00    +0.000 A 
ATOM     21  C   UNL     1      48.327   6.574  12.917  0.00  0.00    +0.000 A 
BRANCH  16  23
ATOM     22  N   UNL     1      50.285   8.521  15.121  0.00  0.00    +0.000 N 
ATOM     23  C   UNL     1      49.540   7.391  14.926  0.00  0.00    +0.000 C 
ATOM     24  O   UNL     1      49.795   6.356  15.529  0.00  0.00    +0.000 OA
ATOM     25  H   UNL     1      51.005   8.466  15.831  0.00  0.00    +0.000 HD
ATOM     26  H   UNL     1      49.963   9.439  14.852  0.00  0.00    +0.000 HD
ENDBRANCH  16  23
ENDBRANCH  15  19
ENDBRANCH   1  15
TORSDOF 5
ENDMDL
MODEL 7
REMARK VINA RESULT:    -7.204      3.830      7.181
REMARK INTER + INTRA:         -10.210
REMARK INTER:                  -9.448
REMARK INTRA:                  -0.761
REMARK UNBOUND:                -0.901
REMARK  Name = 
REMARK  5 active torsions:
REMARK  status: ('A' for Active; 'I' for Inactive)
REMARK    1  A    between atoms: C_2  and  C_4
REMARK    2  A    between atoms: C_7  and  O_8
REMARK    3  A    between atoms: O_8  and  C_9
REMARK    4  A    between atoms: C_9  and  C_10
REMARK    5  A    between atoms: C_14  and  C_15
REMARK                            x       y       z     vdW  Elec       q    Type
REMARK                         _______ _______ _______ _____ _____    ______ ____
ROOT
ATOM      1  C   UNL     1      44.739   6.250  12.897  0.00  0.00    +0.000 C 
ENDROOT
BRANCH   1   2
ATOM      2  C   UNL     1      44.382   5.036  12.087  0.00  0.00    +0.000 A 
ATOM      3  C   UNL     1      43.397   4.164  12.532  0.00  0.00    +0.000 A 
ATOM      4  N   UNL     1      43.049   3.028  11.892  0.00  0.00    +0.000 NA
ATOM      5  C   UNL     1      43.729   2.742  10.753  0.00  0.00    +0.000 A 
ATOM      6  C   UNL     1      44.757   3.515  10.210  0.00  0.00    +0.000 A 
ATOM      7  C   UNL     1      45.072   4.684  10.919  0.00  0.00    +0.000 A 
BRANCH   6   8
ATOM      8  C   UNL     1      45.495   3.121   8.993  0.00  0.00    +0.000 A 
ATOM      9  C   UNL     1      45.967   4.083   8.078  0.00  0.00    +0.000 A 
ATOM     10  C   UNL     1      46.711   3.718   6.951  0.00  0.00    +0.000 A 
ATOM     11  C   UNL     1      46.990   2.377   6.707  0.00  0.00    +0.000 A 
ATOM     12  C   UNL     1      46.520   1.409   7.588  0.00  0.00    +0.000 A 
ATOM     13 CL   UNL     1      46.862  -0.252   7.294  0.00  0.00    +0.000 Cl
ATOM     14  C   UNL     1      45.783   1.772   8.718  0.00  0.00    +0.000 A 
ENDBRANCH   6   8
ENDBRANCH   1   2
BRANCH   1  15
ATOM     15  O   UNL     1      45.258   7.281  12.052  0.00  0.00    +0.000 OA
BRANCH  15  19
ATOM     16  C   UNL     1      49.163   8.502  12.871  0.00  0.00    +0.000 A 
ATOM     17  C   UNL     1      48.958   7.539  11.878  0.00  0.00    +0.000 A 
ATOM     18  C   UNL     1      47.663   7.111  11.569  0.00  0.00    +0.000 A 
ATOM     19  C   UNL     1      46.564   7.635  12.253  0.00  0.00    +0.000 A 
ATOM     20  C   UNL     1      46.772   8.598  13.245  0.00  0.00    +0.000 A 
ATOM     21  C   UNL     1      48.064   9.028  13.558  0.00  0.00    +0.000 A 
BRANCH  16  23
ATOM     22  N   UNL     1      51.446   7.987  13.551  0.00  0.00    +0.000 N 
ATOM     23  C   UNL     1      50.527   8.953  13.245  0.00  0.00    +0.000 C 
ATOM     24  O   UNL     1      50.832  10.139  13.257  0.00  0.00    +0.000 OA
ATOM     25  H   UNL     1      52.392   8.307  13.721  0.00  0.00    +0.000 HD
ATOM     26  H   UNL     1      51.317   7.016  13.308  0.00  0.00    +0.000 HD
ENDBRANCH  16  23
ENDBRANCH  15  19
ENDBRANCH   1  15
TORSDOF 5
ENDMDL
MODEL 8
REMARK VINA RESULT:    -7.104      2.159      3.375
REMARK INTER + INTRA:         -10.081
REMARK INTER:                  -9.494
REMARK INTRA:                  -0.586
REMARK UNBOUND:                -0.901
REMARK  Name = 
REMARK  5 active torsions:
REMARK  status: ('A' for Active; 'I' for Inactive)
REMARK    1  A    between atoms: C_2  and  C_4
REMARK    2  A    between atoms: C_7  and  O_8
REMARK    3  A    between atoms: O_8  and  C_9
REMARK    4  A    between atoms: C_9  and  C_10
REMARK    5  A    between atoms: C_14  and  C_15
REMARK                            x       y       z     vdW  Elec       q    Type
REMARK                         _______ _______ _______ _____ _____    ______ ____
ROOT
ATOM      1  C   UNL     1      44.786   5.990  11.074  0.00  0.00    +0.000 C 
ENDROOT
BRANCH   1   2
ATOM      2  C   UNL     1      46.025   6.253  11.884  0.00  0.00    +0.000 A 
ATOM      3  C   UNL     1      47.051   7.029  11.360  0.00  0.00    +0.000 A 
ATOM      4  N   UNL     1      48.214   7.273  11.998  0.00  0.00    +0.000 NA
ATOM      5  C   UNL     1      48.366   6.703  13.219  0.00  0.00    +0.000 A 
ATOM      6  C   UNL     1      47.429   5.881  13.849  0.00  0.00    +0.000 A 
ATOM      7  C   UNL     1      46.240   5.666  13.137  0.00  0.00    +0.000 A 
BRANCH   6   8
ATOM      8  C   UNL     1      47.677   5.246  15.159  0.00  0.00    +0.000 A 
ATOM      9  C   UNL     1      47.148   3.979  15.472  0.00  0.00    +0.000 A 
ATOM     10  C   UNL     1      47.423   3.351  16.692  0.00  0.00    +0.000 A 
ATOM     11  C   UNL     1      48.226   3.985  17.635  0.00  0.00    +0.000 A 
ATOM     12  C   UNL     1      48.747   5.244  17.354  0.00  0.00    +0.000 A 
ATOM     13 CL   UNL     1      49.742   6.035  18.514  0.00  0.00    +0.000 Cl
ATOM     14  C   UNL     1      48.479   5.869  16.133  0.00  0.00    +0.000 A 
ENDBRANCH   6   8
ENDBRANCH   1   2
BRANCH   1  15
ATOM     15  O   UNL     1      44.537   4.585  10.983  0.00  0.00    +0.000 OA
BRANCH  15  19
ATOM     16  C   UNL     1      46.367   2.825   7.671  0.00  0.00    +0.000 A 
ATOM     17  C   UNL     1      45.750   1.996   8.613  0.00  0.00    +0.000 A 
ATOM     18  C   UNL     1      45.118   2.549   9.731  0.00  0.00    +0.000 A 
ATOM     19  C   UNL     1      45.104   3.932   9.922  0.00  0.00    +0.000 A 
ATOM     20  C   UNL     1      45.722   4.759   8.979  0.00  0.00    +0.000 A 
ATOM     21  C   UNL     1      46.356   4.211   7.861  0.00  0.00    +0.000 A 
BRANCH  16  23
ATOM     22  N   UNL     1      46.731   2.758   5.262  0.00  0.00    +0.000 N 
ATOM     23  C   UNL     1      47.075   2.267   6.492  0.00  0.00    +0.000 C 
ATOM     24  O   UNL     1      47.949   1.417   6.609  0.00  0.00    +0.000 OA
ATOM     25  H   UNL     1      47.282   2.429   4.478  0.00  0.00    +0.000 HD
ATOM     26  H   UNL     1      46.218   3.619   5.144  0.00  0.00    +0.000 HD
ENDBRANCH  16  23
ENDBRANCH  15  19
ENDBRANCH   1  15
TORSDOF 5
ENDMDL
MODEL 9
REMARK VINA RESULT:    -6.320      3.346      5.356
REMARK INTER + INTRA:          -9.068
REMARK INTER:                  -8.287
REMARK INTRA:                  -0.780
REMARK UNBOUND:                -0.901
REMARK  Name = 
REMARK  5 active torsions:
REMARK  status: ('A' for Active; 'I' for Inactive)
REMARK    1  A    between atoms: C_2  and  C_4
REMARK    2  A    between atoms: C_7  and  O_8
REMARK    3  A    between atoms: O_8  and  C_9
REMARK    4  A    between atoms: C_9  and  C_10
REMARK    5  A    between atoms: C_14  and  C_15
REMARK                            x       y       z     vdW  Elec       q    Type
REMARK                         _______ _______ _______ _____ _____    ______ ____
ROOT
ATOM      1  C   UNL     1      48.078   7.566  11.707  0.00  0.00    +0.000 C 
ENDROOT
BRANCH   1   2
ATOM      2  C   UNL     1      48.906   7.587  12.961  0.00  0.00    +0.000 A 
ATOM      3  C   UNL     1      50.185   8.130  12.945  0.00  0.00    +0.000 A 
ATOM      4  N   UNL     1      51.011   8.145  14.011  0.00  0.00    +0.000 NA
ATOM      5  C   UNL     1      50.542   7.578  15.150  0.00  0.00    +0.000 A 
ATOM      6  C   UNL     1      49.291   6.975  15.296  0.00  0.00    +0.000 A 
ATOM      7  C   UNL     1      48.476   6.992  14.154  0.00  0.00    +0.000 A 
BRANCH   6   8
ATOM      8  C   UNL     1      48.858   6.328  16.550  0.00  0.00    +0.000 A 
ATOM      9  C   UNL     1      48.923   7.004  17.785  0.00  0.00    +0.000 A 
ATOM     10  C   UNL     1      48.466   6.414  18.968  0.00  0.00    +0.000 A 
ATOM     11  C   UNL     1      47.943   5.125  18.945  0.00  0.00    +0.000 A 
ATOM     12  C   UNL     1      47.884   4.432  17.740  0.00  0.00    +0.000 A 
ATOM     13 CL   UNL     1      47.237   2.837  17.702  0.00  0.00    +0.000 Cl
ATOM     14  C   UNL     1      48.333   5.023  16.556  0.00  0.00    +0.000 A 
ENDBRANCH   6   8
ENDBRANCH   1   2
BRANCH   1  15
ATOM     15  O   UNL     1      46.685   7.614  12.027  0.00  0.00    +0.000 OA
BRANCH  15  19
ATOM     16  C   UNL     1      44.616   4.066  11.284  0.00  0.00    +0.000 A 
ATOM     17  C   UNL     1      44.704   4.527  12.602  0.00  0.00    +0.000 A 
ATOM     18  C   UNL     1      45.380   5.716  12.889  0.00  0.00    +0.000 A 
ATOM     19  C   UNL     1      45.982   6.451  11.866  0.00  0.00    +0.000 A 
ATOM     20  C   UNL     1      45.894   5.989  10.549  0.00  0.00    +0.000 A 
ATOM     21  C   UNL     1      45.219   4.800  10.257  0.00  0.00    +0.000 A 
BRANCH  16  23
ATOM     22  N   UNL     1      44.425   2.071   9.897  0.00  0.00    +0.000 N 
ATOM     23  C   UNL     1      43.934   2.791  10.951  0.00  0.00    +0.000 C 
ATOM     24  O   UNL     1      42.982   2.381  11.605  0.00  0.00    +0.000 OA
ATOM     25  H   UNL     1      44.003   1.165   9.737  0.00  0.00    +0.000 HD
ATOM     26  H   UNL     1      45.341   2.235   9.506  0.00  0.00    +0.000 HD
ENDBRANCH  16  23
ENDBRANCH  15  19
ENDBRANCH   1  15
TORSDOF 5
ENDMDL
