MODEL 1
REMARK VINA RESULT:    -7.276      0.000      0.000
REMARK INTER + INTRA:          -9.378
REMARK INTER:                  -9.403
REMARK INTRA:                   0.025
REMARK UNBOUND:                 0.025
REMARK  Name = 
REMARK  6 active torsions:
REMARK  status: ('A' for Active; 'I' for Inactive)
REMARK    1  A    between atoms: N_1  and  C_2
REMARK    2  A    between atoms: C_2  and  C_3
REMARK    3  A    between atoms: C_5  and  C_6
REMARK    4  A    between atoms: C_6  and  N_7
REMARK    5  A    between atoms: C_12  and  C_13
REMARK    6  A    between atoms: C_13  and  O_15
REMARK                            x       y       z     vdW  Elec       q    Type
REMARK                         _______ _______ _______ _____ _____    ______ ____
ROOT
ATOM      1  N   UNL     1      44.155   4.383  10.566  0.00  0.00    +0.000 N 
ATOM      2  C   UNL     1      43.620   3.246  11.121  0.00  0.00    +0.000 A 
ATOM      3  C   UNL     1      44.110   2.162  10.422  0.00  0.00    +0.000 A 
ATOM      4  C   UNL     1      44.978   2.657   9.413  0.00  0.00    +0.000 A 
ATOM      5  C   UNL     1      45.721   2.078   8.368  0.00  0.00    +0.000 A 
ATOM      6  C   UNL     1      46.460   2.936   7.549  0.00  0.00    +0.000 A 
ATOM      7  C   UNL     1      46.433   4.305   7.809  0.00  0.00    +0.000 A 
ATOM      8  N   UNL     1      45.741   4.907   8.808  0.00  0.00    +0.000 NA
ATOM      9  C   UNL     1      45.025   4.041   9.558  0.00  0.00    +0.000 A 
ENDROOT
BRANCH   6  10
ATOM     10  C   UNL     1      47.219   2.473   6.368  0.00  0.00    +0.000 C 
ATOM     11  O   UNL     1      47.856   1.435   6.365  0.00  0.00    +0.000 OA
BRANCH  10  12
ATOM     12  O   UNL     1      47.129   3.282   5.291  0.00  0.00    +0.000 OA
ATOM     13  H   UNL     1      46.610   4.096   5.410  0.00  0.00    +0.000 HD
ENDBRANCH  10  12
ENDBRANCH   6  10
BRANCH   1  14
ATOM     14  C   UNL     1      43.834   5.740  10.977  0.00  0.00    +0.000 C 
BRANCH  14  17
ATOM     15  C   UNL     1      46.614   6.464  12.016  0.00  0.00    +0.000 C 
ATOM     16  C   UNL     1      45.359   7.202  12.451  0.00  0.00    +0.000 C 
ATOM     17  C   UNL     1      44.320   6.095  12.397  0.00  0.00    +0.000 C 
ATOM     18  C   UNL     1      45.132   4.943  12.986  0.00  0.00    +0.000 C 
ATOM     19  O   UNL     1      46.510   5.154  12.620  0.00  0.00    +0.000 OA
BRANCH  15  20
ATOM     20  C   UNL     1      47.936   7.157  12.371  0.00  0.00    +0.000 C 
BRANCH  20  21
ATOM     21  N   UNL     1      48.917   6.254  12.979  0.00  0.00    +0.000 NA
ATOM     22  H   UNL     1      49.563   5.937  12.259  0.00  0.00    +0.000 HD
ATOM     23  H   UNL     1      48.413   5.425  13.300  0.00  0.00    +0.000 HD
ENDBRANCH  20  21
ENDBRANCH  15  20
ENDBRANCH  14  17
ENDBRANCH   1  14
TORSDOF 6
ENDMDL
MODEL 2
REMARK VINA RESULT:    -7.079      2.201      6.247
REMARK INTER + INTRA:          -9.123
REMARK INTER:                  -8.666
REMARK INTRA:                  -0.457
REMARK UNBOUND:                 0.025
REMARK  Name = 
REMARK  6 active torsions:
REMARK  status: ('A' for Active; 'I' for Inactive)
REMARK    1  A    between atoms: N_1  and  C_2
REMARK    2  A    between atoms: C_2  and  C_3
REMARK    3  A    between atoms: C_5  and  C_6
REMARK    4  A    between atoms: C_6  and  N_7
REMARK    5  A    between atoms: C_12  and  C_13
REMARK    6  A    between atoms: C_13  and  O_15
REMARK                            x       y       z     vdW  Elec       q    Type
REMARK                         _______ _______ _______ _____ _____    ______ ____
ROOT
ATOM      1  N   UNL     1      44.421   4.321  10.950  0.00  0.00    +0.000 N 
ATOM      2  C   UNL     1      43.066   4.481  11.114  0.00  0.00    +0.000 A 
ATOM      3  C   UNL     1      42.849   5.732  11.653  0.00  0.00    +0.000 A 
ATOM      4  C   UNL     1      44.113   6.357  11.814  0.00  0.00    +0.000 A 
ATOM      5  C   UNL     1      44.558   7.580  12.349  0.00  0.00    +0.000 A 
ATOM      6  C   UNL     1      45.935   7.825  12.343  0.00  0.00    +0.000 A 
ATOM      7  C   UNL     1      46.788   6.863  11.808  0.00  0.00    +0.000 A 
ATOM      8  N   UNL     1      46.406   5.675  11.275  0.00  0.00    +0.000 NA
ATOM      9  C   UNL     1      45.071   5.474  11.322  0.00  0.00    +0.000 A 
ENDROOT
BRANCH   6  10
ATOM     10  C   UNL     1      46.544   9.030  12.944  0.00  0.00    +0.000 C 
ATOM     11  O   UNL     1      46.798  10.028  12.295  0.00  0.00    +0.000 OA
BRANCH  10  12
ATOM     12  O   UNL     1      46.773   8.939  14.272  0.00  0.00    +0.000 OA
ATOM     13  H   UNL     1      47.625   9.289  14.584  0.00  0.00    +0.000 HD
ENDBRANCH  10  12
ENDBRANCH   6  10
BRANCH   1  14
ATOM     14  C   UNL     1      45.063   3.109  10.469  0.00  0.00    +0.000 C 
BRANCH  14  17
ATOM     15  C   UNL     1      46.533   1.973   8.043  0.00  0.00    +0.000 C 
ATOM     16  C   UNL     1      45.232   1.385   8.563  0.00  0.00    +0.000 C 
ATOM     17  C   UNL     1      44.534   2.620   9.106  0.00  0.00    +0.000 C 
ATOM     18  C   UNL     1      44.881   3.622   8.007  0.00  0.00    +0.000 C 
ATOM     19  O   UNL     1      46.168   3.252   7.475  0.00  0.00    +0.000 OA
BRANCH  15  20
ATOM     20  C   UNL     1      47.294   1.096   7.041  0.00  0.00    +0.000 C 
BRANCH  20  21
ATOM     21  N   UNL     1      48.348   1.818   6.324  0.00  0.00    +0.000 NA
ATOM     22  H   UNL     1      48.367   1.498   5.358  0.00  0.00    +0.000 HD
ATOM     23  H   UNL     1      49.241   1.544   6.736  0.00  0.00    +0.000 HD
ENDBRANCH  20  21
ENDBRANCH  15  20
ENDBRANCH  14  17
ENDBRANCH   1  14
TORSDOF 6
ENDMDL
MODEL 3
REMARK VINA RESULT:    -6.475      4.412      5.951
REMARK INTER + INTRA:          -8.342
REMARK INTER:                  -7.889
REMARK INTRA:                  -0.453
REMARK UNBOUND:                 0.025
REMARK  Name = 
REMARK  6 active torsions:
REMARK  status: ('A' for Active; 'I' for Inactive)
REMARK    1  A    between atoms: N_1  and  C_2
REMARK    2  A    between atoms: C_2  and  C_3
REMARK    3  A    between atoms: C_5  and  C_6
REMARK    4  A    between atoms: C_6  and  N_7
REMARK    5  A    between atoms: C_12  and  C_13
REMARK    6  A    between atoms: C_13  and  O_15
REMARK                            x       y       z     vdW  Elec       q    Type
REMARK                         _______ _______ _______ _____ _____    ______ ____
ROOT
ATOM      1  N   UNL     1      47.522   5.222  14.556  0.00  0.00    +0.000 N 
ATOM      2  C   UNL     1      47.899   6.525  14.337  0.00  0.00    +0.000 A 
ATOM      3  C   UNL     1      47.246   6.972  13.207  0.00  0.00    +0.000 A 
ATOM      4  C   UNL     1      46.440   5.907  12.726  0.00  0.00    +0.000 A 
ATOM      5  C   UNL     1      45.603   5.716  11.611  0.00  0.00    +0.000 A 
ATOM      6  C   UNL     1      44.980   4.473  11.476  0.00  0.00    +0.000 A 
ATOM      7  C   UNL     1      45.206   3.497  12.444  0.00  0.00    +0.000 A 
ATOM      8  N   UNL     1      45.996   3.637  13.538  0.00  0.00    +0.000 NA
ATOM      9  C   UNL     1      46.594   4.845  13.614  0.00  0.00    +0.000 A 
ENDROOT
BRANCH   6  10
ATOM     10  C   UNL     1      44.140   4.111  10.314  0.00  0.00    +0.000 C 
ATOM     11  O   UNL     1      44.012   2.962   9.933  0.00  0.00    +0.000 OA
BRANCH  10  12
ATOM     12  O   UNL     1      43.514   5.154   9.729  0.00  0.00    +0.000 OA
ATOM     13  H   UNL     1      42.608   5.335  10.035  0.00  0.00    +0.000 HD
ENDBRANCH  10  12
ENDBRANCH   6  10
BRANCH   1  14
ATOM     14  C   UNL     1      48.042   4.373  15.614  0.00  0.00    +0.000 C 
BRANCH  14  17
ATOM     15  C   UNL     1      48.738   4.363  18.589  0.00  0.00    +0.000 C 
ATOM     16  C   UNL     1      47.592   5.181  18.019  0.00  0.00    +0.000 C 
ATOM     17  C   UNL     1      47.139   4.306  16.862  0.00  0.00    +0.000 C 
ATOM     18  C   UNL     1      47.238   2.931  17.519  0.00  0.00    +0.000 C 
ATOM     19  O   UNL     1      48.311   2.986  18.480  0.00  0.00    +0.000 OA
BRANCH  15  20
ATOM     20  C   UNL     1      49.150   4.724  20.022  0.00  0.00    +0.000 C 
BRANCH  20  21
ATOM     21  N   UNL     1      48.332   4.064  21.043  0.00  0.00    +0.000 NA
ATOM     22  H   UNL     1      48.793   4.158  21.945  0.00  0.00    +0.000 HD
ATOM     23  H   UNL     1      48.319   3.066  20.826  0.00  0.00    +0.000 HD
ENDBRANCH  20  21
ENDBRANCH  15  20
ENDBRANCH  14  17
ENDBRANCH   1  14
TORSDOF 6
ENDMDL
MODEL 4
REMARK VINA RESULT:    -6.414      2.187      6.258
REMARK INTER + INTRA:          -8.263
REMARK INTER:                  -7.978
REMARK INTRA:                  -0.285
REMARK UNBOUND:                 0.025
REMARK  Name = 
REMARK  6 active torsions:
REMARK  status: ('A' for Active; 'I' for Inactive)
REMARK    1  A    between atoms: N_1  and  C_2
REMARK    2  A    between atoms: C_2  and  C_3
REMARK    3  A    between atoms: C_5  and  C_6
REMARK    4  A    between atoms: C_6  and  N_7
REMARK    5  A    between atoms: C_12  and  C_13
REMARK    6  A    between atoms: C_13  and  O_15
REMARK                            x       y       z     vdW  Elec       q    Type
REMARK                         _______ _______ _______ _____ _____    ______ ____
ROOT
ATOM      1  N   UNL     1      45.259   4.406  10.967  0.00  0.00    +0.000 N 
ATOM      2  C   UNL     1      44.651   3.438  11.729  0.00  0.00    +0.000 A 
ATOM      3  C   UNL     1      45.071   3.599  13.033  0.00  0.00    +0.000 A 
ATOM      4  C   UNL     1      45.957   4.707  13.067  0.00  0.00    +0.000 A 
ATOM      5  C   UNL     1      46.741   5.325  14.059  0.00  0.00    +0.000 A 
ATOM      6  C   UNL     1      47.523   6.418  13.676  0.00  0.00    +0.000 A 
ATOM      7  C   UNL     1      47.483   6.843  12.350  0.00  0.00    +0.000 A 
ATOM      8  N   UNL     1      46.738   6.286  11.363  0.00  0.00    +0.000 NA
ATOM      9  C   UNL     1      46.018   5.221  11.774  0.00  0.00    +0.000 A 
ENDROOT
BRANCH   6  10
ATOM     10  C   UNL     1      48.452   7.109  14.595  0.00  0.00    +0.000 C 
ATOM     11  O   UNL     1      49.595   6.732  14.776  0.00  0.00    +0.000 OA
BRANCH  10  12
ATOM     12  O   UNL     1      47.935   8.201  15.197  0.00  0.00    +0.000 OA
ATOM     13  H   UNL     1      48.483   8.608  15.891  0.00  0.00    +0.000 HD
ENDBRANCH  10  12
ENDBRANCH   6  10
BRANCH   1  14
ATOM     14  C   UNL     1      45.127   4.535   9.526  0.00  0.00    +0.000 C 
BRANCH  14  17
ATOM     15  C   UNL     1      46.583   2.544   7.723  0.00  0.00    +0.000 C 
ATOM     16  C   UNL     1      45.626   2.108   8.819  0.00  0.00    +0.000 C 
ATOM     17  C   UNL     1      44.628   3.255   8.826  0.00  0.00    +0.000 C 
ATOM     18  C   UNL     1      44.486   3.488   7.324  0.00  0.00    +0.000 C 
ATOM     19  O   UNL     1      45.748   3.154   6.713  0.00  0.00    +0.000 OA
BRANCH  15  20
ATOM     20  C   UNL     1      47.464   1.430   7.144  0.00  0.00    +0.000 C 
BRANCH  20  21
ATOM     21  N   UNL     1      48.551   1.931   6.299  0.00  0.00    +0.000 NA
ATOM     22  H   UNL     1      48.324   2.877   5.998  0.00  0.00    +0.000 HD
ATOM     23  H   UNL     1      48.572   1.357   5.455  0.00  0.00    +0.000 HD
ENDBRANCH  20  21
ENDBRANCH  15  20
ENDBRANCH  14  17
ENDBRANCH   1  14
TORSDOF 6
ENDMDL
MODEL 5
REMARK VINA RESULT:    -6.285      2.917      4.889
REMARK INTER + INTRA:          -8.096
REMARK INTER:                  -7.492
REMARK INTRA:                  -0.604
REMARK UNBOUND:                 0.025
REMARK  Name = 
REMARK  6 active torsions:
REMARK  status: ('A' for Active; 'I' for Inactive)
REMARK    1  A    between atoms: N_1  and  C_2
REMARK    2  A    between atoms: C_2  and  C_3
REMARK    3  A    between atoms: C_5  and  C_6
REMARK    4  A    between atoms: C_6  and  N_7
REMARK    5  A    between atoms: C_12  and  C_13
REMARK    6  A    between atoms: C_13  and  O_15
REMARK                            x       y       z     vdW  Elec       q    Type
REMARK                         _______ _______ _______ _____ _____    ______ ____
ROOT
ATOM      1  N   UNL     1      47.284   6.833  12.740  0.00  0.00    +0.000 N 
ATOM      2  C   UNL     1      47.676   6.332  13.957  0.00  0.00    +0.000 A 
ATOM      3  C   UNL     1      47.110   5.083  14.105  0.00  0.00    +0.000 A 
ATOM      4  C   UNL     1      46.354   4.811  12.934  0.00  0.00    +0.000 A 
ATOM      5  C   UNL     1      45.521   3.761  12.508  0.00  0.00    +0.000 A 
ATOM      6  C   UNL     1      44.921   3.881  11.251  0.00  0.00    +0.000 A 
ATOM      7  C   UNL     1      45.181   5.016  10.487  0.00  0.00    +0.000 A 
ATOM      8  N   UNL     1      45.982   6.049  10.850  0.00  0.00    +0.000 NA
ATOM      9  C   UNL     1      46.521   5.899  12.079  0.00  0.00    +0.000 A 
ENDROOT
BRANCH   6  10
ATOM     10  C   UNL     1      43.962   2.892  10.715  0.00  0.00    +0.000 C 
ATOM     11  O   UNL     1      44.189   2.236   9.715  0.00  0.00    +0.000 OA
BRANCH  10  12
ATOM     12  O   UNL     1      42.828   2.763  11.437  0.00  0.00    +0.000 OA
ATOM     13  H   UNL     1      41.999   2.735  10.929  0.00  0.00    +0.000 HD
ENDBRANCH  10  12
ENDBRANCH   6  10
BRANCH   1  14
ATOM     14  C   UNL     1      47.617   8.156  12.238  0.00  0.00    +0.000 C 
BRANCH  14  17
ATOM     15  C   UNL     1      45.004   9.438  11.311  0.00  0.00    +0.000 C 
ATOM     16  C   UNL     1      45.271   9.082  12.763  0.00  0.00    +0.000 C 
ATOM     17  C   UNL     1      46.774   9.289  12.856  0.00  0.00    +0.000 C 
ATOM     18  C   UNL     1      46.915  10.568  12.033  0.00  0.00    +0.000 C 
ATOM     19  O   UNL     1      45.884  10.550  11.026  0.00  0.00    +0.000 OA
BRANCH  15  20
ATOM     20  C   UNL     1      43.543   9.762  10.975  0.00  0.00    +0.000 C 
BRANCH  20  21
ATOM     21  N   UNL     1      42.698   8.571  10.857  0.00  0.00    +0.000 NA
ATOM     22  H   UNL     1      42.772   8.029  11.715  0.00  0.00    +0.000 HD
ATOM     23  H   UNL     1      43.090   7.991  10.113  0.00  0.00    +0.000 HD
ENDBRANCH  20  21
ENDBRANCH  15  20
ENDBRANCH  14  17
ENDBRANCH   1  14
TORSDOF 6
ENDMDL
MODEL 6
REMARK VINA RESULT:    -5.988      4.334      8.402
REMARK INTER + INTRA:          -7.713
REMARK INTER:                  -7.282
REMARK INTRA:                  -0.432
REMARK UNBOUND:                 0.025
REMARK  Name = 
REMARK  6 active torsions:
REMARK  status: ('A' for Active; 'I' for Inactive)
REMARK    1  A    between atoms: N_1  and  C_2
REMARK    2  A    between atoms: C_2  and  C_3
REMARK    3  A    between atoms: C_5  and  C_6
REMARK    4  A    between atoms: C_6  and  N_7
REMARK    5  A    between atoms: C_12  and  C_13
REMARK    6  A    between atoms: C_13  and  O_15
REMARK                            x       y       z     vdW  Elec       q    Type
REMARK                         _______ _______ _______ _____ _____    ______ ____
ROOT
ATOM      1  N   UNL     1      47.791   5.711  14.401  0.00  0.00    +0.000 N 
ATOM      2  C   UNL     1      48.446   6.912  14.266  0.00  0.00    +0.000 A 
ATOM      3  C   UNL     1      49.033   7.213  15.477  0.00  0.00    +0.000 A 
ATOM      4  C   UNL     1      48.731   6.158  16.377  0.00  0.00    +0.000 A 
ATOM      5  C   UNL     1      48.985   5.906  17.738  0.00  0.00    +0.000 A 
ATOM      6  C   UNL     1      48.484   4.719  18.280  0.00  0.00    +0.000 A 
ATOM      7  C   UNL     1      47.776   3.848  17.455  0.00  0.00    +0.000 A 
ATOM      8  N   UNL     1      47.514   4.043  16.138  0.00  0.00    +0.000 NA
ATOM      9  C   UNL     1      47.997   5.212  15.665  0.00  0.00    +0.000 A 
ENDROOT
BRANCH   6  10
ATOM     10  C   UNL     1      48.608   4.368  19.710  0.00  0.00    +0.000 C 
ATOM     11  O   UNL     1      48.951   5.175  20.555  0.00  0.00    +0.000 OA
BRANCH  10  12
ATOM     12  O   UNL     1      48.288   3.089  20.003  0.00  0.00    +0.000 OA
ATOM     13  H   UNL     1      47.898   2.936  20.881  0.00  0.00    +0.000 HD
ENDBRANCH  10  12
ENDBRANCH   6  10
BRANCH   1  14
ATOM     14  C   UNL     1      46.990   5.080  13.365  0.00  0.00    +0.000 C 
BRANCH  14  17
ATOM     15  C   UNL     1      44.621   4.210  11.644  0.00  0.00    +0.000 C 
ATOM     16  C   UNL     1      44.463   4.666  13.084  0.00  0.00    +0.000 C 
ATOM     17  C   UNL     1      45.582   5.687  13.205  0.00  0.00    +0.000 C 
ATOM     18  C   UNL     1      45.452   6.382  11.852  0.00  0.00    +0.000 C 
ATOM     19  O   UNL     1      44.976   5.403  10.907  0.00  0.00    +0.000 OA
BRANCH  15  20
ATOM     20  C   UNL     1      43.397   3.508  11.042  0.00  0.00    +0.000 C 
BRANCH  20  21
ATOM     21  N   UNL     1      43.072   2.243  11.706  0.00  0.00    +0.000 NA
ATOM     22  H   UNL     1      43.705   1.522  11.369  0.00  0.00    +0.000 HD
ATOM     23  H   UNL     1      42.135   1.970  11.403  0.00  0.00    +0.000 HD
ENDBRANCH  20  21
ENDBRANCH  15  20
ENDBRANCH  14  17
ENDBRANCH   1  14
TORSDOF 6
ENDMDL
MODEL 7
REMARK VINA RESULT:    -5.817      2.988      4.886
REMARK INTER + INTRA:          -7.492
REMARK INTER:                  -7.042
REMARK INTRA:                  -0.450
REMARK UNBOUND:                 0.025
REMARK  Name = 
REMARK  6 active torsions:
REMARK  status: ('A' for Active; 'I' for Inactive)
REMARK    1  A    between atoms: N_1  and  C_2
REMARK    2  A    between atoms: C_2  and  C_3
REMARK    3  A    between atoms: C_5  and  C_6
REMARK    4  A    between atoms: C_6  and  N_7
REMARK    5  A    between atoms: C_12  and  C_13
REMARK    6  A    between atoms: C_13  and  O_15
REMARK                            x       y       z     vdW  Elec       q    Type
REMARK                         _______ _______ _______ _____ _____    ______ ____
ROOT
ATOM      1  N   UNL     1      47.143   6.597  13.148  0.00  0.00    +0.000 N 
ATOM      2  C   UNL     1      47.561   5.993  14.309  0.00  0.00    +0.000 A 
ATOM      3  C   UNL     1      47.039   4.717  14.336  0.00  0.00    +0.000 A 
ATOM      4  C   UNL     1      46.282   4.536  13.149  0.00  0.00    +0.000 A 
ATOM      5  C   UNL     1      45.480   3.504  12.626  0.00  0.00    +0.000 A 
ATOM      6  C   UNL     1      44.866   3.727  11.390  0.00  0.00    +0.000 A 
ATOM      7  C   UNL     1      45.081   4.939  10.739  0.00  0.00    +0.000 A 
ATOM      8  N   UNL     1      45.851   5.957  11.198  0.00  0.00    +0.000 NA
ATOM      9  C   UNL     1      46.405   5.707  12.404  0.00  0.00    +0.000 A 
ENDROOT
BRANCH   6  10
ATOM     10  C   UNL     1      43.936   2.763  10.765  0.00  0.00    +0.000 C 
ATOM     11  O   UNL     1      43.981   2.484   9.581  0.00  0.00    +0.000 OA
BRANCH  10  12
ATOM     12  O   UNL     1      43.050   2.205  11.618  0.00  0.00    +0.000 OA
ATOM     13  H   UNL     1      42.835   1.269  11.460  0.00  0.00    +0.000 HD
ENDBRANCH  10  12
ENDBRANCH   6  10
BRANCH   1  14
ATOM     14  C   UNL     1      47.427   7.973  12.777  0.00  0.00    +0.000 C 
BRANCH  14  17
ATOM     15  C   UNL     1      50.395   8.675  12.959  0.00  0.00    +0.000 C 
ATOM     16  C   UNL     1      49.868   7.573  12.056  0.00  0.00    +0.000 C 
ATOM     17  C   UNL     1      48.500   8.116  11.679  0.00  0.00    +0.000 C 
ATOM     18  C   UNL     1      48.851   9.586  11.464  0.00  0.00    +0.000 C 
ATOM     19  O   UNL     1      49.935   9.907  12.359  0.00  0.00    +0.000 OA
BRANCH  15  20
ATOM     20  C   UNL     1      51.913   8.674  13.174  0.00  0.00    +0.000 C 
BRANCH  20  21
ATOM     21  N   UNL     1      52.621   7.729  12.305  0.00  0.00    +0.000 NA
ATOM     22  H   UNL     1      53.506   8.143  12.022  0.00  0.00    +0.000 HD
ATOM     23  H   UNL     1      52.066   7.623  11.454  0.00  0.00    +0.000 HD
ENDBRANCH  20  21
ENDBRANCH  15  20
ENDBRANCH  14  17
ENDBRANCH   1  14
TORSDOF 6
ENDMDL
MODEL 8
REMARK VINA RESULT:    -5.753      4.501      6.401
REMARK INTER + INTRA:          -7.409
REMARK INTER:                  -6.997
REMARK INTRA:                  -0.412
REMARK UNBOUND:                 0.025
REMARK  Name = 
REMARK  6 active torsions:
REMARK  status: ('A' for Active; 'I' for Inactive)
REMARK    1  A    between atoms: N_1  and  C_2
REMARK    2  A    between atoms: C_2  and  C_3
REMARK    3  A    between atoms: C_5  and  C_6
REMARK    4  A    between atoms: C_6  and  N_7
REMARK    5  A    between atoms: C_12  and  C_13
REMARK    6  A    between atoms: C_13  and  O_15
REMARK                            x       y       z     vdW  Elec       q    Type
REMARK                         _______ _______ _______ _____ _____    ______ ____
ROOT
ATOM      1  N   UNL     1      46.661   5.246  13.726  0.00  0.00    +0.000 N 
ATOM      2  C   UNL     1      46.033   4.196  13.100  0.00  0.00    +0.000 A 
ATOM      3  C   UNL     1      45.173   4.718  12.157  0.00  0.00    +0.000 A 
ATOM      4  C   UNL     1      45.286   6.133  12.207  0.00  0.00    +0.000 A 
ATOM      5  C   UNL     1      44.650   7.205  11.556  0.00  0.00    +0.000 A 
ATOM      6  C   UNL     1      45.042   8.500  11.909  0.00  0.00    +0.000 A 
ATOM      7  C   UNL     1      46.038   8.663  12.870  0.00  0.00    +0.000 A 
ATOM      8  N   UNL     1      46.685   7.661  13.517  0.00  0.00    +0.000 NA
ATOM      9  C   UNL     1      46.257   6.432  13.159  0.00  0.00    +0.000 A 
ENDROOT
BRANCH   6  10
ATOM     10  C   UNL     1      44.403   9.716  11.364  0.00  0.00    +0.000 C 
ATOM     11  O   UNL     1      44.373  10.769  11.974  0.00  0.00    +0.000 OA
BRANCH  10  12
ATOM     12  O   UNL     1      43.876   9.566  10.130  0.00  0.00    +0.000 OA
ATOM     13  H   UNL     1      42.950   9.269  10.093  0.00  0.00    +0.000 HD
ENDBRANCH  10  12
ENDBRANCH   6  10
BRANCH   1  14
ATOM     14  C   UNL     1      47.598   5.116  14.830  0.00  0.00    +0.000 C 
BRANCH  14  17
ATOM     15  C   UNL     1      48.828   4.417  17.538  0.00  0.00    +0.000 C 
ATOM     16  C   UNL     1      47.332   4.590  17.338  0.00  0.00    +0.000 C 
ATOM     17  C   UNL     1      47.157   4.106  15.909  0.00  0.00    +0.000 C 
ATOM     18  C   UNL     1      48.094   2.899  15.923  0.00  0.00    +0.000 C 
ATOM     19  O   UNL     1      49.163   3.193  16.844  0.00  0.00    +0.000 OA
BRANCH  15  20
ATOM     20  C   UNL     1      49.294   4.395  18.999  0.00  0.00    +0.000 C 
BRANCH  20  21
ATOM     21  N   UNL     1      48.473   3.536  19.856  0.00  0.00    +0.000 NA
ATOM     22  H   UNL     1      49.051   3.175  20.611  0.00  0.00    +0.000 HD
ATOM     23  H   UNL     1      48.189   2.729  19.298  0.00  0.00    +0.000 HD
ENDBRANCH  20  21
ENDBRANCH  15  20
ENDBRANCH  14  17
ENDBRANCH   1  14
TORSDOF 6
ENDMDL
MODEL 9
REMARK VINA RESULT:    -5.519      3.740      5.814
REMARK INTER + INTRA:          -7.107
REMARK INTER:                  -6.648
REMARK INTRA:                  -0.459
REMARK UNBOUND:                 0.025
REMARK  Name = 
REMARK  6 active torsions:
REMARK  status: ('A' for Active; 'I' for Inactive)
REMARK    1  A    between atoms: N_1  and  C_2
REMARK    2  A    between atoms: C_2  and  C_3
REMARK    3  A    between atoms: C_5  and  C_6
REMARK    4  A    between atoms: C_6  and  N_7
REMARK    5  A    between atoms: C_12  and  C_13
REMARK    6  A    between atoms: C_13  and  O_15
REMARK                            x       y       z     vdW  Elec       q    Type
REMARK                         _______ _______ _______ _____ _____    ______ ____
ROOT
ATOM      1  N   UNL     1      47.507   6.815  13.858  0.00  0.00    +0.000 N 
ATOM      2  C   UNL     1      47.273   8.142  13.591  0.00  0.00    +0.000 A 
ATOM      3  C   UNL     1      46.199   8.219  12.729  0.00  0.00    +0.000 A 
ATOM      4  C   UNL     1      45.760   6.894  12.468  0.00  0.00    +0.000 A 
ATOM      5  C   UNL     1      44.774   6.316  11.649  0.00  0.00    +0.000 A 
ATOM      6  C   UNL     1      44.665   4.922  11.655  0.00  0.00    +0.000 A 
ATOM      7  C   UNL     1      45.521   4.183  12.468  0.00  0.00    +0.000 A 
ATOM      8  N   UNL     1      46.480   4.696  13.280  0.00  0.00    +0.000 NA
ATOM      9  C   UNL     1      46.563   6.042  13.223  0.00  0.00    +0.000 A 
ENDROOT
BRANCH   6  10
ATOM     10  C   UNL     1      43.729   4.180  10.784  0.00  0.00    +0.000 C 
ATOM     11  O   UNL     1      43.794   4.219   9.569  0.00  0.00    +0.000 OA
BRANCH  10  12
ATOM     12  O   UNL     1      42.813   3.442  11.447  0.00  0.00    +0.000 OA
ATOM     13  H   UNL     1      43.056   2.516  11.623  0.00  0.00    +0.000 HD
ENDBRANCH  10  12
ENDBRANCH   6  10
BRANCH   1  14
ATOM     14  C   UNL     1      48.598   6.310  14.675  0.00  0.00    +0.000 C 
BRANCH  14  17
ATOM     15  C   UNL     1      50.232   5.229  17.019  0.00  0.00    +0.000 C 
ATOM     16  C   UNL     1      49.369   6.475  17.127  0.00  0.00    +0.000 C 
ATOM     17  C   UNL     1      48.239   6.148  16.166  0.00  0.00    +0.000 C 
ATOM     18  C   UNL     1      48.023   4.675  16.505  0.00  0.00    +0.000 C 
ATOM     19  O   UNL     1      49.298   4.132  16.904  0.00  0.00    +0.000 OA
BRANCH  15  20
ATOM     20  C   UNL     1      51.225   5.019  18.169  0.00  0.00    +0.000 C 
BRANCH  20  21
ATOM     21  N   UNL     1      50.703   4.162  19.236  0.00  0.00    +0.000 NA
ATOM     22  H   UNL     1      50.144   4.729  19.870  0.00  0.00    +0.000 HD
ATOM     23  H   UNL     1      51.501   3.825  19.776  0.00  0.00    +0.000 HD
ENDBRANCH  20  21
ENDBRANCH  15  20
ENDBRANCH  14  17
ENDBRANCH   1  14
TORSDOF 6
ENDMDL
