MODEL 1
REMARK VINA RESULT:    -8.070      0.000      0.000
REMARK INTER + INTRA:         -11.794
REMARK INTER:                 -10.901
REMARK INTRA:                  -0.894
REMARK UNBOUND:                -0.894
REMARK  Name = 
REMARK  7 active torsions:
REMARK  status: ('A' for Active; 'I' for Inactive)
REMARK    1  A    between atoms: C_1  and  C_2
REMARK    2  A    between atoms: C_2  and  N_3
REMARK    3  A    between atoms: C_2  and  C_21
REMARK    4  A    between atoms: C_4  and  C_6
REMARK    5  A    between atoms: C_9  and  C_10
REMARK    6  A    between atoms: C_10  and  N_11
REMARK    7  A    between atoms: C_12  and  C_14
REMARK                            x       y       z     vdW  Elec       q    Type
REMARK                         _______ _______ _______ _____ _____    ______ ____
ROOT
ATOM      1  N   UNL     1      47.870   5.505  16.008  0.00  0.00    +0.000 N 
ATOM      2  C   UNL     1      47.232   4.421  15.435  0.00  0.00    +0.000 C 
ATOM      3  O   UNL     1      47.150   3.320  15.972  0.00  0.00    +0.000 OA
ATOM      4  H   UNL     1      47.810   6.384  15.504  0.00  0.00    +0.000 HD
ENDROOT
BRANCH   2   5
ATOM      5  C   UNL     1      46.613   4.663  14.089  0.00  0.00    +0.000 A 
ATOM      6  C   UNL     1      46.892   5.847  13.413  0.00  0.00    +0.000 A 
ATOM      7  C   UNL     1      46.333   6.043  12.151  0.00  0.00    +0.000 A 
ATOM      8  C   UNL     1      45.502   5.063  11.602  0.00  0.00    +0.000 A 
ATOM      9  C   UNL     1      45.282   3.912  12.359  0.00  0.00    +0.000 A 
ATOM     10  N   UNL     1      45.812   3.682  13.588  0.00  0.00    +0.000 NA
BRANCH   8  11
ATOM     11  C   UNL     1      44.862   5.244  10.255  0.00  0.00    +0.000 C 
BRANCH  11  12
ATOM     12  N   UNL     1      45.610   4.630   9.190  0.00  0.00    +0.000 N 
ATOM     13  C   UNL     1      45.283   3.370   8.737  0.00  0.00    +0.000 C 
ATOM     14  O   UNL     1      44.377   2.696   9.217  0.00  0.00    +0.000 OA
ATOM     15  H   UNL     1      46.359   5.113   8.701  0.00  0.00    +0.000 HD
BRANCH  13  16
ATOM     16  C   UNL     1      46.119   2.910   7.627  0.00  0.00    +0.000 A 
ATOM     17  C   UNL     1      46.763   1.691   7.531  0.00  0.00    +0.000 A 
ATOM     18  N   UNL     1      47.414   1.713   6.331  0.00  0.00    +0.000 N 
ATOM     19  C   UNL     1      47.154   2.919   5.741  0.00  0.00    +0.000 A 
ATOM     20  N   UNL     1      46.379   3.669   6.494  0.00  0.00    +0.000 NA
ATOM     21  H   UNL     1      47.986   0.975   5.943  0.00  0.00    +0.000 HD
ENDBRANCH  13  16
ENDBRANCH  11  12
ENDBRANCH   8  11
ENDBRANCH   2   5
BRANCH   1  23
ATOM     22  C   UNL     1      47.883   6.549  18.244  0.00  0.00    +0.000 C 
ATOM     23  C   UNL     1      48.433   5.439  17.345  0.00  0.00    +0.000 C 
BRANCH  23  24
ATOM     24  C   UNL     1      49.942   5.505  17.258  0.00  0.00    +0.000 A 
ATOM     25  C   UNL     1      50.665   6.660  16.996  0.00  0.00    +0.000 A 
ATOM     26  S   UNL     1      52.356   6.429  17.053  0.00  0.00    +0.000 S 
ATOM     27  C   UNL     1      52.179   4.779  17.431  0.00  0.00    +0.000 A 
ATOM     28  N   UNL     1      53.265   3.987  17.644  0.00  0.00    +0.000 NA
ATOM     29  C   UNL     1      52.979   2.761  17.932  0.00  0.00    +0.000 A 
ATOM     30  N   UNL     1      51.708   2.252  18.019  0.00  0.00    +0.000 N 
ATOM     31  C   UNL     1      50.578   3.013  17.820  0.00  0.00    +0.000 A 
ATOM     32  O   UNL     1      49.460   2.521  17.927  0.00  0.00    +0.000 OA
ATOM     33  C   UNL     1      50.849   4.405  17.499  0.00  0.00    +0.000 A 
ATOM     34  H   UNL     1      51.550   1.282  18.247  0.00  0.00    +0.000 HD
ENDBRANCH  23  24
ENDBRANCH   1  23
TORSDOF 6
ENDMDL
MODEL 2
REMARK VINA RESULT:    -7.597      1.474      2.106
REMARK INTER + INTRA:         -11.155
REMARK INTER:                 -10.481
REMARK INTRA:                  -0.674
REMARK UNBOUND:                -0.894
REMARK  Name = 
REMARK  7 active torsions:
REMARK  status: ('A' for Active; 'I' for Inactive)
REMARK    1  A    between atoms: C_1  and  C_2
REMARK    2  A    between atoms: C_2  and  N_3
REMARK    3  A    between atoms: C_2  and  C_21
REMARK    4  A    between atoms: C_4  and  C_6
REMARK    5  A    between atoms: C_9  and  C_10
REMARK    6  A    between atoms: C_10  and  N_11
REMARK    7  A    between atoms: C_12  and  C_14
REMARK                            x       y       z     vdW  Elec       q    Type
REMARK                         _______ _______ _______ _____ _____    ______ ____
ROOT
ATOM      1  N   UNL     1      47.493   5.364  16.542  0.00  0.00    +0.000 N 
ATOM      2  C   UNL     1      47.369   4.338  15.624  0.00  0.00    +0.000 C 
ATOM      3  O   UNL     1      47.718   3.183  15.846  0.00  0.00    +0.000 OA
ATOM      4  H   UNL     1      47.102   6.261  16.275  0.00  0.00    +0.000 HD
ENDROOT
BRANCH   2   5
ATOM      5  C   UNL     1      46.756   4.712  14.306  0.00  0.00    +0.000 A 
ATOM      6  C   UNL     1      47.389   5.656  13.502  0.00  0.00    +0.000 A 
ATOM      7  C   UNL     1      46.822   5.970  12.269  0.00  0.00    +0.000 A 
ATOM      8  C   UNL     1      45.636   5.346  11.872  0.00  0.00    +0.000 A 
ATOM      9  C   UNL     1      45.078   4.414  12.749  0.00  0.00    +0.000 A 
ATOM     10  N   UNL     1      45.602   4.079  13.956  0.00  0.00    +0.000 NA
BRANCH   8  11
ATOM     11  C   UNL     1      44.981   5.670  10.560  0.00  0.00    +0.000 C 
BRANCH  11  12
ATOM     12  N   UNL     1      45.599   5.007   9.443  0.00  0.00    +0.000 N 
ATOM     13  C   UNL     1      45.230   3.726   9.094  0.00  0.00    +0.000 C 
ATOM     14  O   UNL     1      44.394   3.074   9.712  0.00  0.00    +0.000 OA
ATOM     15  H   UNL     1      46.280   5.467   8.845  0.00  0.00    +0.000 HD
BRANCH  13  16
ATOM     16  C   UNL     1      45.929   3.214   7.915  0.00  0.00    +0.000 A 
ATOM     17  C   UNL     1      46.350   1.915   7.705  0.00  0.00    +0.000 A 
ATOM     18  N   UNL     1      46.946   1.915   6.477  0.00  0.00    +0.000 N 
ATOM     19  C   UNL     1      46.874   3.187   5.981  0.00  0.00    +0.000 A 
ATOM     20  N   UNL     1      46.270   4.000   6.821  0.00  0.00    +0.000 NA
ATOM     21  H   UNL     1      47.367   1.122   6.011  0.00  0.00    +0.000 HD
ENDBRANCH  13  16
ENDBRANCH  11  12
ENDBRANCH   8  11
ENDBRANCH   2   5
BRANCH   1  23
ATOM     22  C   UNL     1      47.599   6.264  18.838  0.00  0.00    +0.000 C 
ATOM     23  C   UNL     1      47.984   5.126  17.888  0.00  0.00    +0.000 C 
BRANCH  23  24
ATOM     24  C   UNL     1      49.485   4.934  17.849  0.00  0.00    +0.000 A 
ATOM     25  C   UNL     1      50.156   3.865  18.424  0.00  0.00    +0.000 A 
ATOM     26  S   UNL     1      51.839   3.884  18.129  0.00  0.00    +0.000 S 
ATOM     27  C   UNL     1      51.726   5.320  17.222  0.00  0.00    +0.000 A 
ATOM     28  N   UNL     1      52.826   5.876  16.646  0.00  0.00    +0.000 NA
ATOM     29  C   UNL     1      52.588   6.956  15.980  0.00  0.00    +0.000 A 
ATOM     30  N   UNL     1      51.352   7.537  15.844  0.00  0.00    +0.000 N 
ATOM     31  C   UNL     1      50.208   7.010  16.401  0.00  0.00    +0.000 A 
ATOM     32  O   UNL     1      49.121   7.552  16.237  0.00  0.00    +0.000 OA
ATOM     33  C   UNL     1      50.425   5.787  17.156  0.00  0.00    +0.000 A 
ATOM     34  H   UNL     1      51.232   8.384  15.310  0.00  0.00    +0.000 HD
ENDBRANCH  23  24
ENDBRANCH   1  23
TORSDOF 6
ENDMDL
MODEL 3
REMARK VINA RESULT:    -7.387      2.533      3.369
REMARK INTER + INTRA:         -10.872
REMARK INTER:                 -10.106
REMARK INTRA:                  -0.766
REMARK UNBOUND:                -0.894
REMARK  Name = 
REMARK  7 active torsions:
REMARK  status: ('A' for Active; 'I' for Inactive)
REMARK    1  A    between atoms: C_1  and  C_2
REMARK    2  A    between atoms: C_2  and  N_3
REMARK    3  A    between atoms: C_2  and  C_21
REMARK    4  A    between atoms: C_4  and  C_6
REMARK    5  A    between atoms: C_9  and  C_10
REMARK    6  A    between atoms: C_10  and  N_11
REMARK    7  A    between atoms: C_12  and  C_14
REMARK                            x       y       z     vdW  Elec       q    Type
REMARK                         _______ _______ _______ _____ _____    ______ ____
ROOT
ATOM      1  N   UNL     1      48.005   7.329  14.736  0.00  0.00    +0.000 N 
ATOM      2  C   UNL     1      47.320   7.768  13.618  0.00  0.00    +0.000 C 
ATOM      3  O   UNL     1      47.362   8.923  13.207  0.00  0.00    +0.000 OA
ATOM      4  H   UNL     1      47.954   6.335  14.938  0.00  0.00    +0.000 HD
ENDROOT
BRANCH   2   5
ATOM      5  C   UNL     1      46.508   6.729  12.901  0.00  0.00    +0.000 A 
ATOM      6  C   UNL     1      46.544   5.410  13.341  0.00  0.00    +0.000 A 
ATOM      7  C   UNL     1      45.761   4.464  12.682  0.00  0.00    +0.000 A 
ATOM      8  C   UNL     1      44.973   4.853  11.596  0.00  0.00    +0.000 A 
ATOM      9  C   UNL     1      45.005   6.199  11.230  0.00  0.00    +0.000 A 
ATOM     10  N   UNL     1      45.751   7.150  11.849  0.00  0.00    +0.000 NA
BRANCH   8  11
ATOM     11  C   UNL     1      44.130   3.862  10.845  0.00  0.00    +0.000 C 
BRANCH  11  12
ATOM     12  N   UNL     1      44.903   2.995   9.996  0.00  0.00    +0.000 N 
ATOM     13  C   UNL     1      45.246   3.383   8.719  0.00  0.00    +0.000 C 
ATOM     14  O   UNL     1      44.901   4.452   8.225  0.00  0.00    +0.000 OA
ATOM     15  H   UNL     1      45.267   2.101  10.317  0.00  0.00    +0.000 HD
BRANCH  13  16
ATOM     16  C   UNL     1      46.062   2.400   8.005  0.00  0.00    +0.000 A 
ATOM     17  C   UNL     1      46.930   2.652   6.960  0.00  0.00    +0.000 A 
ATOM     18  N   UNL     1      47.462   1.441   6.624  0.00  0.00    +0.000 N 
ATOM     19  C   UNL     1      46.916   0.503   7.455  0.00  0.00    +0.000 A 
ATOM     20  N   UNL     1      46.065   1.043   8.300  0.00  0.00    +0.000 NA
ATOM     21  H   UNL     1      48.138   1.262   5.892  0.00  0.00    +0.000 HD
ENDBRANCH  13  16
ENDBRANCH  11  12
ENDBRANCH   8  11
ENDBRANCH   2   5
BRANCH   1  23
ATOM     22  C   UNL     1      50.369   7.873  15.192  0.00  0.00    +0.000 C 
ATOM     23  C   UNL     1      48.900   8.203  15.473  0.00  0.00    +0.000 C 
BRANCH  23  24
ATOM     24  C   UNL     1      48.594   8.105  16.952  0.00  0.00    +0.000 A 
ATOM     25  C   UNL     1      48.247   9.180  17.756  0.00  0.00    +0.000 A 
ATOM     26  S   UNL     1      47.872   8.733  19.361  0.00  0.00    +0.000 S 
ATOM     27  C   UNL     1      48.160   7.088  19.035  0.00  0.00    +0.000 A 
ATOM     28  N   UNL     1      47.989   6.140  19.996  0.00  0.00    +0.000 NA
ATOM     29  C   UNL     1      48.232   4.935  19.603  0.00  0.00    +0.000 A 
ATOM     30  N   UNL     1      48.640   4.590  18.339  0.00  0.00    +0.000 N 
ATOM     31  C   UNL     1      48.819   5.509  17.329  0.00  0.00    +0.000 A 
ATOM     32  O   UNL     1      49.165   5.154  16.208  0.00  0.00    +0.000 OA
ATOM     33  C   UNL     1      48.550   6.883  17.723  0.00  0.00    +0.000 A 
ATOM     34  H   UNL     1      48.816   3.628  18.093  0.00  0.00    +0.000 HD
ENDBRANCH  23  24
ENDBRANCH   1  23
TORSDOF 6
ENDMDL
MODEL 4
REMARK VINA RESULT:    -7.347      2.816      4.322
REMARK INTER + INTRA:         -10.817
REMARK INTER:                  -9.848
REMARK INTRA:                  -0.970
REMARK UNBOUND:                -0.894
REMARK  Name = 
REMARK  7 active torsions:
REMARK  status: ('A' for Active; 'I' for Inactive)
REMARK    1  A    between atoms: C_1  and  C_2
REMARK    2  A    between atoms: C_2  and  N_3
REMARK    3  A    between atoms: C_2  and  C_21
REMARK    4  A    between atoms: C_4  and  C_6
REMARK    5  A    between atoms: C_9  and  C_10
REMARK    6  A    between atoms: C_10  and  N_11
REMARK    7  A    between atoms: C_12  and  C_14
REMARK                            x       y       z     vdW  Elec       q    Type
REMARK                         _______ _______ _______ _____ _____    ______ ____
ROOT
ATOM      1  N   UNL     1      48.273   6.149  15.830  0.00  0.00    +0.000 N 
ATOM      2  C   UNL     1      48.233   6.636  14.537  0.00  0.00    +0.000 C 
ATOM      3  O   UNL     1      48.951   7.546  14.132  0.00  0.00    +0.000 OA
ATOM      4  H   UNL     1      47.686   5.346  16.030  0.00  0.00    +0.000 HD
ENDROOT
BRANCH   2   5
ATOM      5  C   UNL     1      47.251   5.970  13.618  0.00  0.00    +0.000 A 
ATOM      6  C   UNL     1      46.847   6.628  12.460  0.00  0.00    +0.000 A 
ATOM      7  C   UNL     1      45.957   5.983  11.603  0.00  0.00    +0.000 A 
ATOM      8  C   UNL     1      45.484   4.708  11.926  0.00  0.00    +0.000 A 
ATOM      9  C   UNL     1      45.948   4.134  13.109  0.00  0.00    +0.000 A 
ATOM     10  N   UNL     1      46.817   4.727  13.967  0.00  0.00    +0.000 NA
BRANCH   8  11
ATOM     11  C   UNL     1      44.508   3.987  11.040  0.00  0.00    +0.000 C 
BRANCH  11  12
ATOM     12  N   UNL     1      45.144   3.068  10.133  0.00  0.00    +0.000 N 
ATOM     13  C   UNL     1      45.423   3.440   8.836  0.00  0.00    +0.000 C 
ATOM     14  O   UNL     1      45.131   4.539   8.373  0.00  0.00    +0.000 OA
ATOM     15  H   UNL     1      45.455   2.145  10.423  0.00  0.00    +0.000 HD
BRANCH  13  16
ATOM     16  C   UNL     1      46.101   2.401   8.060  0.00  0.00    +0.000 A 
ATOM     17  C   UNL     1      46.858   2.585   6.919  0.00  0.00    +0.000 A 
ATOM     18  N   UNL     1      47.284   1.341   6.556  0.00  0.00    +0.000 N 
ATOM     19  C   UNL     1      46.787   0.450   7.466  0.00  0.00    +0.000 A 
ATOM     20  N   UNL     1      46.065   1.051   8.387  0.00  0.00    +0.000 NA
ATOM     21  H   UNL     1      47.863   1.111   5.758  0.00  0.00    +0.000 HD
ENDBRANCH  13  16
ENDBRANCH  11  12
ENDBRANCH   8  11
ENDBRANCH   2   5
BRANCH   1  23
ATOM     22  C   UNL     1      50.370   5.631  17.024  0.00  0.00    +0.000 C 
ATOM     23  C   UNL     1      49.238   6.637  16.799  0.00  0.00    +0.000 C 
BRANCH  23  24
ATOM     24  C   UNL     1      48.528   6.958  18.097  0.00  0.00    +0.000 A 
ATOM     25  C   UNL     1      48.327   6.052  19.128  0.00  0.00    +0.000 A 
ATOM     26  S   UNL     1      47.575   6.740  20.498  0.00  0.00    +0.000 S 
ATOM     27  C   UNL     1      47.495   8.272  19.761  0.00  0.00    +0.000 A 
ATOM     28  N   UNL     1      46.976   9.343  20.420  0.00  0.00    +0.000 NA
ATOM     29  C   UNL     1      46.990  10.442  19.742  0.00  0.00    +0.000 A 
ATOM     30  N   UNL     1      47.468  10.566  18.462  0.00  0.00    +0.000 N 
ATOM     31  C   UNL     1      48.010   9.516  17.755  0.00  0.00    +0.000 A 
ATOM     32  O   UNL     1      48.443   9.677  16.620  0.00  0.00    +0.000 OA
ATOM     33  C   UNL     1      48.021   8.256  18.481  0.00  0.00    +0.000 A 
ATOM     34  H   UNL     1      47.450  11.455  17.984  0.00  0.00    +0.000 HD
ENDBRANCH  23  24
ENDBRANCH   1  23
TORSDOF 6
ENDMDL
MODEL 5
REMARK VINA RESULT:    -7.139      2.018      2.710
REMARK INTER + INTRA:         -10.536
REMARK INTER:                  -9.649
REMARK INTRA:                  -0.887
REMARK UNBOUND:                -0.894
REMARK  Name = 
REMARK  7 active torsions:
REMARK  status: ('A' for Active; 'I' for Inactive)
REMARK    1  A    between atoms: C_1  and  C_2
REMARK    2  A    between atoms: C_2  and  N_3
REMARK    3  A    between atoms: C_2  and  C_21
REMARK    4  A    between atoms: C_4  and  C_6
REMARK    5  A    between atoms: C_9  and  C_10
REMARK    6  A    between atoms: C_10  and  N_11
REMARK    7  A    between atoms: C_12  and  C_14
REMARK                            x       y       z     vdW  Elec       q    Type
REMARK                         _______ _______ _______ _____ _____    ______ ____
ROOT
ATOM      1  N   UNL     1      49.573   4.836  17.352  0.00  0.00    +0.000 N 
ATOM      2  C   UNL     1      48.301   4.511  16.922  0.00  0.00    +0.000 C 
ATOM      3  O   UNL     1      47.538   3.781  17.549  0.00  0.00    +0.000 OA
ATOM      4  H   UNL     1      50.085   5.507  16.788  0.00  0.00    +0.000 HD
ENDROOT
BRANCH   2   5
ATOM      5  C   UNL     1      47.875   5.123  15.619  0.00  0.00    +0.000 A 
ATOM      6  C   UNL     1      46.864   4.518  14.879  0.00  0.00    +0.000 A 
ATOM      7  C   UNL     1      46.461   5.116  13.686  0.00  0.00    +0.000 A 
ATOM      8  C   UNL     1      47.081   6.292  13.257  0.00  0.00    +0.000 A 
ATOM      9  C   UNL     1      48.085   6.820  14.069  0.00  0.00    +0.000 A 
ATOM     10  N   UNL     1      48.502   6.271  15.238  0.00  0.00    +0.000 NA
BRANCH   8  11
ATOM     11  C   UNL     1      46.691   6.957  11.968  0.00  0.00    +0.000 C 
BRANCH  11  12
ATOM     12  N   UNL     1      46.460   6.021  10.899  0.00  0.00    +0.000 N 
ATOM     13  C   UNL     1      45.183   5.602  10.595  0.00  0.00    +0.000 C 
ATOM     14  O   UNL     1      44.190   5.966  11.217  0.00  0.00    +0.000 OA
ATOM     15  H   UNL     1      47.209   5.681  10.301  0.00  0.00    +0.000 HD
BRANCH  13  16
ATOM     16  C   UNL     1      45.122   4.680   9.461  0.00  0.00    +0.000 A 
ATOM     17  C   UNL     1      44.244   3.625   9.301  0.00  0.00    +0.000 A 
ATOM     18  N   UNL     1      44.562   3.059   8.101  0.00  0.00    +0.000 N 
ATOM     19  C   UNL     1      45.604   3.769   7.571  0.00  0.00    +0.000 A 
ATOM     20  N   UNL     1      45.972   4.752   8.364  0.00  0.00    +0.000 NA
ATOM     21  H   UNL     1      44.114   2.259   7.674  0.00  0.00    +0.000 HD
ENDBRANCH  13  16
ENDBRANCH  11  12
ENDBRANCH   8  11
ENDBRANCH   2   5
BRANCH   1  23
ATOM     22  C   UNL     1      49.869   5.444  19.726  0.00  0.00    +0.000 C 
ATOM     23  C   UNL     1      50.081   4.388  18.637  0.00  0.00    +0.000 C 
BRANCH  23  24
ATOM     24  C   UNL     1      51.546   4.032  18.502  0.00  0.00    +0.000 A 
ATOM     25  C   UNL     1      52.593   4.831  18.937  0.00  0.00    +0.000 A 
ATOM     26  S   UNL     1      54.128   4.112  18.725  0.00  0.00    +0.000 S 
ATOM     27  C   UNL     1      53.444   2.708  18.047  0.00  0.00    +0.000 A 
ATOM     28  N   UNL     1      54.224   1.661  17.665  0.00  0.00    +0.000 NA
ATOM     29  C   UNL     1      53.568   0.660  17.179  0.00  0.00    +0.000 A 
ATOM     30  N   UNL     1      52.205   0.614  17.031  0.00  0.00    +0.000 N 
ATOM     31  C   UNL     1      51.372   1.643  17.409  0.00  0.00    +0.000 A 
ATOM     32  O   UNL     1      50.156   1.551  17.277  0.00  0.00    +0.000 OA
ATOM     33  C   UNL     1      52.065   2.792  17.970  0.00  0.00    +0.000 A 
ATOM     34  H   UNL     1      51.751  -0.198  16.642  0.00  0.00    +0.000 HD
ENDBRANCH  23  24
ENDBRANCH   1  23
TORSDOF 6
ENDMDL
MODEL 6
REMARK VINA RESULT:    -5.906      2.815      3.965
REMARK INTER + INTRA:          -8.872
REMARK INTER:                  -8.225
REMARK INTRA:                  -0.646
REMARK UNBOUND:                -0.894
REMARK  Name = 
REMARK  7 active torsions:
REMARK  status: ('A' for Active; 'I' for Inactive)
REMARK    1  A    between atoms: C_1  and  C_2
REMARK    2  A    between atoms: C_2  and  N_3
REMARK    3  A    between atoms: C_2  and  C_21
REMARK    4  A    between atoms: C_4  and  C_6
REMARK    5  A    between atoms: C_9  and  C_10
REMARK    6  A    between atoms: C_10  and  N_11
REMARK    7  A    between atoms: C_12  and  C_14
REMARK                            x       y       z     vdW  Elec       q    Type
REMARK                         _______ _______ _______ _____ _____    ______ ____
ROOT
ATOM      1  N   UNL     1      49.676   7.275  16.087  0.00  0.00    +0.000 N 
ATOM      2  C   UNL     1      49.827   7.720  14.787  0.00  0.00    +0.000 C 
ATOM      3  O   UNL     1      50.881   8.158  14.338  0.00  0.00    +0.000 OA
ATOM      4  H   UNL     1      48.779   6.865  16.325  0.00  0.00    +0.000 HD
ENDROOT
BRANCH   2   5
ATOM      5  C   UNL     1      48.606   7.626  13.919  0.00  0.00    +0.000 A 
ATOM      6  C   UNL     1      47.603   8.582  14.045  0.00  0.00    +0.000 A 
ATOM      7  C   UNL     1      46.490   8.497  13.211  0.00  0.00    +0.000 A 
ATOM      8  C   UNL     1      46.399   7.457  12.282  0.00  0.00    +0.000 A 
ATOM      9  C   UNL     1      47.455   6.548  12.233  0.00  0.00    +0.000 A 
ATOM     10  N   UNL     1      48.557   6.599  13.025  0.00  0.00    +0.000 NA
BRANCH   8  11
ATOM     11  C   UNL     1      45.207   7.317  11.379  0.00  0.00    +0.000 C 
BRANCH  11  12
ATOM     12  N   UNL     1      45.221   6.098  10.614  0.00  0.00    +0.000 N 
ATOM     13  C   UNL     1      44.541   4.983  11.055  0.00  0.00    +0.000 C 
ATOM     14  O   UNL     1      43.920   4.949  12.112  0.00  0.00    +0.000 OA
ATOM     15  H   UNL     1      45.678   6.028   9.709  0.00  0.00    +0.000 HD
BRANCH  13  16
ATOM     16  C   UNL     1      44.629   3.843  10.142  0.00  0.00    +0.000 A 
ATOM     17  C   UNL     1      44.258   2.540  10.413  0.00  0.00    +0.000 A 
ATOM     18  N   UNL     1      44.518   1.839   9.271  0.00  0.00    +0.000 N 
ATOM     19  C   UNL     1      45.030   2.714   8.354  0.00  0.00    +0.000 A 
ATOM     20  N   UNL     1      45.114   3.932   8.844  0.00  0.00    +0.000 NA
ATOM     21  H   UNL     1      44.364   0.850   9.123  0.00  0.00    +0.000 HD
ENDBRANCH  13  16
ENDBRANCH  11  12
ENDBRANCH   8  11
ENDBRANCH   2   5
BRANCH   1  23
ATOM     22  C   UNL     1      51.545   5.890  16.915  0.00  0.00    +0.000 C 
ATOM     23  C   UNL     1      50.797   7.223  17.009  0.00  0.00    +0.000 C 
BRANCH  23  24
ATOM     24  C   UNL     1      50.300   7.470  18.418  0.00  0.00    +0.000 A 
ATOM     25  C   UNL     1      50.814   8.431  19.276  0.00  0.00    +0.000 A 
ATOM     26  S   UNL     1      49.981   8.526  20.764  0.00  0.00    +0.000 S 
ATOM     27  C   UNL     1      48.905   7.287  20.310  0.00  0.00    +0.000 A 
ATOM     28  N   UNL     1      47.902   6.889  21.139  0.00  0.00    +0.000 NA
ATOM     29  C   UNL     1      47.158   5.949  20.659  0.00  0.00    +0.000 A 
ATOM     30  N   UNL     1      47.330   5.364  19.430  0.00  0.00    +0.000 N 
ATOM     31  C   UNL     1      48.324   5.735  18.553  0.00  0.00    +0.000 A 
ATOM     32  O   UNL     1      48.430   5.198  17.456  0.00  0.00    +0.000 OA
ATOM     33  C   UNL     1      49.185   6.797  19.047  0.00  0.00    +0.000 A 
ATOM     34  H   UNL     1      46.715   4.631  19.112  0.00  0.00    +0.000 HD
ENDBRANCH  23  24
ENDBRANCH   1  23
TORSDOF 6
ENDMDL
MODEL 7
REMARK VINA RESULT:    -5.819      3.755      6.718
REMARK INTER + INTRA:          -8.754
REMARK INTER:                  -8.072
REMARK INTRA:                  -0.682
REMARK UNBOUND:                -0.894
REMARK  Name = 
REMARK  7 active torsions:
REMARK  status: ('A' for Active; 'I' for Inactive)
REMARK    1  A    between atoms: C_1  and  C_2
REMARK    2  A    between atoms: C_2  and  N_3
REMARK    3  A    between atoms: C_2  and  C_21
REMARK    4  A    between atoms: C_4  and  C_6
REMARK    5  A    between atoms: C_9  and  C_10
REMARK    6  A    between atoms: C_10  and  N_11
REMARK    7  A    between atoms: C_12  and  C_14
REMARK                            x       y       z     vdW  Elec       q    Type
REMARK                         _______ _______ _______ _____ _____    ______ ____
ROOT
ATOM      1  N   UNL     1      53.542   2.593  17.733  0.00  0.00    +0.000 N 
ATOM      2  C   UNL     1      52.730   3.464  18.436  0.00  0.00    +0.000 C 
ATOM      3  O   UNL     1      53.125   4.153  19.372  0.00  0.00    +0.000 OA
ATOM      4  H   UNL     1      53.124   2.132  16.931  0.00  0.00    +0.000 HD
ENDROOT
BRANCH   2   5
ATOM      5  C   UNL     1      51.303   3.540  17.978  0.00  0.00    +0.000 A 
ATOM      6  C   UNL     1      50.723   2.434  17.363  0.00  0.00    +0.000 A 
ATOM      7  C   UNL     1      49.389   2.512  16.970  0.00  0.00    +0.000 A 
ATOM      8  C   UNL     1      48.670   3.690  17.189  0.00  0.00    +0.000 A 
ATOM      9  C   UNL     1      49.340   4.743  17.812  0.00  0.00    +0.000 A 
ATOM     10  N   UNL     1      50.637   4.705  18.213  0.00  0.00    +0.000 NA
BRANCH   8  11
ATOM     11  C   UNL     1      47.235   3.823  16.763  0.00  0.00    +0.000 C 
BRANCH  11  12
ATOM     12  N   UNL     1      47.061   4.707  15.642  0.00  0.00    +0.000 N 
ATOM     13  C   UNL     1      47.073   4.219  14.353  0.00  0.00    +0.000 C 
ATOM     14  O   UNL     1      47.256   3.036  14.083  0.00  0.00    +0.000 OA
ATOM     15  H   UNL     1      46.871   5.699  15.755  0.00  0.00    +0.000 HD
BRANCH  13  16
ATOM     16  C   UNL     1      46.846   5.246  13.335  0.00  0.00    +0.000 A 
ATOM     17  C   UNL     1      45.661   5.500  12.670  0.00  0.00    +0.000 A 
ATOM     18  N   UNL     1      45.929   6.537  11.825  0.00  0.00    +0.000 N 
ATOM     19  C   UNL     1      47.242   6.881  11.993  0.00  0.00    +0.000 A 
ATOM     20  N   UNL     1      47.829   6.122  12.893  0.00  0.00    +0.000 NA
ATOM     21  H   UNL     1      45.280   6.978  11.186  0.00  0.00    +0.000 HD
ENDBRANCH  13  16
ENDBRANCH  11  12
ENDBRANCH   8  11
ENDBRANCH   2   5
BRANCH   1  23
ATOM     22  C   UNL     1      55.775   2.297  16.723  0.00  0.00    +0.000 C 
ATOM     23  C   UNL     1      54.964   2.486  18.008  0.00  0.00    +0.000 C 
BRANCH  23  24
ATOM     24  C   UNL     1      55.204   1.348  18.976  0.00  0.00    +0.000 A 
ATOM     25  C   UNL     1      55.704   1.500  20.261  0.00  0.00    +0.000 A 
ATOM     26  S   UNL     1      55.775   0.036  21.138  0.00  0.00    +0.000 S 
ATOM     27  C   UNL     1      55.137  -0.849  19.831  0.00  0.00    +0.000 A 
ATOM     28  N   UNL     1      54.912  -2.187  19.933  0.00  0.00    +0.000 NA
ATOM     29  C   UNL     1      54.416  -2.724  18.868  0.00  0.00    +0.000 A 
ATOM     30  N   UNL     1      54.133  -2.047  17.709  0.00  0.00    +0.000 N 
ATOM     31  C   UNL     1      54.335  -0.693  17.559  0.00  0.00    +0.000 A 
ATOM     32  O   UNL     1      54.049  -0.126  16.510  0.00  0.00    +0.000 OA
ATOM     33  C   UNL     1      54.887  -0.043  18.736  0.00  0.00    +0.000 A 
ATOM     34  H   UNL     1      53.747  -2.525  16.908  0.00  0.00    +0.000 HD
ENDBRANCH  23  24
ENDBRANCH   1  23
TORSDOF 6
ENDMDL
MODEL 8
REMARK VINA RESULT:    -5.790      2.305      3.101
REMARK INTER + INTRA:          -8.714
REMARK INTER:                  -7.851
REMARK INTRA:                  -0.863
REMARK UNBOUND:                -0.894
REMARK  Name = 
REMARK  7 active torsions:
REMARK  status: ('A' for Active; 'I' for Inactive)
REMARK    1  A    between atoms: C_1  and  C_2
REMARK    2  A    between atoms: C_2  and  N_3
REMARK    3  A    between atoms: C_2  and  C_21
REMARK    4  A    between atoms: C_4  and  C_6
REMARK    5  A    between atoms: C_9  and  C_10
REMARK    6  A    between atoms: C_10  and  N_11
REMARK    7  A    between atoms: C_12  and  C_14
REMARK                            x       y       z     vdW  Elec       q    Type
REMARK                         _______ _______ _______ _____ _____    ______ ____
ROOT
ATOM      1  N   UNL     1      50.657   7.011  16.483  0.00  0.00    +0.000 N 
ATOM      2  C   UNL     1      49.484   6.284  16.414  0.00  0.00    +0.000 C 
ATOM      3  O   UNL     1      49.135   5.475  17.269  0.00  0.00    +0.000 OA
ATOM      4  H   UNL     1      50.804   7.704  15.757  0.00  0.00    +0.000 HD
ENDROOT
BRANCH   2   5
ATOM      5  C   UNL     1      48.621   6.549  15.214  0.00  0.00    +0.000 A 
ATOM      6  C   UNL     1      48.579   7.830  14.673  0.00  0.00    +0.000 A 
ATOM      7  C   UNL     1      47.796   8.052  13.542  0.00  0.00    +0.000 A 
ATOM      8  C   UNL     1      47.067   6.997  12.987  0.00  0.00    +0.000 A 
ATOM      9  C   UNL     1      47.174   5.750  13.603  0.00  0.00    +0.000 A 
ATOM     10  N   UNL     1      47.929   5.494  14.702  0.00  0.00    +0.000 NA
BRANCH   8  11
ATOM     11  C   UNL     1      46.195   7.198  11.780  0.00  0.00    +0.000 C 
BRANCH  11  12
ATOM     12  N   UNL     1      45.965   5.984  11.043  0.00  0.00    +0.000 N 
ATOM     13  C   UNL     1      44.684   5.515  10.843  0.00  0.00    +0.000 C 
ATOM     14  O   UNL     1      43.686   6.071  11.292  0.00  0.00    +0.000 OA
ATOM     15  H   UNL     1      46.718   5.463  10.603  0.00  0.00    +0.000 HD
BRANCH  13  16
ATOM     16  C   UNL     1      44.625   4.291  10.045  0.00  0.00    +0.000 A 
ATOM     17  C   UNL     1      44.547   4.207   8.668  0.00  0.00    +0.000 A 
ATOM     18  N   UNL     1      44.518   2.873   8.381  0.00  0.00    +0.000 N 
ATOM     19  C   UNL     1      44.578   2.193   9.566  0.00  0.00    +0.000 A 
ATOM     20  N   UNL     1      44.641   3.014  10.592  0.00  0.00    +0.000 NA
ATOM     21  H   UNL     1      44.461   2.456   7.461  0.00  0.00    +0.000 HD
ENDBRANCH  13  16
ENDBRANCH  11  12
ENDBRANCH   8  11
ENDBRANCH   2   5
BRANCH   1  23
ATOM     22  C   UNL     1      52.006   8.307  18.094  0.00  0.00    +0.000 C 
ATOM     23  C   UNL     1      51.542   6.922  17.632  0.00  0.00    +0.000 C 
BRANCH  23  24
ATOM     24  C   UNL     1      52.722   6.038  17.290  0.00  0.00    +0.000 A 
ATOM     25  C   UNL     1      53.722   6.374  16.390  0.00  0.00    +0.000 A 
ATOM     26  S   UNL     1      54.964   5.206  16.289  0.00  0.00    +0.000 S 
ATOM     27  C   UNL     1      54.207   4.213  17.446  0.00  0.00    +0.000 A 
ATOM     28  N   UNL     1      54.775   3.044  17.847  0.00  0.00    +0.000 NA
ATOM     29  C   UNL     1      54.095   2.401  18.737  0.00  0.00    +0.000 A 
ATOM     30  N   UNL     1      52.895   2.816  19.257  0.00  0.00    +0.000 N 
ATOM     31  C   UNL     1      52.284   3.994  18.890  0.00  0.00    +0.000 A 
ATOM     32  O   UNL     1      51.220   4.336  19.395  0.00  0.00    +0.000 OA
ATOM     33  C   UNL     1      53.017   4.757  17.893  0.00  0.00    +0.000 A 
ATOM     34  H   UNL     1      52.411   2.267  19.951  0.00  0.00    +0.000 HD
ENDBRANCH  23  24
ENDBRANCH   1  23
TORSDOF 6
ENDMDL
MODEL 9
REMARK VINA RESULT:    -5.780      2.644      3.903
REMARK INTER + INTRA:          -8.701
REMARK INTER:                  -8.125
REMARK INTRA:                  -0.576
REMARK UNBOUND:                -0.894
REMARK  Name = 
REMARK  7 active torsions:
REMARK  status: ('A' for Active; 'I' for Inactive)
REMARK    1  A    between atoms: C_1  and  C_2
REMARK    2  A    between atoms: C_2  and  N_3
REMARK    3  A    between atoms: C_2  and  C_21
REMARK    4  A    between atoms: C_4  and  C_6
REMARK    5  A    between atoms: C_9  and  C_10
REMARK    6  A    between atoms: C_10  and  N_11
REMARK    7  A    between atoms: C_12  and  C_14
REMARK                            x       y       z     vdW  Elec       q    Type
REMARK                         _______ _______ _______ _____ _____    ______ ____
ROOT
ATOM      1  N   UNL     1      48.991   5.644  17.509  0.00  0.00    +0.000 N 
ATOM      2  C   UNL     1      48.638   4.650  16.616  0.00  0.00    +0.000 C 
ATOM      3  O   UNL     1      48.893   3.462  16.786  0.00  0.00    +0.000 OA
ATOM      4  H   UNL     1      48.662   6.580  17.299  0.00  0.00    +0.000 HD
ENDROOT
BRANCH   2   5
ATOM      5  C   UNL     1      47.892   5.105  15.395  0.00  0.00    +0.000 A 
ATOM      6  C   UNL     1      46.819   4.350  14.931  0.00  0.00    +0.000 A 
ATOM      7  C   UNL     1      46.118   4.802  13.814  0.00  0.00    +0.000 A 
ATOM      8  C   UNL     1      46.510   5.985  13.183  0.00  0.00    +0.000 A 
ATOM      9  C   UNL     1      47.598   6.670  13.724  0.00  0.00    +0.000 A 
ATOM     10  N   UNL     1      48.303   6.265  14.812  0.00  0.00    +0.000 NA
BRANCH   8  11
ATOM     11  C   UNL     1      45.795   6.496  11.965  0.00  0.00    +0.000 C 
BRANCH  11  12
ATOM     12  N   UNL     1      45.990   5.664  10.807  0.00  0.00    +0.000 N 
ATOM     13  C   UNL     1      44.945   4.934  10.282  0.00  0.00    +0.000 C 
ATOM     14  O   UNL     1      43.820   4.923  10.771  0.00  0.00    +0.000 OA
ATOM     15  H   UNL     1      46.874   5.625  10.307  0.00  0.00    +0.000 HD
BRANCH  13  16
ATOM     16  C   UNL     1      45.305   4.171   9.087  0.00  0.00    +0.000 A 
ATOM     17  C   UNL     1      44.963   2.861   8.811  0.00  0.00    +0.000 A 
ATOM     18  N   UNL     1      45.515   2.585   7.593  0.00  0.00    +0.000 N 
ATOM     19  C   UNL     1      46.165   3.711   7.168  0.00  0.00    +0.000 A 
ATOM     20  N   UNL     1      46.063   4.688   8.044  0.00  0.00    +0.000 NA
ATOM     21  H   UNL     1      45.459   1.709   7.090  0.00  0.00    +0.000 HD
ENDBRANCH  13  16
ENDBRANCH  11  12
ENDBRANCH   8  11
ENDBRANCH   2   5
BRANCH   1  23
ATOM     22  C   UNL     1      48.665   4.674  19.756  0.00  0.00    +0.000 C 
ATOM     23  C   UNL     1      49.636   5.337  18.774  0.00  0.00    +0.000 C 
BRANCH  23  24
ATOM     24  C   UNL     1      50.222   6.603  19.359  0.00  0.00    +0.000 A 
ATOM     25  C   UNL     1      51.553   6.762  19.718  0.00  0.00    +0.000 A 
ATOM     26  S   UNL     1      51.925   8.336  20.264  0.00  0.00    +0.000 S 
ATOM     27  C   UNL     1      50.321   8.860  20.038  0.00  0.00    +0.000 A 
ATOM     28  N   UNL     1      49.959  10.145  20.297  0.00  0.00    +0.000 NA
ATOM     29  C   UNL     1      48.713  10.402  20.069  0.00  0.00    +0.000 A 
ATOM     30  N   UNL     1      47.796   9.489  19.615  0.00  0.00    +0.000 N 
ATOM     31  C   UNL     1      48.114   8.179  19.331  0.00  0.00    +0.000 A 
ATOM     32  O   UNL     1      47.265   7.402  18.908  0.00  0.00    +0.000 OA
ATOM     33  C   UNL     1      49.509   7.844  19.566  0.00  0.00    +0.000 A 
ATOM     34  H   UNL     1      46.834   9.752  19.458  0.00  0.00    +0.000 HD
ENDBRANCH  23  24
ENDBRANCH   1  23
TORSDOF 6
ENDMDL
