MODEL 1
REMARK VINA RESULT:    -8.045      0.000      0.000
REMARK INTER + INTRA:         -12.813
REMARK INTER:                 -11.572
REMARK INTRA:                  -1.241
REMARK UNBOUND:                -1.241
REMARK  Name = 
REMARK  8 active torsions:
REMARK  status: ('A' for Active; 'I' for Inactive)
REMARK    1  A    between atoms: N_1  and  C_2
REMARK    2  A    between atoms: C_2  and  C_3
REMARK    3  A    between atoms: C_3  and  N_4
REMARK    4  A    between atoms: C_3  and  C_17
REMARK    5  A    between atoms: C_5  and  C_7
REMARK    6  A    between atoms: C_20  and  O_21
REMARK    7  A    between atoms: O_21  and  C_22
REMARK    8  A    between atoms: C_22  and  C_23
REMARK                            x       y       z     vdW  Elec       q    Type
REMARK                         _______ _______ _______ _____ _____    ______ ____
ROOT
ATOM      1  C   UNL     1      47.940   6.766  13.659  0.00  0.00    +0.000 C 
ENDROOT
BRANCH   1   2
ATOM      2  C   UNL     1      46.893   5.960  12.894  0.00  0.00    +0.000 A 
ATOM      3  C   UNL     1      46.258   6.486  11.761  0.00  0.00    +0.000 A 
ATOM      4  C   UNL     1      45.323   5.720  11.054  0.00  0.00    +0.000 A 
ATOM      5  C   UNL     1      45.023   4.419  11.460  0.00  0.00    +0.000 A 
ATOM      6  C   UNL     1      45.620   3.906  12.610  0.00  0.00    +0.000 A 
ATOM      7  C   UNL     1      46.561   4.660  13.309  0.00  0.00    +0.000 A 
BRANCH   5   8
ATOM      8  O   UNL     1      44.143   3.729  10.667  0.00  0.00    +0.000 OA
BRANCH   8   9
ATOM      9  C   UNL     1      44.170   4.099   9.283  0.00  0.00    +0.000 C 
BRANCH   9  10
ATOM     10  C   UNL     1      45.208   3.318   8.512  0.00  0.00    +0.000 A 
ATOM     11  C   UNL     1      45.428   1.965   8.757  0.00  0.00    +0.000 A 
ATOM     12  C   UNL     1      46.412   1.303   8.028  0.00  0.00    +0.000 A 
ATOM     13  C   UNL     1      47.157   2.008   7.090  0.00  0.00    +0.000 A 
ATOM     14  C   UNL     1      46.893   3.355   6.923  0.00  0.00    +0.000 A 
ATOM     15  N   UNL     1      45.945   4.022   7.613  0.00  0.00    +0.000 NA
ENDBRANCH   9  10
ENDBRANCH   8   9
ENDBRANCH   5   8
ENDBRANCH   1   2
BRANCH   1  16
ATOM     16  N   UNL     1      47.906   6.327  15.049  0.00  0.00    +0.000 N 
ATOM     17  C   UNL     1      49.018   6.228  15.840  0.00  0.00    +0.000 C 
ATOM     18  O   UNL     1      50.124   6.628  15.493  0.00  0.00    +0.000 OA
ATOM     19  H   UNL     1      47.104   5.753  15.295  0.00  0.00    +0.000 HD
BRANCH  17  20
ATOM     20  C   UNL     1      48.800   5.663  17.176  0.00  0.00    +0.000 A 
ATOM     21  C   UNL     1      48.997   4.308  17.400  0.00  0.00    +0.000 A 
ATOM     22  S   UNL     1      48.697   3.836  19.012  0.00  0.00    +0.000 S 
ATOM     23  C   UNL     1      48.246   5.417  19.451  0.00  0.00    +0.000 A 
ATOM     24  N   UNL     1      47.824   5.705  20.712  0.00  0.00    +0.000 NA
ATOM     25  C   UNL     1      47.477   6.935  20.890  0.00  0.00    +0.000 A 
ATOM     26  N   UNL     1      47.528   7.911  19.929  0.00  0.00    +0.000 N 
ATOM     27  C   UNL     1      47.999   7.678  18.658  0.00  0.00    +0.000 A 
ATOM     28  O   UNL     1      48.121   8.586  17.848  0.00  0.00    +0.000 OA
ATOM     29  C   UNL     1      48.360   6.299  18.393  0.00  0.00    +0.000 A 
ATOM     30  H   UNL     1      47.270   8.864  20.141  0.00  0.00    +0.000 HD
ENDBRANCH  17  20
ENDBRANCH   1  16
BRANCH   1  31
ATOM     31  C   UNL     1      47.689   8.297  13.504  0.00  0.00    +0.000 C 
BRANCH  31  32
ATOM     32  N   UNL     1      47.152   8.950  14.707  0.00  0.00    +0.000 NA
ATOM     33  H   UNL     1      46.245   9.355  14.480  0.00  0.00    +0.000 HD
ATOM     34  H   UNL     1      47.755   9.731  14.969  0.00  0.00    +0.000 HD
ENDBRANCH  31  32
ENDBRANCH   1  31
TORSDOF 8
ENDMDL
MODEL 2
REMARK VINA RESULT:    -7.867      2.032      2.759
REMARK INTER + INTRA:         -12.556
REMARK INTER:                 -11.670
REMARK INTRA:                  -0.886
REMARK UNBOUND:                -1.241
REMARK  Name = 
REMARK  8 active torsions:
REMARK  status: ('A' for Active; 'I' for Inactive)
REMARK    1  A    between atoms: N_1  and  C_2
REMARK    2  A    between atoms: C_2  and  C_3
REMARK    3  A    between atoms: C_3  and  N_4
REMARK    4  A    between atoms: C_3  and  C_17
REMARK    5  A    between atoms: C_5  and  C_7
REMARK    6  A    between atoms: C_20  and  O_21
REMARK    7  A    between atoms: O_21  and  C_22
REMARK    8  A    between atoms: C_22  and  C_23
REMARK                            x       y       z     vdW  Elec       q    Type
REMARK                         _______ _______ _______ _____ _____    ______ ____
ROOT
ATOM      1  C   UNL     1      46.695   8.086  12.924  0.00  0.00    +0.000 C 
ENDROOT
BRANCH   1   2
ATOM      2  C   UNL     1      46.093   6.878  12.208  0.00  0.00    +0.000 A 
ATOM      3  C   UNL     1      45.170   6.041  12.849  0.00  0.00    +0.000 A 
ATOM      4  C   UNL     1      44.606   4.957  12.166  0.00  0.00    +0.000 A 
ATOM      5  C   UNL     1      44.942   4.706  10.835  0.00  0.00    +0.000 A 
ATOM      6  C   UNL     1      45.890   5.512  10.206  0.00  0.00    +0.000 A 
ATOM      7  C   UNL     1      46.445   6.599  10.878  0.00  0.00    +0.000 A 
BRANCH   5   8
ATOM      8  O   UNL     1      44.289   3.661  10.235  0.00  0.00    +0.000 OA
BRANCH   8   9
ATOM      9  C   UNL     1      44.229   3.737   8.805  0.00  0.00    +0.000 C 
BRANCH   9  10
ATOM     10  C   UNL     1      45.359   2.975   8.154  0.00  0.00    +0.000 A 
ATOM     11  C   UNL     1      46.158   3.559   7.174  0.00  0.00    +0.000 A 
ATOM     12  C   UNL     1      47.172   2.800   6.597  0.00  0.00    +0.000 A 
ATOM     13  C   UNL     1      47.353   1.482   6.999  0.00  0.00    +0.000 A 
ATOM     14  C   UNL     1      46.503   0.970   7.961  0.00  0.00    +0.000 A 
ATOM     15  N   UNL     1      45.513   1.681   8.539  0.00  0.00    +0.000 NA
ENDBRANCH   9  10
ENDBRANCH   8   9
ENDBRANCH   5   8
ENDBRANCH   1   2
BRANCH   1  16
ATOM     16  N   UNL     1      47.235   7.620  14.197  0.00  0.00    +0.000 N 
ATOM     17  C   UNL     1      48.336   6.814  14.303  0.00  0.00    +0.000 C 
ATOM     18  O   UNL     1      49.047   6.523  13.348  0.00  0.00    +0.000 OA
ATOM     19  H   UNL     1      46.567   7.602  14.962  0.00  0.00    +0.000 HD
BRANCH  17  20
ATOM     20  C   UNL     1      48.662   6.359  15.659  0.00  0.00    +0.000 A 
ATOM     21  C   UNL     1      49.498   7.117  16.466  0.00  0.00    +0.000 A 
ATOM     22  S   UNL     1      49.760   6.430  18.006  0.00  0.00    +0.000 S 
ATOM     23  C   UNL     1      48.805   5.074  17.626  0.00  0.00    +0.000 A 
ATOM     24  N   UNL     1      48.644   4.054  18.513  0.00  0.00    +0.000 NA
ATOM     25  C   UNL     1      47.927   3.075  18.074  0.00  0.00    +0.000 A 
ATOM     26  N   UNL     1      47.340   3.025  16.837  0.00  0.00    +0.000 N 
ATOM     27  C   UNL     1      47.430   4.055  15.930  0.00  0.00    +0.000 A 
ATOM     28  O   UNL     1      46.820   4.026  14.870  0.00  0.00    +0.000 OA
ATOM     29  C   UNL     1      48.263   5.162  16.357  0.00  0.00    +0.000 A 
ATOM     30  H   UNL     1      46.764   2.241  16.564  0.00  0.00    +0.000 HD
ENDBRANCH  17  20
ENDBRANCH   1  16
BRANCH   1  31
ATOM     31  C   UNL     1      45.637   9.218  13.097  0.00  0.00    +0.000 C 
BRANCH  31  32
ATOM     32  N   UNL     1      45.821  10.363  12.192  0.00  0.00    +0.000 NA
ATOM     33  H   UNL     1      46.275  11.115  12.707  0.00  0.00    +0.000 HD
ATOM     34  H   UNL     1      44.908  10.723  11.909  0.00  0.00    +0.000 HD
ENDBRANCH  31  32
ENDBRANCH   1  31
TORSDOF 8
ENDMDL
MODEL 3
REMARK VINA RESULT:    -7.608      1.368      2.132
REMARK INTER + INTRA:         -12.185
REMARK INTER:                 -11.133
REMARK INTRA:                  -1.052
REMARK UNBOUND:                -1.241
REMARK  Name = 
REMARK  8 active torsions:
REMARK  status: ('A' for Active; 'I' for Inactive)
REMARK    1  A    between atoms: N_1  and  C_2
REMARK    2  A    between atoms: C_2  and  C_3
REMARK    3  A    between atoms: C_3  and  N_4
REMARK    4  A    between atoms: C_3  and  C_17
REMARK    5  A    between atoms: C_5  and  C_7
REMARK    6  A    between atoms: C_20  and  O_21
REMARK    7  A    between atoms: O_21  and  C_22
REMARK    8  A    between atoms: C_22  and  C_23
REMARK                            x       y       z     vdW  Elec       q    Type
REMARK                         _______ _______ _______ _____ _____    ______ ____
ROOT
ATOM      1  C   UNL     1      48.530   7.137  13.483  0.00  0.00    +0.000 C 
ENDROOT
BRANCH   1   2
ATOM      2  C   UNL     1      47.398   6.332  12.848  0.00  0.00    +0.000 A 
ATOM      3  C   UNL     1      46.996   5.101  13.382  0.00  0.00    +0.000 A 
ATOM      4  C   UNL     1      45.936   4.391  12.804  0.00  0.00    +0.000 A 
ATOM      5  C   UNL     1      45.258   4.908  11.700  0.00  0.00    +0.000 A 
ATOM      6  C   UNL     1      45.680   6.113  11.140  0.00  0.00    +0.000 A 
ATOM      7  C   UNL     1      46.726   6.827  11.719  0.00  0.00    +0.000 A 
BRANCH   5   8
ATOM      8  O   UNL     1      44.195   4.170  11.247  0.00  0.00    +0.000 OA
BRANCH   8   9
ATOM      9  C   UNL     1      43.908   4.332   9.851  0.00  0.00    +0.000 C 
BRANCH   9  10
ATOM     10  C   UNL     1      44.882   3.569   8.985  0.00  0.00    +0.000 A 
ATOM     11  C   UNL     1      45.088   2.202   9.154  0.00  0.00    +0.000 A 
ATOM     12  C   UNL     1      46.012   1.558   8.338  0.00  0.00    +0.000 A 
ATOM     13  C   UNL     1      46.714   2.292   7.388  0.00  0.00    +0.000 A 
ATOM     14  C   UNL     1      46.468   3.649   7.299  0.00  0.00    +0.000 A 
ATOM     15  N   UNL     1      45.577   4.300   8.074  0.00  0.00    +0.000 NA
ENDBRANCH   9  10
ENDBRANCH   8   9
ENDBRANCH   5   8
ENDBRANCH   1   2
BRANCH   1  16
ATOM     16  N   UNL     1      48.300   7.161  14.923  0.00  0.00    +0.000 N 
ATOM     17  C   UNL     1      49.273   6.901  15.850  0.00  0.00    +0.000 C 
ATOM     18  O   UNL     1      50.455   6.758  15.558  0.00  0.00    +0.000 OA
ATOM     19  H   UNL     1      47.335   7.011  15.204  0.00  0.00    +0.000 HD
BRANCH  17  20
ATOM     20  C   UNL     1      48.827   6.863  17.247  0.00  0.00    +0.000 A 
ATOM     21  C   UNL     1      48.337   8.011  17.853  0.00  0.00    +0.000 A 
ATOM     22  S   UNL     1      47.866   7.773  19.476  0.00  0.00    +0.000 S 
ATOM     23  C   UNL     1      48.347   6.141  19.436  0.00  0.00    +0.000 A 
ATOM     24  N   UNL     1      48.253   5.351  20.540  0.00  0.00    +0.000 NA
ATOM     25  C   UNL     1      48.691   4.149  20.373  0.00  0.00    +0.000 A 
ATOM     26  N   UNL     1      49.200   3.655  19.201  0.00  0.00    +0.000 N 
ATOM     27  C   UNL     1      49.264   4.399  18.047  0.00  0.00    +0.000 A 
ATOM     28  O   UNL     1      49.636   3.907  16.990  0.00  0.00    +0.000 OA
ATOM     29  C   UNL     1      48.824   5.773  18.192  0.00  0.00    +0.000 A 
ATOM     30  H   UNL     1      49.500   2.693  19.127  0.00  0.00    +0.000 HD
ENDBRANCH  17  20
ENDBRANCH   1  16
BRANCH   1  31
ATOM     31  C   UNL     1      48.615   8.565  12.862  0.00  0.00    +0.000 C 
BRANCH  31  32
ATOM     32  N   UNL     1      47.995   9.620  13.678  0.00  0.00    +0.000 NA
ATOM     33  H   UNL     1      47.067   9.817  13.305  0.00  0.00    +0.000 HD
ATOM     34  H   UNL     1      48.529  10.484  13.581  0.00  0.00    +0.000 HD
ENDBRANCH  31  32
ENDBRANCH   1  31
TORSDOF 8
ENDMDL
MODEL 4
REMARK VINA RESULT:    -7.586      3.264      4.837
REMARK INTER + INTRA:         -12.152
REMARK INTER:                 -10.754
REMARK INTRA:                  -1.398
REMARK UNBOUND:                -1.241
REMARK  Name = 
REMARK  8 active torsions:
REMARK  status: ('A' for Active; 'I' for Inactive)
REMARK    1  A    between atoms: N_1  and  C_2
REMARK    2  A    between atoms: C_2  and  C_3
REMARK    3  A    between atoms: C_3  and  N_4
REMARK    4  A    between atoms: C_3  and  C_17
REMARK    5  A    between atoms: C_5  and  C_7
REMARK    6  A    between atoms: C_20  and  O_21
REMARK    7  A    between atoms: O_21  and  C_22
REMARK    8  A    between atoms: C_22  and  C_23
REMARK                            x       y       z     vdW  Elec       q    Type
REMARK                         _______ _______ _______ _____ _____    ______ ____
ROOT
ATOM      1  C   UNL     1      46.756   5.728  14.027  0.00  0.00    +0.000 C 
ENDROOT
BRANCH   1   2
ATOM      2  C   UNL     1      46.086   5.117  12.799  0.00  0.00    +0.000 A 
ATOM      3  C   UNL     1      45.624   3.794  12.807  0.00  0.00    +0.000 A 
ATOM      4  C   UNL     1      44.984   3.261  11.681  0.00  0.00    +0.000 A 
ATOM      5  C   UNL     1      44.786   4.044  10.544  0.00  0.00    +0.000 A 
ATOM      6  C   UNL     1      45.280   5.347  10.515  0.00  0.00    +0.000 A 
ATOM      7  C   UNL     1      45.906   5.885  11.637  0.00  0.00    +0.000 A 
BRANCH   5   8
ATOM      8  O   UNL     1      44.095   3.452   9.518  0.00  0.00    +0.000 OA
BRANCH   8   9
ATOM      9  C   UNL     1      44.550   2.137   9.173  0.00  0.00    +0.000 C 
BRANCH   9  10
ATOM     10  C   UNL     1      45.662   2.177   8.152  0.00  0.00    +0.000 A 
ATOM     11  C   UNL     1      45.815   3.257   7.287  0.00  0.00    +0.000 A 
ATOM     12  C   UNL     1      46.848   3.228   6.354  0.00  0.00    +0.000 A 
ATOM     13  C   UNL     1      47.688   2.122   6.300  0.00  0.00    +0.000 A 
ATOM     14  C   UNL     1      47.455   1.080   7.178  0.00  0.00    +0.000 A 
ATOM     15  N   UNL     1      46.464   1.081   8.093  0.00  0.00    +0.000 NA
ENDBRANCH   9  10
ENDBRANCH   8   9
ENDBRANCH   5   8
ENDBRANCH   1   2
BRANCH   1  16
ATOM     16  N   UNL     1      47.896   6.511  13.565  0.00  0.00    +0.000 N 
ATOM     17  C   UNL     1      47.913   7.880  13.535  0.00  0.00    +0.000 C 
ATOM     18  O   UNL     1      47.024   8.571  14.021  0.00  0.00    +0.000 OA
ATOM     19  H   UNL     1      48.520   6.022  12.929  0.00  0.00    +0.000 HD
BRANCH  17  20
ATOM     20  C   UNL     1      49.105   8.487  12.934  0.00  0.00    +0.000 A 
ATOM     21  C   UNL     1      48.992   9.246  11.777  0.00  0.00    +0.000 A 
ATOM     22  S   UNL     1      50.482   9.871  11.228  0.00  0.00    +0.000 S 
ATOM     23  C   UNL     1      51.332   9.108  12.489  0.00  0.00    +0.000 A 
ATOM     24  N   UNL     1      52.686   9.201  12.583  0.00  0.00    +0.000 NA
ATOM     25  C   UNL     1      53.198   8.539  13.566  0.00  0.00    +0.000 A 
ATOM     26  N   UNL     1      52.482   7.805  14.476  0.00  0.00    +0.000 N 
ATOM     27  C   UNL     1      51.110   7.727  14.451  0.00  0.00    +0.000 A 
ATOM     28  O   UNL     1      50.489   7.142  15.328  0.00  0.00    +0.000 OA
ATOM     29  C   UNL     1      50.487   8.418  13.339  0.00  0.00    +0.000 A 
ATOM     30  H   UNL     1      52.942   7.334  15.241  0.00  0.00    +0.000 HD
ENDBRANCH  17  20
ENDBRANCH   1  16
BRANCH   1  31
ATOM     31  C   UNL     1      47.159   4.623  15.051  0.00  0.00    +0.000 C 
BRANCH  31  32
ATOM     32  N   UNL     1      48.294   4.982  15.916  0.00  0.00    +0.000 NA
ATOM     33  H   UNL     1      49.157   4.850  15.392  0.00  0.00    +0.000 HD
ATOM     34  H   UNL     1      48.338   4.335  16.705  0.00  0.00    +0.000 HD
ENDBRANCH  31  32
ENDBRANCH   1  31
TORSDOF 8
ENDMDL
MODEL 5
REMARK VINA RESULT:    -7.479      2.636      4.144
REMARK INTER + INTRA:         -11.999
REMARK INTER:                 -10.719
REMARK INTRA:                  -1.279
REMARK UNBOUND:                -1.241
REMARK  Name = 
REMARK  8 active torsions:
REMARK  status: ('A' for Active; 'I' for Inactive)
REMARK    1  A    between atoms: N_1  and  C_2
REMARK    2  A    between atoms: C_2  and  C_3
REMARK    3  A    between atoms: C_3  and  N_4
REMARK    4  A    between atoms: C_3  and  C_17
REMARK    5  A    between atoms: C_5  and  C_7
REMARK    6  A    between atoms: C_20  and  O_21
REMARK    7  A    between atoms: O_21  and  C_22
REMARK    8  A    between atoms: C_22  and  C_23
REMARK                            x       y       z     vdW  Elec       q    Type
REMARK                         _______ _______ _______ _____ _____    ______ ____
ROOT
ATOM      1  C   UNL     1      46.919   4.980  14.952  0.00  0.00    +0.000 C 
ENDROOT
BRANCH   1   2
ATOM      2  C   UNL     1      46.281   4.724  13.588  0.00  0.00    +0.000 A 
ATOM      3  C   UNL     1      45.925   3.431  13.185  0.00  0.00    +0.000 A 
ATOM      4  C   UNL     1      45.313   3.220  11.943  0.00  0.00    +0.000 A 
ATOM      5  C   UNL     1      45.037   4.296  11.099  0.00  0.00    +0.000 A 
ATOM      6  C   UNL     1      45.427   5.580  11.477  0.00  0.00    +0.000 A 
ATOM      7  C   UNL     1      46.024   5.795  12.718  0.00  0.00    +0.000 A 
BRANCH   5   8
ATOM      8  O   UNL     1      44.380   3.995   9.935  0.00  0.00    +0.000 OA
BRANCH   8   9
ATOM      9  C   UNL     1      44.497   2.627   9.520  0.00  0.00    +0.000 C 
BRANCH   9  10
ATOM     10  C   UNL     1      45.509   2.460   8.412  0.00  0.00    +0.000 A 
ATOM     11  C   UNL     1      45.744   3.472   7.484  0.00  0.00    +0.000 A 
ATOM     12  C   UNL     1      46.676   3.251   6.474  0.00  0.00    +0.000 A 
ATOM     13  C   UNL     1      47.334   2.029   6.407  0.00  0.00    +0.000 A 
ATOM     14  C   UNL     1      47.027   1.068   7.352  0.00  0.00    +0.000 A 
ATOM     15  N   UNL     1      46.131   1.253   8.343  0.00  0.00    +0.000 NA
ENDBRANCH   9  10
ENDBRANCH   8   9
ENDBRANCH   5   8
ENDBRANCH   1   2
BRANCH   1  16
ATOM     16  N   UNL     1      48.052   5.876  14.749  0.00  0.00    +0.000 N 
ATOM     17  C   UNL     1      48.736   6.476  15.772  0.00  0.00    +0.000 C 
ATOM     18  O   UNL     1      48.545   6.208  16.953  0.00  0.00    +0.000 OA
ATOM     19  H   UNL     1      48.080   6.327  13.839  0.00  0.00    +0.000 HD
BRANCH  17  20
ATOM     20  C   UNL     1      49.773   7.431  15.368  0.00  0.00    +0.000 A 
ATOM     21  C   UNL     1      51.098   7.209  15.715  0.00  0.00    +0.000 A 
ATOM     22  S   UNL     1      52.159   8.423  15.157  0.00  0.00    +0.000 S 
ATOM     23  C   UNL     1      50.876   9.311  14.477  0.00  0.00    +0.000 A 
ATOM     24  N   UNL     1      51.092  10.508  13.867  0.00  0.00    +0.000 NA
ATOM     25  C   UNL     1      50.022  11.086  13.434  0.00  0.00    +0.000 A 
ATOM     26  N   UNL     1      48.756  10.571  13.537  0.00  0.00    +0.000 N 
ATOM     27  C   UNL     1      48.497   9.342  14.096  0.00  0.00    +0.000 A 
ATOM     28  O   UNL     1      47.370   8.865  14.093  0.00  0.00    +0.000 OA
ATOM     29  C   UNL     1      49.661   8.670  14.640  0.00  0.00    +0.000 A 
ATOM     30  H   UNL     1      47.962  11.061  13.150  0.00  0.00    +0.000 HD
ENDBRANCH  17  20
ENDBRANCH   1  16
BRANCH   1  31
ATOM     31  C   UNL     1      47.326   3.640  15.638  0.00  0.00    +0.000 C 
BRANCH  31  32
ATOM     32  N   UNL     1      46.832   3.488  17.016  0.00  0.00    +0.000 NA
ATOM     33  H   UNL     1      46.062   4.139  17.159  0.00  0.00    +0.000 HD
ATOM     34  H   UNL     1      47.564   3.765  17.672  0.00  0.00    +0.000 HD
ENDBRANCH  31  32
ENDBRANCH   1  31
TORSDOF 8
ENDMDL
MODEL 6
REMARK VINA RESULT:    -6.862      2.208      2.974
REMARK INTER + INTRA:         -11.112
REMARK INTER:                  -9.692
REMARK INTRA:                  -1.419
REMARK UNBOUND:                -1.241
REMARK  Name = 
REMARK  8 active torsions:
REMARK  status: ('A' for Active; 'I' for Inactive)
REMARK    1  A    between atoms: N_1  and  C_2
REMARK    2  A    between atoms: C_2  and  C_3
REMARK    3  A    between atoms: C_3  and  N_4
REMARK    4  A    between atoms: C_3  and  C_17
REMARK    5  A    between atoms: C_5  and  C_7
REMARK    6  A    between atoms: C_20  and  O_21
REMARK    7  A    between atoms: O_21  and  C_22
REMARK    8  A    between atoms: C_22  and  C_23
REMARK                            x       y       z     vdW  Elec       q    Type
REMARK                         _______ _______ _______ _____ _____    ______ ____
ROOT
ATOM      1  C   UNL     1      48.946   8.651  14.395  0.00  0.00    +0.000 C 
ENDROOT
BRANCH   1   2
ATOM      2  C   UNL     1      47.875   8.147  13.429  0.00  0.00    +0.000 A 
ATOM      3  C   UNL     1      48.127   7.077  12.561  0.00  0.00    +0.000 A 
ATOM      4  C   UNL     1      47.123   6.610  11.704  0.00  0.00    +0.000 A 
ATOM      5  C   UNL     1      45.856   7.194  11.715  0.00  0.00    +0.000 A 
ATOM      6  C   UNL     1      45.612   8.286  12.546  0.00  0.00    +0.000 A 
ATOM      7  C   UNL     1      46.605   8.745  13.409  0.00  0.00    +0.000 A 
BRANCH   5   8
ATOM      8  O   UNL     1      44.924   6.625  10.885  0.00  0.00    +0.000 OA
BRANCH   8   9
ATOM      9  C   UNL     1      44.569   5.278  11.222  0.00  0.00    +0.000 C 
BRANCH   9  10
ATOM     10  C   UNL     1      44.904   4.313  10.109  0.00  0.00    +0.000 A 
ATOM     11  C   UNL     1      45.572   4.733   8.962  0.00  0.00    +0.000 A 
ATOM     12  C   UNL     1      45.836   3.801   7.962  0.00  0.00    +0.000 A 
ATOM     13  C   UNL     1      45.418   2.485   8.126  0.00  0.00    +0.000 A 
ATOM     14  C   UNL     1      44.741   2.155   9.285  0.00  0.00    +0.000 A 
ATOM     15  N   UNL     1      44.472   3.035  10.271  0.00  0.00    +0.000 NA
ENDBRANCH   9  10
ENDBRANCH   8   9
ENDBRANCH   5   8
ENDBRANCH   1   2
BRANCH   1  16
ATOM     16  N   UNL     1      48.976   7.739  15.534  0.00  0.00    +0.000 N 
ATOM     17  C   UNL     1      50.066   6.982  15.868  0.00  0.00    +0.000 C 
ATOM     18  O   UNL     1      51.158   7.102  15.323  0.00  0.00    +0.000 OA
ATOM     19  H   UNL     1      48.065   7.410  15.840  0.00  0.00    +0.000 HD
BRANCH  17  20
ATOM     20  C   UNL     1      49.871   6.043  16.978  0.00  0.00    +0.000 A 
ATOM     21  C   UNL     1      50.685   6.109  18.099  0.00  0.00    +0.000 A 
ATOM     22  S   UNL     1      50.308   4.940  19.283  0.00  0.00    +0.000 S 
ATOM     23  C   UNL     1      49.076   4.275  18.315  0.00  0.00    +0.000 A 
ATOM     24  N   UNL     1      48.364   3.191  18.726  0.00  0.00    +0.000 NA
ATOM     25  C   UNL     1      47.490   2.772  17.873  0.00  0.00    +0.000 A 
ATOM     26  N   UNL     1      47.248   3.347  16.652  0.00  0.00    +0.000 N 
ATOM     27  C   UNL     1      47.904   4.474  16.219  0.00  0.00    +0.000 A 
ATOM     28  O   UNL     1      47.605   5.021  15.166  0.00  0.00    +0.000 OA
ATOM     29  C   UNL     1      48.929   4.960  17.122  0.00  0.00    +0.000 A 
ATOM     30  H   UNL     1      46.528   2.988  16.042  0.00  0.00    +0.000 HD
ENDBRANCH  17  20
ENDBRANCH   1  16
BRANCH   1  31
ATOM     31  C   UNL     1      48.671  10.128  14.813  0.00  0.00    +0.000 C 
BRANCH  31  32
ATOM     32  N   UNL     1      48.531  10.333  16.263  0.00  0.00    +0.000 NA
ATOM     33  H   UNL     1      47.545  10.267  16.508  0.00  0.00    +0.000 HD
ATOM     34  H   UNL     1      48.821  11.282  16.502  0.00  0.00    +0.000 HD
ENDBRANCH  31  32
ENDBRANCH   1  31
TORSDOF 8
ENDMDL
MODEL 7
REMARK VINA RESULT:    -6.830      1.906      2.473
REMARK INTER + INTRA:         -11.065
REMARK INTER:                  -9.776
REMARK INTRA:                  -1.290
REMARK UNBOUND:                -1.241
REMARK  Name = 
REMARK  8 active torsions:
REMARK  status: ('A' for Active; 'I' for Inactive)
REMARK    1  A    between atoms: N_1  and  C_2
REMARK    2  A    between atoms: C_2  and  C_3
REMARK    3  A    between atoms: C_3  and  N_4
REMARK    4  A    between atoms: C_3  and  C_17
REMARK    5  A    between atoms: C_5  and  C_7
REMARK    6  A    between atoms: C_20  and  O_21
REMARK    7  A    between atoms: O_21  and  C_22
REMARK    8  A    between atoms: C_22  and  C_23
REMARK                            x       y       z     vdW  Elec       q    Type
REMARK                         _______ _______ _______ _____ _____    ______ ____
ROOT
ATOM      1  C   UNL     1      48.830   7.829  13.607  0.00  0.00    +0.000 C 
ENDROOT
BRANCH   1   2
ATOM      2  C   UNL     1      47.772   6.879  13.050  0.00  0.00    +0.000 A 
ATOM      3  C   UNL     1      47.437   5.695  13.719  0.00  0.00    +0.000 A 
ATOM      4  C   UNL     1      46.443   4.851  13.209  0.00  0.00    +0.000 A 
ATOM      5  C   UNL     1      45.763   5.186  12.037  0.00  0.00    +0.000 A 
ATOM      6  C   UNL     1      46.121   6.342  11.345  0.00  0.00    +0.000 A 
ATOM      7  C   UNL     1      47.101   7.191  11.857  0.00  0.00    +0.000 A 
BRANCH   5   8
ATOM      8  O   UNL     1      44.765   4.329  11.654  0.00  0.00    +0.000 OA
BRANCH   8   9
ATOM      9  C   UNL     1      44.283   4.532  10.319  0.00  0.00    +0.000 C 
BRANCH   9  10
ATOM     10  C   UNL     1      45.086   3.751   9.306  0.00  0.00    +0.000 A 
ATOM     11  C   UNL     1      45.753   4.387   8.262  0.00  0.00    +0.000 A 
ATOM     12  C   UNL     1      46.461   3.612   7.348  0.00  0.00    +0.000 A 
ATOM     13  C   UNL     1      46.473   2.229   7.490  0.00  0.00    +0.000 A 
ATOM     14  C   UNL     1      45.766   1.674   8.540  0.00  0.00    +0.000 A 
ATOM     15  N   UNL     1      45.073   2.399   9.442  0.00  0.00    +0.000 NA
ENDBRANCH   9  10
ENDBRANCH   8   9
ENDBRANCH   5   8
ENDBRANCH   1   2
BRANCH   1  16
ATOM     16  N   UNL     1      49.462   7.169  14.744  0.00  0.00    +0.000 N 
ATOM     17  C   UNL     1      50.678   7.538  15.254  0.00  0.00    +0.000 C 
ATOM     18  O   UNL     1      51.282   8.540  14.887  0.00  0.00    +0.000 OA
ATOM     19  H   UNL     1      49.157   6.214  14.905  0.00  0.00    +0.000 HD
BRANCH  17  20
ATOM     20  C   UNL     1      51.201   6.686  16.326  0.00  0.00    +0.000 A 
ATOM     21  C   UNL     1      52.529   6.282  16.311  0.00  0.00    +0.000 A 
ATOM     22  S   UNL     1      52.955   5.298  17.638  0.00  0.00    +0.000 S 
ATOM     23  C   UNL     1      51.367   5.340  18.251  0.00  0.00    +0.000 A 
ATOM     24  N   UNL     1      51.027   4.650  19.374  0.00  0.00    +0.000 NA
ATOM     25  C   UNL     1      49.781   4.742  19.698  0.00  0.00    +0.000 A 
ATOM     26  N   UNL     1      48.844   5.473  19.014  0.00  0.00    +0.000 N 
ATOM     27  C   UNL     1      49.154   6.227  17.908  0.00  0.00    +0.000 A 
ATOM     28  O   UNL     1      48.320   6.944  17.371  0.00  0.00    +0.000 OA
ATOM     29  C   UNL     1      50.534   6.124  17.475  0.00  0.00    +0.000 A 
ATOM     30  H   UNL     1      47.889   5.528  19.338  0.00  0.00    +0.000 HD
ENDBRANCH  17  20
ENDBRANCH   1  16
BRANCH   1  31
ATOM     31  C   UNL     1      48.201   9.206  13.982  0.00  0.00    +0.000 C 
BRANCH  31  32
ATOM     32  N   UNL     1      47.458   9.208  15.252  0.00  0.00    +0.000 NA
ATOM     33  H   UNL     1      47.598  10.108  15.710  0.00  0.00    +0.000 HD
ATOM     34  H   UNL     1      47.853   8.506  15.879  0.00  0.00    +0.000 HD
ENDBRANCH  31  32
ENDBRANCH   1  31
TORSDOF 8
ENDMDL
MODEL 8
REMARK VINA RESULT:    -6.776      2.709      3.788
REMARK INTER + INTRA:         -10.987
REMARK INTER:                  -9.791
REMARK INTRA:                  -1.196
REMARK UNBOUND:                -1.241
REMARK  Name = 
REMARK  8 active torsions:
REMARK  status: ('A' for Active; 'I' for Inactive)
REMARK    1  A    between atoms: N_1  and  C_2
REMARK    2  A    between atoms: C_2  and  C_3
REMARK    3  A    between atoms: C_3  and  N_4
REMARK    4  A    between atoms: C_3  and  C_17
REMARK    5  A    between atoms: C_5  and  C_7
REMARK    6  A    between atoms: C_20  and  O_21
REMARK    7  A    between atoms: O_21  and  C_22
REMARK    8  A    between atoms: C_22  and  C_23
REMARK                            x       y       z     vdW  Elec       q    Type
REMARK                         _______ _______ _______ _____ _____    ______ ____
ROOT
ATOM      1  C   UNL     1      47.083   4.873  15.360  0.00  0.00    +0.000 C 
ENDROOT
BRANCH   1   2
ATOM      2  C   UNL     1      46.567   5.000  13.928  0.00  0.00    +0.000 A 
ATOM      3  C   UNL     1      45.710   4.038  13.378  0.00  0.00    +0.000 A 
ATOM      4  C   UNL     1      45.222   4.187  12.074  0.00  0.00    +0.000 A 
ATOM      5  C   UNL     1      45.571   5.302  11.312  0.00  0.00    +0.000 A 
ATOM      6  C   UNL     1      46.456   6.242  11.839  0.00  0.00    +0.000 A 
ATOM      7  C   UNL     1      46.933   6.103  13.140  0.00  0.00    +0.000 A 
BRANCH   5   8
ATOM      8  O   UNL     1      44.992   5.389  10.072  0.00  0.00    +0.000 OA
BRANCH   8   9
ATOM      9  C   UNL     1      44.381   4.177   9.612  0.00  0.00    +0.000 C 
BRANCH   9  10
ATOM     10  C   UNL     1      45.282   3.415   8.669  0.00  0.00    +0.000 A 
ATOM     11  C   UNL     1      45.528   2.055   8.841  0.00  0.00    +0.000 A 
ATOM     12  C   UNL     1      46.383   1.412   7.951  0.00  0.00    +0.000 A 
ATOM     13  C   UNL     1      46.977   2.140   6.927  0.00  0.00    +0.000 A 
ATOM     14  C   UNL     1      46.699   3.491   6.839  0.00  0.00    +0.000 A 
ATOM     15  N   UNL     1      45.874   4.142   7.685  0.00  0.00    +0.000 NA
ENDBRANCH   9  10
ENDBRANCH   8   9
ENDBRANCH   5   8
ENDBRANCH   1   2
BRANCH   1  16
ATOM     16  N   UNL     1      48.195   5.805  15.512  0.00  0.00    +0.000 N 
ATOM     17  C   UNL     1      48.585   6.329  16.715  0.00  0.00    +0.000 C 
ATOM     18  O   UNL     1      48.122   5.957  17.788  0.00  0.00    +0.000 OA
ATOM     19  H   UNL     1      48.426   6.333  14.675  0.00  0.00    +0.000 HD
BRANCH  17  20
ATOM     20  C   UNL     1      49.650   7.335  16.655  0.00  0.00    +0.000 A 
ATOM     21  C   UNL     1      49.334   8.677  16.504  0.00  0.00    +0.000 A 
ATOM     22  S   UNL     1      50.702   9.696  16.456  0.00  0.00    +0.000 S 
ATOM     23  C   UNL     1      51.763   8.372  16.586  0.00  0.00    +0.000 A 
ATOM     24  N   UNL     1      53.113   8.545  16.562  0.00  0.00    +0.000 NA
ATOM     25  C   UNL     1      53.791   7.449  16.631  0.00  0.00    +0.000 A 
ATOM     26  N   UNL     1      53.248   6.195  16.738  0.00  0.00    +0.000 N 
ATOM     27  C   UNL     1      51.894   5.977  16.820  0.00  0.00    +0.000 A 
ATOM     28  O   UNL     1      51.438   4.857  17.008  0.00  0.00    +0.000 OA
ATOM     29  C   UNL     1      51.083   7.174  16.703  0.00  0.00    +0.000 A 
ATOM     30  H   UNL     1      53.837   5.378  16.817  0.00  0.00    +0.000 HD
ENDBRANCH  17  20
ENDBRANCH   1  16
BRANCH   1  31
ATOM     31  C   UNL     1      47.484   3.400  15.681  0.00  0.00    +0.000 C 
BRANCH  31  32
ATOM     32  N   UNL     1      47.232   2.992  17.071  0.00  0.00    +0.000 NA
ATOM     33  H   UNL     1      46.710   3.732  17.538  0.00  0.00    +0.000 HD
ATOM     34  H   UNL     1      48.119   2.912  17.569  0.00  0.00    +0.000 HD
ENDBRANCH  31  32
ENDBRANCH   1  31
TORSDOF 8
ENDMDL
MODEL 9
REMARK VINA RESULT:    -6.406      3.959      8.498
REMARK INTER + INTRA:         -10.456
REMARK INTER:                  -9.375
REMARK INTRA:                  -1.080
REMARK UNBOUND:                -1.241
REMARK  Name = 
REMARK  8 active torsions:
REMARK  status: ('A' for Active; 'I' for Inactive)
REMARK    1  A    between atoms: N_1  and  C_2
REMARK    2  A    between atoms: C_2  and  C_3
REMARK    3  A    between atoms: C_3  and  N_4
REMARK    4  A    between atoms: C_3  and  C_17
REMARK    5  A    between atoms: C_5  and  C_7
REMARK    6  A    between atoms: C_20  and  O_21
REMARK    7  A    between atoms: O_21  and  C_22
REMARK    8  A    between atoms: C_22  and  C_23
REMARK                            x       y       z     vdW  Elec       q    Type
REMARK                         _______ _______ _______ _____ _____    ______ ____
ROOT
ATOM      1  C   UNL     1      47.832   4.045  16.464  0.00  0.00    +0.000 C 
ENDROOT
BRANCH   1   2
ATOM      2  C   UNL     1      49.138   4.785  16.746  0.00  0.00    +0.000 A 
ATOM      3  C   UNL     1      50.202   4.154  17.402  0.00  0.00    +0.000 A 
ATOM      4  C   UNL     1      51.403   4.840  17.624  0.00  0.00    +0.000 A 
ATOM      5  C   UNL     1      51.559   6.154  17.181  0.00  0.00    +0.000 A 
ATOM      6  C   UNL     1      50.489   6.801  16.564  0.00  0.00    +0.000 A 
ATOM      7  C   UNL     1      49.297   6.117  16.330  0.00  0.00    +0.000 A 
BRANCH   5   8
ATOM      8  O   UNL     1      52.791   6.717  17.390  0.00  0.00    +0.000 OA
BRANCH   8   9
ATOM      9  C   UNL     1      53.141   7.750  16.459  0.00  0.00    +0.000 C 
BRANCH   9  10
ATOM     10  C   UNL     1      53.940   7.212  15.296  0.00  0.00    +0.000 A 
ATOM     11  C   UNL     1      54.803   6.129  15.446  0.00  0.00    +0.000 A 
ATOM     12  C   UNL     1      55.527   5.690  14.341  0.00  0.00    +0.000 A 
ATOM     13  C   UNL     1      55.383   6.348  13.125  0.00  0.00    +0.000 A 
ATOM     14  C   UNL     1      54.524   7.429  13.065  0.00  0.00    +0.000 A 
ATOM     15  N   UNL     1      53.808   7.876  14.117  0.00  0.00    +0.000 NA
ENDBRANCH   9  10
ENDBRANCH   8   9
ENDBRANCH   5   8
ENDBRANCH   1   2
BRANCH   1  16
ATOM     16  N   UNL     1      47.080   4.830  15.492  0.00  0.00    +0.000 N 
ATOM     17  C   UNL     1      46.829   4.413  14.213  0.00  0.00    +0.000 C 
ATOM     18  O   UNL     1      47.097   3.286  13.811  0.00  0.00    +0.000 OA
ATOM     19  H   UNL     1      47.070   5.831  15.668  0.00  0.00    +0.000 HD
BRANCH  17  20
ATOM     20  C   UNL     1      46.153   5.387  13.348  0.00  0.00    +0.000 A 
ATOM     21  C   UNL     1      46.768   6.593  13.043  0.00  0.00    +0.000 A 
ATOM     22  S   UNL     1      45.832   7.593  12.026  0.00  0.00    +0.000 S 
ATOM     23  C   UNL     1      44.555   6.469  12.000  0.00  0.00    +0.000 A 
ATOM     24  N   UNL     1      43.399   6.730  11.330  0.00  0.00    +0.000 NA
ATOM     25  C   UNL     1      42.505   5.805  11.431  0.00  0.00    +0.000 A 
ATOM     26  N   UNL     1      42.662   4.634  12.126  0.00  0.00    +0.000 N 
ATOM     27  C   UNL     1      43.830   4.304  12.771  0.00  0.00    +0.000 A 
ATOM     28  O   UNL     1      43.977   3.213  13.305  0.00  0.00    +0.000 OA
ATOM     29  C   UNL     1      44.853   5.331  12.726  0.00  0.00    +0.000 A 
ATOM     30  H   UNL     1      41.932   3.936  12.141  0.00  0.00    +0.000 HD
ENDBRANCH  17  20
ENDBRANCH   1  16
BRANCH   1  31
ATOM     31  C   UNL     1      47.037   3.794  17.782  0.00  0.00    +0.000 C 
BRANCH  31  32
ATOM     32  N   UNL     1      46.614   5.019  18.478  0.00  0.00    +0.000 NA
ATOM     33  H   UNL     1      47.236   5.174  19.270  0.00  0.00    +0.000 HD
ATOM     34  H   UNL     1      45.682   4.882  18.871  0.00  0.00    +0.000 HD
ENDBRANCH  31  32
ENDBRANCH   1  31
TORSDOF 8
ENDMDL
