MODEL 1
REMARK VINA RESULT:    -7.998      0.000      0.000
REMARK INTER + INTRA:         -12.542
REMARK INTER:                 -11.038
REMARK INTRA:                  -1.505
REMARK UNBOUND:                -1.505
REMARK  Name = 
REMARK  8 active torsions:
REMARK  status: ('A' for Active; 'I' for Inactive)
REMARK    1  A    between atoms: C_1  and  C_2
REMARK    2  A    between atoms: C_2  and  N_3
REMARK    3  A    between atoms: N_3  and  C_4
REMARK    4  A    between atoms: C_4  and  C_5
REMARK    5  A    between atoms: C_8  and  C_9
REMARK    6  A    between atoms: C_9  and  O_10
REMARK    7  A    between atoms: C_9  and  C_11
REMARK    8  A    between atoms: C_19  and  C_21
REMARK                            x       y       z     vdW  Elec       q    Type
REMARK                         _______ _______ _______ _____ _____    ______ ____
ROOT
ATOM      1  N   UNL     1      46.479   7.209  12.059  0.00  0.00    +0.000 N 
ATOM      2  C   UNL     1      45.208   6.888  11.529  0.00  0.00    +0.000 C 
ATOM      3  O   UNL     1      44.463   7.765  11.096  0.00  0.00    +0.000 OA
ENDROOT
BRANCH   2   4
ATOM      4  C   UNL     1      44.742   5.484  11.526  0.00  0.00    +0.000 A 
ATOM      5  C   UNL     1      43.969   4.894  12.515  0.00  0.00    +0.000 A 
ATOM      6  S   UNL     1      43.554   3.269  12.199  0.00  0.00    +0.000 S 
ATOM      7  C   UNL     1      44.223   3.356  10.641  0.00  0.00    +0.000 A 
ATOM      8  N   UNL     1      44.080   2.327   9.767  0.00  0.00    +0.000 NA
ATOM      9  C   UNL     1      44.557   2.566   8.591  0.00  0.00    +0.000 A 
ATOM     10  N   UNL     1      45.212   3.718   8.232  0.00  0.00    +0.000 N 
ATOM     11  C   UNL     1      45.515   4.718   9.131  0.00  0.00    +0.000 A 
ATOM     12  O   UNL     1      46.317   5.602   8.847  0.00  0.00    +0.000 OA
ATOM     13  C   UNL     1      44.866   4.560  10.420  0.00  0.00    +0.000 A 
ATOM     14  H   UNL     1      45.633   3.809   7.320  0.00  0.00    +0.000 HD
ENDBRANCH   2   4
BRANCH   1  16
ATOM     15  C   UNL     1      48.315   8.871  11.904  0.00  0.00    +0.000 C 
ATOM     16  C   UNL     1      46.832   8.629  12.142  0.00  0.00    +0.000 C 
ENDBRANCH   1  16
BRANCH   1  17
ATOM     17  C   UNL     1      47.367   6.190  12.594  0.00  0.00    +0.000 C 
BRANCH  17  18
ATOM     18  C   UNL     1      47.434   5.860  14.060  0.00  0.00    +0.000 A 
ATOM     19  C   UNL     1      46.813   4.693  14.534  0.00  0.00    +0.000 A 
ATOM     20  C   UNL     1      47.156   4.166  15.777  0.00  0.00    +0.000 A 
ATOM     21  C   UNL     1      48.115   4.806  16.574  0.00  0.00    +0.000 A 
ATOM     22  C   UNL     1      48.650   6.032  16.144  0.00  0.00    +0.000 A 
ATOM     23  C   UNL     1      48.308   6.559  14.898  0.00  0.00    +0.000 A 
BRANCH  21  24
ATOM     24  C   UNL     1      48.575   4.155  17.866  0.00  0.00    +0.000 C 
BRANCH  24  25
ATOM     25  C   UNL     1      49.857   3.364  17.761  0.00  0.00    +0.000 A 
ATOM     26  C   UNL     1      51.080   3.896  18.187  0.00  0.00    +0.000 A 
ATOM     27  C   UNL     1      52.249   3.158  18.038  0.00  0.00    +0.000 A 
ATOM     28  C   UNL     1      52.162   1.907  17.453  0.00  0.00    +0.000 A 
ATOM     29  N   UNL     1      51.011   1.362  17.013  0.00  0.00    +0.000 NA
ATOM     30  C   UNL     1      49.891   2.102  17.171  0.00  0.00    +0.000 A 
ENDBRANCH  24  25
BRANCH  24  31
ATOM     31  O   UNL     1      47.532   3.317  18.379  0.00  0.00    +0.000 OA
ATOM     32  H   UNL     1      47.164   3.742  19.170  0.00  0.00    +0.000 HD
ENDBRANCH  24  31
ENDBRANCH  21  24
ENDBRANCH  17  18
ENDBRANCH   1  17
TORSDOF 7
ENDMDL
MODEL 2
REMARK VINA RESULT:    -7.310      3.226      7.997
REMARK INTER + INTRA:         -11.593
REMARK INTER:                 -10.119
REMARK INTRA:                  -1.474
REMARK UNBOUND:                -1.505
REMARK  Name = 
REMARK  8 active torsions:
REMARK  status: ('A' for Active; 'I' for Inactive)
REMARK    1  A    between atoms: C_1  and  C_2
REMARK    2  A    between atoms: C_2  and  N_3
REMARK    3  A    between atoms: N_3  and  C_4
REMARK    4  A    between atoms: C_4  and  C_5
REMARK    5  A    between atoms: C_8  and  C_9
REMARK    6  A    between atoms: C_9  and  O_10
REMARK    7  A    between atoms: C_9  and  C_11
REMARK    8  A    between atoms: C_19  and  C_21
REMARK                            x       y       z     vdW  Elec       q    Type
REMARK                         _______ _______ _______ _____ _____    ______ ____
ROOT
ATOM      1  N   UNL     1      49.020   7.645  13.744  0.00  0.00    +0.000 N 
ATOM      2  C   UNL     1      49.850   7.666  14.888  0.00  0.00    +0.000 C 
ATOM      3  O   UNL     1      51.040   7.371  14.812  0.00  0.00    +0.000 OA
ENDROOT
BRANCH   2   4
ATOM      4  C   UNL     1      49.278   8.007  16.209  0.00  0.00    +0.000 A 
ATOM      5  C   UNL     1      49.140   9.291  16.716  0.00  0.00    +0.000 A 
ATOM      6  S   UNL     1      48.399   9.358  18.252  0.00  0.00    +0.000 S 
ATOM      7  C   UNL     1      48.057   7.696  18.208  0.00  0.00    +0.000 A 
ATOM      8  N   UNL     1      47.297   7.118  19.174  0.00  0.00    +0.000 NA
ATOM      9  C   UNL     1      47.041   5.870  18.965  0.00  0.00    +0.000 A 
ATOM     10  N   UNL     1      47.522   5.139  17.908  0.00  0.00    +0.000 N 
ATOM     11  C   UNL     1      48.422   5.647  16.994  0.00  0.00    +0.000 A 
ATOM     12  O   UNL     1      49.028   4.907  16.225  0.00  0.00    +0.000 OA
ATOM     13  C   UNL     1      48.616   7.081  17.102  0.00  0.00    +0.000 A 
ATOM     14  H   UNL     1      47.352   4.147  17.846  0.00  0.00    +0.000 HD
ENDBRANCH   2   4
BRANCH   1  16
ATOM     15  C   UNL     1      49.531   8.228  11.386  0.00  0.00    +0.000 C 
ATOM     16  C   UNL     1      49.620   7.184  12.489  0.00  0.00    +0.000 C 
ENDBRANCH   1  16
BRANCH   1  17
ATOM     17  C   UNL     1      47.605   7.971  13.815  0.00  0.00    +0.000 C 
BRANCH  17  18
ATOM     18  C   UNL     1      46.534   7.061  13.280  0.00  0.00    +0.000 A 
ATOM     19  C   UNL     1      45.494   7.599  12.506  0.00  0.00    +0.000 A 
ATOM     20  C   UNL     1      44.714   6.774  11.700  0.00  0.00    +0.000 A 
ATOM     21  C   UNL     1      44.950   5.393  11.666  0.00  0.00    +0.000 A 
ATOM     22  C   UNL     1      45.917   4.846  12.527  0.00  0.00    +0.000 A 
ATOM     23  C   UNL     1      46.700   5.674  13.333  0.00  0.00    +0.000 A 
BRANCH  21  24
ATOM     24  C   UNL     1      44.182   4.522  10.689  0.00  0.00    +0.000 C 
BRANCH  24  25
ATOM     25  C   UNL     1      45.003   3.955   9.556  0.00  0.00    +0.000 A 
ATOM     26  C   UNL     1      45.145   2.573   9.376  0.00  0.00    +0.000 A 
ATOM     27  C   UNL     1      45.943   2.084   8.348  0.00  0.00    +0.000 A 
ATOM     28  C   UNL     1      46.590   2.995   7.533  0.00  0.00    +0.000 A 
ATOM     29  N   UNL     1      46.497   4.332   7.678  0.00  0.00    +0.000 NA
ATOM     30  C   UNL     1      45.715   4.779   8.686  0.00  0.00    +0.000 A 
ENDBRANCH  24  25
BRANCH  24  31
ATOM     31  O   UNL     1      43.073   5.258  10.159  0.00  0.00    +0.000 OA
ATOM     32  H   UNL     1      43.231   6.202  10.320  0.00  0.00    +0.000 HD
ENDBRANCH  24  31
ENDBRANCH  21  24
ENDBRANCH  17  18
ENDBRANCH   1  17
TORSDOF 7
ENDMDL
MODEL 3
REMARK VINA RESULT:    -7.304      2.346      8.024
REMARK INTER + INTRA:         -11.584
REMARK INTER:                 -10.386
REMARK INTRA:                  -1.199
REMARK UNBOUND:                -1.505
REMARK  Name = 
REMARK  8 active torsions:
REMARK  status: ('A' for Active; 'I' for Inactive)
REMARK    1  A    between atoms: C_1  and  C_2
REMARK    2  A    between atoms: C_2  and  N_3
REMARK    3  A    between atoms: N_3  and  C_4
REMARK    4  A    between atoms: C_4  and  C_5
REMARK    5  A    between atoms: C_8  and  C_9
REMARK    6  A    between atoms: C_9  and  O_10
REMARK    7  A    between atoms: C_9  and  C_11
REMARK    8  A    between atoms: C_19  and  C_21
REMARK                            x       y       z     vdW  Elec       q    Type
REMARK                         _______ _______ _______ _____ _____    ______ ____
ROOT
ATOM      1  N   UNL     1      48.391   7.201  15.192  0.00  0.00    +0.000 N 
ATOM      2  C   UNL     1      48.446   6.873  16.567  0.00  0.00    +0.000 C 
ATOM      3  O   UNL     1      48.479   7.752  17.426  0.00  0.00    +0.000 OA
ENDROOT
BRANCH   2   4
ATOM      4  C   UNL     1      48.506   5.456  16.986  0.00  0.00    +0.000 A 
ATOM      5  C   UNL     1      47.435   4.575  16.991  0.00  0.00    +0.000 A 
ATOM      6  S   UNL     1      47.837   2.992  17.486  0.00  0.00    +0.000 S 
ATOM      7  C   UNL     1      49.490   3.375  17.520  0.00  0.00    +0.000 A 
ATOM      8  N   UNL     1      50.421   2.411  17.737  0.00  0.00    +0.000 NA
ATOM      9  C   UNL     1      51.640   2.827  17.645  0.00  0.00    +0.000 A 
ATOM     10  N   UNL     1      52.006   4.129  17.412  0.00  0.00    +0.000 N 
ATOM     11  C   UNL     1      51.096   5.163  17.343  0.00  0.00    +0.000 A 
ATOM     12  O   UNL     1      51.462   6.332  17.395  0.00  0.00    +0.000 OA
ATOM     13  C   UNL     1      49.715   4.720  17.288  0.00  0.00    +0.000 A 
ATOM     14  H   UNL     1      52.977   4.404  17.433  0.00  0.00    +0.000 HD
ENDBRANCH   2   4
BRANCH   1  16
ATOM     15  C   UNL     1      49.358   8.882  13.643  0.00  0.00    +0.000 C 
ATOM     16  C   UNL     1      48.454   8.622  14.839  0.00  0.00    +0.000 C 
ENDBRANCH   1  16
BRANCH   1  17
ATOM     17  C   UNL     1      48.371   6.179  14.159  0.00  0.00    +0.000 C 
BRANCH  17  18
ATOM     18  C   UNL     1      47.118   5.795  13.422  0.00  0.00    +0.000 A 
ATOM     19  C   UNL     1      46.678   6.588  12.349  0.00  0.00    +0.000 A 
ATOM     20  C   UNL     1      45.765   6.084  11.427  0.00  0.00    +0.000 A 
ATOM     21  C   UNL     1      45.262   4.784  11.570  0.00  0.00    +0.000 A 
ATOM     22  C   UNL     1      45.620   4.036  12.705  0.00  0.00    +0.000 A 
ATOM     23  C   UNL     1      46.536   4.541  13.628  0.00  0.00    +0.000 A 
BRANCH  21  24
ATOM     24  C   UNL     1      44.370   4.199  10.490  0.00  0.00    +0.000 C 
BRANCH  24  25
ATOM     25  C   UNL     1      45.100   3.600   9.312  0.00  0.00    +0.000 A 
ATOM     26  C   UNL     1      45.306   2.219   9.204  0.00  0.00    +0.000 A 
ATOM     27  C   UNL     1      46.019   1.704   8.128  0.00  0.00    +0.000 A 
ATOM     28  C   UNL     1      46.521   2.589   7.192  0.00  0.00    +0.000 A 
ATOM     29  N   UNL     1      46.364   3.926   7.262  0.00  0.00    +0.000 NA
ATOM     30  C   UNL     1      45.666   4.399   8.319  0.00  0.00    +0.000 A 
ENDBRANCH  24  25
BRANCH  24  31
ATOM     31  O   UNL     1      43.453   5.200  10.030  0.00  0.00    +0.000 OA
ATOM     32  H   UNL     1      43.205   4.987   9.117  0.00  0.00    +0.000 HD
ENDBRANCH  24  31
ENDBRANCH  21  24
ENDBRANCH  17  18
ENDBRANCH   1  17
TORSDOF 7
ENDMDL
MODEL 4
REMARK VINA RESULT:    -7.195      1.682      2.344
REMARK INTER + INTRA:         -11.434
REMARK INTER:                  -9.869
REMARK INTRA:                  -1.565
REMARK UNBOUND:                -1.505
REMARK  Name = 
REMARK  8 active torsions:
REMARK  status: ('A' for Active; 'I' for Inactive)
REMARK    1  A    between atoms: C_1  and  C_2
REMARK    2  A    between atoms: C_2  and  N_3
REMARK    3  A    between atoms: N_3  and  C_4
REMARK    4  A    between atoms: C_4  and  C_5
REMARK    5  A    between atoms: C_8  and  C_9
REMARK    6  A    between atoms: C_9  and  O_10
REMARK    7  A    between atoms: C_9  and  C_11
REMARK    8  A    between atoms: C_19  and  C_21
REMARK                            x       y       z     vdW  Elec       q    Type
REMARK                         _______ _______ _______ _____ _____    ______ ____
ROOT
ATOM      1  N   UNL     1      46.355   7.257  12.044  0.00  0.00    +0.000 N 
ATOM      2  C   UNL     1      45.068   6.917  11.567  0.00  0.00    +0.000 C 
ATOM      3  O   UNL     1      44.281   7.786  11.197  0.00  0.00    +0.000 OA
ENDROOT
BRANCH   2   4
ATOM      4  C   UNL     1      44.637   5.503  11.547  0.00  0.00    +0.000 A 
ATOM      5  C   UNL     1      43.853   4.888  12.512  0.00  0.00    +0.000 A 
ATOM      6  S   UNL     1      43.488   3.255  12.179  0.00  0.00    +0.000 S 
ATOM      7  C   UNL     1      44.195   3.366  10.640  0.00  0.00    +0.000 A 
ATOM      8  N   UNL     1      44.101   2.338   9.758  0.00  0.00    +0.000 NA
ATOM      9  C   UNL     1      44.603   2.594   8.596  0.00  0.00    +0.000 A 
ATOM     10  N   UNL     1      45.238   3.763   8.260  0.00  0.00    +0.000 N 
ATOM     11  C   UNL     1      45.493   4.767   9.170  0.00  0.00    +0.000 A 
ATOM     12  O   UNL     1      46.279   5.672   8.911  0.00  0.00    +0.000 OA
ATOM     13  C   UNL     1      44.814   4.587  10.441  0.00  0.00    +0.000 A 
ATOM     14  H   UNL     1      45.681   3.869   7.359  0.00  0.00    +0.000 HD
ENDBRANCH   2   4
BRANCH   1  16
ATOM     15  C   UNL     1      48.149   8.965  11.898  0.00  0.00    +0.000 C 
ATOM     16  C   UNL     1      46.676   8.682  12.150  0.00  0.00    +0.000 C 
ENDBRANCH   1  16
BRANCH   1  17
ATOM     17  C   UNL     1      47.293   6.247  12.505  0.00  0.00    +0.000 C 
BRANCH  17  18
ATOM     18  C   UNL     1      47.430   5.868  13.954  0.00  0.00    +0.000 A 
ATOM     19  C   UNL     1      46.869   4.663  14.409  0.00  0.00    +0.000 A 
ATOM     20  C   UNL     1      47.279   4.105  15.617  0.00  0.00    +0.000 A 
ATOM     21  C   UNL     1      48.246   4.750  16.400  0.00  0.00    +0.000 A 
ATOM     22  C   UNL     1      48.722   6.009  15.995  0.00  0.00    +0.000 A 
ATOM     23  C   UNL     1      48.312   6.567  14.783  0.00  0.00    +0.000 A 
BRANCH  21  24
ATOM     24  C   UNL     1      48.780   4.070  17.648  0.00  0.00    +0.000 C 
BRANCH  24  25
ATOM     25  C   UNL     1      48.750   4.914  18.899  0.00  0.00    +0.000 A 
ATOM     26  C   UNL     1      47.575   5.543  19.329  0.00  0.00    +0.000 A 
ATOM     27  C   UNL     1      47.591   6.348  20.462  0.00  0.00    +0.000 A 
ATOM     28  C   UNL     1      48.791   6.513  21.129  0.00  0.00    +0.000 A 
ATOM     29  N   UNL     1      49.950   5.943  20.744  0.00  0.00    +0.000 NA
ATOM     30  C   UNL     1      49.905   5.165  19.639  0.00  0.00    +0.000 A 
ENDBRANCH  24  25
BRANCH  24  31
ATOM     31  O   UNL     1      50.116   3.609  17.408  0.00  0.00    +0.000 OA
ATOM     32  H   UNL     1      50.482   4.115  16.665  0.00  0.00    +0.000 HD
ENDBRANCH  24  31
ENDBRANCH  21  24
ENDBRANCH  17  18
ENDBRANCH   1  17
TORSDOF 7
ENDMDL
MODEL 5
REMARK VINA RESULT:    -7.183      1.292      1.964
REMARK INTER + INTRA:         -11.417
REMARK INTER:                 -10.020
REMARK INTRA:                  -1.397
REMARK UNBOUND:                -1.505
REMARK  Name = 
REMARK  8 active torsions:
REMARK  status: ('A' for Active; 'I' for Inactive)
REMARK    1  A    between atoms: C_1  and  C_2
REMARK    2  A    between atoms: C_2  and  N_3
REMARK    3  A    between atoms: N_3  and  C_4
REMARK    4  A    between atoms: C_4  and  C_5
REMARK    5  A    between atoms: C_8  and  C_9
REMARK    6  A    between atoms: C_9  and  O_10
REMARK    7  A    between atoms: C_9  and  C_11
REMARK    8  A    between atoms: C_19  and  C_21
REMARK                            x       y       z     vdW  Elec       q    Type
REMARK                         _______ _______ _______ _____ _____    ______ ____
ROOT
ATOM      1  N   UNL     1      46.511   7.293  12.403  0.00  0.00    +0.000 N 
ATOM      2  C   UNL     1      45.526   7.234  11.390  0.00  0.00    +0.000 C 
ATOM      3  O   UNL     1      44.900   8.238  11.058  0.00  0.00    +0.000 OA
ENDROOT
BRANCH   2   4
ATOM      4  C   UNL     1      45.208   5.943  10.744  0.00  0.00    +0.000 A 
ATOM      5  C   UNL     1      45.721   5.504   9.532  0.00  0.00    +0.000 A 
ATOM      6  S   UNL     1      45.197   3.945   9.075  0.00  0.00    +0.000 S 
ATOM      7  C   UNL     1      44.424   3.720  10.570  0.00  0.00    +0.000 A 
ATOM      8  N   UNL     1      43.883   2.518  10.896  0.00  0.00    +0.000 NA
ATOM      9  C   UNL     1      43.411   2.464  12.097  0.00  0.00    +0.000 A 
ATOM     10  N   UNL     1      43.383   3.517  12.975  0.00  0.00    +0.000 N 
ATOM     11  C   UNL     1      43.778   4.792  12.629  0.00  0.00    +0.000 A 
ATOM     12  O   UNL     1      43.503   5.755  13.338  0.00  0.00    +0.000 OA
ATOM     13  C   UNL     1      44.455   4.864  11.347  0.00  0.00    +0.000 A 
ATOM     14  H   UNL     1      42.926   3.431  13.871  0.00  0.00    +0.000 HD
ENDBRANCH   2   4
BRANCH   1  16
ATOM     15  C   UNL     1      47.888   9.352  12.550  0.00  0.00    +0.000 C 
ATOM     16  C   UNL     1      46.695   8.576  13.086  0.00  0.00    +0.000 C 
ENDBRANCH   1  16
BRANCH   1  17
ATOM     17  C   UNL     1      47.249   6.114  12.825  0.00  0.00    +0.000 C 
BRANCH  17  18
ATOM     18  C   UNL     1      47.362   5.700  14.267  0.00  0.00    +0.000 A 
ATOM     19  C   UNL     1      46.760   4.505  14.692  0.00  0.00    +0.000 A 
ATOM     20  C   UNL     1      47.143   3.909  15.891  0.00  0.00    +0.000 A 
ATOM     21  C   UNL     1      48.122   4.507  16.695  0.00  0.00    +0.000 A 
ATOM     22  C   UNL     1      48.640   5.759  16.320  0.00  0.00    +0.000 A 
ATOM     23  C   UNL     1      48.258   6.355  15.118  0.00  0.00    +0.000 A 
BRANCH  21  24
ATOM     24  C   UNL     1      48.625   3.785  17.932  0.00  0.00    +0.000 C 
BRANCH  24  25
ATOM     25  C   UNL     1      49.977   3.131  17.786  0.00  0.00    +0.000 A 
ATOM     26  C   UNL     1      51.152   3.789  18.169  0.00  0.00    +0.000 A 
ATOM     27  C   UNL     1      52.386   3.175  17.982  0.00  0.00    +0.000 A 
ATOM     28  C   UNL     1      52.410   1.920  17.403  0.00  0.00    +0.000 A 
ATOM     29  N   UNL     1      51.307   1.255  17.002  0.00  0.00    +0.000 NA
ATOM     30  C   UNL     1      50.122   1.876  17.196  0.00  0.00    +0.000 A 
ENDBRANCH  24  25
BRANCH  24  31
ATOM     31  O   UNL     1      47.659   2.809  18.343  0.00  0.00    +0.000 OA
ATOM     32  H   UNL     1      48.128   2.090  18.795  0.00  0.00    +0.000 HD
ENDBRANCH  24  31
ENDBRANCH  21  24
ENDBRANCH  17  18
ENDBRANCH   1  17
TORSDOF 7
ENDMDL
MODEL 6
REMARK VINA RESULT:    -6.858      3.339      8.572
REMARK INTER + INTRA:         -10.969
REMARK INTER:                  -9.807
REMARK INTRA:                  -1.162
REMARK UNBOUND:                -1.505
REMARK  Name = 
REMARK  8 active torsions:
REMARK  status: ('A' for Active; 'I' for Inactive)
REMARK    1  A    between atoms: C_1  and  C_2
REMARK    2  A    between atoms: C_2  and  N_3
REMARK    3  A    between atoms: N_3  and  C_4
REMARK    4  A    between atoms: C_4  and  C_5
REMARK    5  A    between atoms: C_8  and  C_9
REMARK    6  A    between atoms: C_9  and  O_10
REMARK    7  A    between atoms: C_9  and  C_11
REMARK    8  A    between atoms: C_19  and  C_21
REMARK                            x       y       z     vdW  Elec       q    Type
REMARK                         _______ _______ _______ _____ _____    ______ ____
ROOT
ATOM      1  N   UNL     1      47.873   5.234  16.155  0.00  0.00    +0.000 N 
ATOM      2  C   UNL     1      48.453   6.218  16.989  0.00  0.00    +0.000 C 
ATOM      3  O   UNL     1      48.416   6.112  18.213  0.00  0.00    +0.000 OA
ENDROOT
BRANCH   2   4
ATOM      4  C   UNL     1      49.080   7.416  16.390  0.00  0.00    +0.000 A 
ATOM      5  C   UNL     1      48.424   8.600  16.088  0.00  0.00    +0.000 A 
ATOM      6  S   UNL     1      49.435   9.816  15.447  0.00  0.00    +0.000 S 
ATOM      7  C   UNL     1      50.819   8.876  15.735  0.00  0.00    +0.000 A 
ATOM      8  N   UNL     1      52.060   9.391  15.538  0.00  0.00    +0.000 NA
ATOM      9  C   UNL     1      53.019   8.598  15.884  0.00  0.00    +0.000 A 
ATOM     10  N   UNL     1      52.846   7.320  16.353  0.00  0.00    +0.000 N 
ATOM     11  C   UNL     1      51.613   6.706  16.418  0.00  0.00    +0.000 A 
ATOM     12  O   UNL     1      51.518   5.495  16.591  0.00  0.00    +0.000 OA
ATOM     13  C   UNL     1      50.500   7.608  16.187  0.00  0.00    +0.000 A 
ATOM     14  H   UNL     1      53.640   6.723  16.528  0.00  0.00    +0.000 HD
ENDBRANCH   2   4
BRANCH   1  16
ATOM     15  C   UNL     1      48.018   2.880  16.927  0.00  0.00    +0.000 C 
ATOM     16  C   UNL     1      47.164   4.133  16.812  0.00  0.00    +0.000 C 
ENDBRANCH   1  16
BRANCH   1  17
ATOM     17  C   UNL     1      47.888   5.349  14.706  0.00  0.00    +0.000 C 
BRANCH  17  18
ATOM     18  C   UNL     1      46.715   4.960  13.849  0.00  0.00    +0.000 A 
ATOM     19  C   UNL     1      45.989   5.958  13.178  0.00  0.00    +0.000 A 
ATOM     20  C   UNL     1      45.157   5.628  12.111  0.00  0.00    +0.000 A 
ATOM     21  C   UNL     1      45.024   4.293  11.706  0.00  0.00    +0.000 A 
ATOM     22  C   UNL     1      45.665   3.288  12.451  0.00  0.00    +0.000 A 
ATOM     23  C   UNL     1      46.500   3.619  13.519  0.00  0.00    +0.000 A 
BRANCH  21  24
ATOM     24  C   UNL     1      44.220   3.961  10.462  0.00  0.00    +0.000 C 
BRANCH  24  25
ATOM     25  C   UNL     1      45.035   3.503   9.277  0.00  0.00    +0.000 A 
ATOM     26  C   UNL     1      45.324   2.149   9.068  0.00  0.00    +0.000 A 
ATOM     27  C   UNL     1      46.113   1.765   7.989  0.00  0.00    +0.000 A 
ATOM     28  C   UNL     1      46.603   2.752   7.153  0.00  0.00    +0.000 A 
ATOM     29  N   UNL     1      46.366   4.068   7.325  0.00  0.00    +0.000 NA
ATOM     30  C   UNL     1      45.596   4.412   8.381  0.00  0.00    +0.000 A 
ENDBRANCH  24  25
BRANCH  24  31
ATOM     31  O   UNL     1      43.421   5.092  10.091  0.00  0.00    +0.000 OA
ATOM     32  H   UNL     1      42.531   4.774   9.870  0.00  0.00    +0.000 HD
ENDBRANCH  24  31
ENDBRANCH  21  24
ENDBRANCH  17  18
ENDBRANCH   1  17
TORSDOF 7
ENDMDL
MODEL 7
REMARK VINA RESULT:    -6.828      3.336      8.584
REMARK INTER + INTRA:         -10.928
REMARK INTER:                 -10.263
REMARK INTRA:                  -0.665
REMARK UNBOUND:                -1.505
REMARK  Name = 
REMARK  8 active torsions:
REMARK  status: ('A' for Active; 'I' for Inactive)
REMARK    1  A    between atoms: C_1  and  C_2
REMARK    2  A    between atoms: C_2  and  N_3
REMARK    3  A    between atoms: N_3  and  C_4
REMARK    4  A    between atoms: C_4  and  C_5
REMARK    5  A    between atoms: C_8  and  C_9
REMARK    6  A    between atoms: C_9  and  O_10
REMARK    7  A    between atoms: C_9  and  C_11
REMARK    8  A    between atoms: C_19  and  C_21
REMARK                            x       y       z     vdW  Elec       q    Type
REMARK                         _______ _______ _______ _____ _____    ______ ____
ROOT
ATOM      1  N   UNL     1      47.994   5.316  15.968  0.00  0.00    +0.000 N 
ATOM      2  C   UNL     1      48.929   5.944  16.823  0.00  0.00    +0.000 C 
ATOM      3  O   UNL     1      49.099   5.548  17.974  0.00  0.00    +0.000 OA
ENDROOT
BRANCH   2   4
ATOM      4  C   UNL     1      49.689   7.121  16.349  0.00  0.00    +0.000 A 
ATOM      5  C   UNL     1      50.799   7.078  15.519  0.00  0.00    +0.000 A 
ATOM      6  S   UNL     1      51.426   8.613  15.112  0.00  0.00    +0.000 S 
ATOM      7  C   UNL     1      50.121   9.394  15.867  0.00  0.00    +0.000 A 
ATOM      8  N   UNL     1      49.966  10.739  15.766  0.00  0.00    +0.000 NA
ATOM      9  C   UNL     1      48.883  11.185  16.309  0.00  0.00    +0.000 A 
ATOM     10  N   UNL     1      47.974  10.414  16.990  0.00  0.00    +0.000 N 
ATOM     11  C   UNL     1      48.174   9.075  17.249  0.00  0.00    +0.000 A 
ATOM     12  O   UNL     1      47.484   8.480  18.071  0.00  0.00    +0.000 OA
ATOM     13  C   UNL     1      49.297   8.502  16.529  0.00  0.00    +0.000 A 
ATOM     14  H   UNL     1      47.190  10.837  17.462  0.00  0.00    +0.000 HD
ENDBRANCH   2   4
BRANCH   1  16
ATOM     15  C   UNL     1      47.960   2.924  16.627  0.00  0.00    +0.000 C 
ATOM     16  C   UNL     1      47.189   4.232  16.536  0.00  0.00    +0.000 C 
ENDBRANCH   1  16
BRANCH   1  17
ATOM     17  C   UNL     1      47.763   5.781  14.610  0.00  0.00    +0.000 C 
BRANCH  17  18
ATOM     18  C   UNL     1      46.626   5.279  13.763  0.00  0.00    +0.000 A 
ATOM     19  C   UNL     1      45.816   6.199  13.079  0.00  0.00    +0.000 A 
ATOM     20  C   UNL     1      45.014   5.782  12.019  0.00  0.00    +0.000 A 
ATOM     21  C   UNL     1      44.996   4.434  11.636  0.00  0.00    +0.000 A 
ATOM     22  C   UNL     1      45.722   3.500  12.395  0.00  0.00    +0.000 A 
ATOM     23  C   UNL     1      46.527   3.919  13.455  0.00  0.00    +0.000 A 
BRANCH  21  24
ATOM     24  C   UNL     1      44.220   4.014  10.400  0.00  0.00    +0.000 C 
BRANCH  24  25
ATOM     25  C   UNL     1      45.067   3.529   9.249  0.00  0.00    +0.000 A 
ATOM     26  C   UNL     1      45.336   2.168   9.061  0.00  0.00    +0.000 A 
ATOM     27  C   UNL     1      46.154   1.758   8.015  0.00  0.00    +0.000 A 
ATOM     28  C   UNL     1      46.694   2.727   7.189  0.00  0.00    +0.000 A 
ATOM     29  N   UNL     1      46.478   4.048   7.340  0.00  0.00    +0.000 NA
ATOM     30  C   UNL     1      45.678   4.418   8.366  0.00  0.00    +0.000 A 
ENDBRANCH  24  25
BRANCH  24  31
ATOM     31  O   UNL     1      43.388   5.096   9.965  0.00  0.00    +0.000 OA
ATOM     32  H   UNL     1      42.564   5.069  10.476  0.00  0.00    +0.000 HD
ENDBRANCH  24  31
ENDBRANCH  21  24
ENDBRANCH  17  18
ENDBRANCH   1  17
TORSDOF 7
ENDMDL
MODEL 8
REMARK VINA RESULT:    -6.616      3.587      8.241
REMARK INTER + INTRA:         -10.636
REMARK INTER:                  -9.061
REMARK INTRA:                  -1.574
REMARK UNBOUND:                -1.505
REMARK  Name = 
REMARK  8 active torsions:
REMARK  status: ('A' for Active; 'I' for Inactive)
REMARK    1  A    between atoms: C_1  and  C_2
REMARK    2  A    between atoms: C_2  and  N_3
REMARK    3  A    between atoms: N_3  and  C_4
REMARK    4  A    between atoms: C_4  and  C_5
REMARK    5  A    between atoms: C_8  and  C_9
REMARK    6  A    between atoms: C_9  and  O_10
REMARK    7  A    between atoms: C_9  and  C_11
REMARK    8  A    between atoms: C_19  and  C_21
REMARK                            x       y       z     vdW  Elec       q    Type
REMARK                         _______ _______ _______ _____ _____    ______ ____
ROOT
ATOM      1  N   UNL     1      48.567   9.122  13.991  0.00  0.00    +0.000 N 
ATOM      2  C   UNL     1      49.476   8.724  14.999  0.00  0.00    +0.000 C 
ATOM      3  O   UNL     1      50.644   9.105  14.984  0.00  0.00    +0.000 OA
ENDROOT
BRANCH   2   4
ATOM      4  C   UNL     1      49.034   7.804  16.069  0.00  0.00    +0.000 A 
ATOM      5  C   UNL     1      49.254   6.435  16.091  0.00  0.00    +0.000 A 
ATOM      6  S   UNL     1      48.662   5.655  17.489  0.00  0.00    +0.000 S 
ATOM      7  C   UNL     1      48.268   7.143  18.205  0.00  0.00    +0.000 A 
ATOM      8  N   UNL     1      47.838   7.201  19.491  0.00  0.00    +0.000 NA
ATOM      9  C   UNL     1      47.664   8.402  19.933  0.00  0.00    +0.000 A 
ATOM     10  N   UNL     1      47.828   9.542  19.186  0.00  0.00    +0.000 N 
ATOM     11  C   UNL     1      48.110   9.519  17.837  0.00  0.00    +0.000 A 
ATOM     12  O   UNL     1      47.994  10.528  17.149  0.00  0.00    +0.000 OA
ATOM     13  C   UNL     1      48.463   8.203  17.337  0.00  0.00    +0.000 A 
ATOM     14  H   UNL     1      47.596  10.446  19.568  0.00  0.00    +0.000 HD
ENDBRANCH   2   4
BRANCH   1  16
ATOM     15  C   UNL     1      48.627  11.383  12.969  0.00  0.00    +0.000 C 
ATOM     16  C   UNL     1      49.097   9.938  12.895  0.00  0.00    +0.000 C 
ENDBRANCH   1  16
BRANCH   1  17
ATOM     17  C   UNL     1      47.186   8.668  13.980  0.00  0.00    +0.000 C 
BRANCH  17  18
ATOM     18  C   UNL     1      46.651   7.727  12.935  0.00  0.00    +0.000 A 
ATOM     19  C   UNL     1      46.963   6.360  13.012  0.00  0.00    +0.000 A 
ATOM     20  C   UNL     1      46.209   5.423  12.310  0.00  0.00    +0.000 A 
ATOM     21  C   UNL     1      45.140   5.838  11.505  0.00  0.00    +0.000 A 
ATOM     22  C   UNL     1      44.902   7.214  11.344  0.00  0.00    +0.000 A 
ATOM     23  C   UNL     1      45.657   8.153  12.049  0.00  0.00    +0.000 A 
BRANCH  21  24
ATOM     24  C   UNL     1      44.245   4.802  10.849  0.00  0.00    +0.000 C 
BRANCH  24  25
ATOM     25  C   UNL     1      44.911   3.965   9.784  0.00  0.00    +0.000 A 
ATOM     26  C   UNL     1      45.592   4.552   8.711  0.00  0.00    +0.000 A 
ATOM     27  C   UNL     1      46.159   3.752   7.725  0.00  0.00    +0.000 A 
ATOM     28  C   UNL     1      46.016   2.381   7.834  0.00  0.00    +0.000 A 
ATOM     29  N   UNL     1      45.355   1.771   8.837  0.00  0.00    +0.000 NA
ATOM     30  C   UNL     1      44.815   2.573   9.782  0.00  0.00    +0.000 A 
ENDBRANCH  24  25
BRANCH  24  31
ATOM     31  O   UNL     1      43.087   5.446  10.302  0.00  0.00    +0.000 OA
ATOM     32  H   UNL     1      42.506   4.761   9.933  0.00  0.00    +0.000 HD
ENDBRANCH  24  31
ENDBRANCH  21  24
ENDBRANCH  17  18
ENDBRANCH   1  17
TORSDOF 7
ENDMDL
MODEL 9
REMARK VINA RESULT:    -6.597      4.229      8.135
REMARK INTER + INTRA:         -10.609
REMARK INTER:                  -9.299
REMARK INTRA:                  -1.309
REMARK UNBOUND:                -1.505
REMARK  Name = 
REMARK  8 active torsions:
REMARK  status: ('A' for Active; 'I' for Inactive)
REMARK    1  A    between atoms: C_1  and  C_2
REMARK    2  A    between atoms: C_2  and  N_3
REMARK    3  A    between atoms: N_3  and  C_4
REMARK    4  A    between atoms: C_4  and  C_5
REMARK    5  A    between atoms: C_8  and  C_9
REMARK    6  A    between atoms: C_9  and  O_10
REMARK    7  A    between atoms: C_9  and  C_11
REMARK    8  A    between atoms: C_19  and  C_21
REMARK                            x       y       z     vdW  Elec       q    Type
REMARK                         _______ _______ _______ _____ _____    ______ ____
ROOT
ATOM      1  N   UNL     1      46.278   8.662  12.858  0.00  0.00    +0.000 N 
ATOM      2  C   UNL     1      47.378   9.520  12.630  0.00  0.00    +0.000 C 
ATOM      3  O   UNL     1      47.209  10.709  12.367  0.00  0.00    +0.000 OA
ENDROOT
BRANCH   2   4
ATOM      4  C   UNL     1      48.755   8.982  12.667  0.00  0.00    +0.000 A 
ATOM      5  C   UNL     1      49.542   8.713  11.557  0.00  0.00    +0.000 A 
ATOM      6  S   UNL     1      51.106   8.141  11.932  0.00  0.00    +0.000 S 
ATOM      7  C   UNL     1      50.858   8.420  13.588  0.00  0.00    +0.000 A 
ATOM      8  N   UNL     1      51.874   8.270  14.476  0.00  0.00    +0.000 NA
ATOM      9  C   UNL     1      51.569   8.604  15.685  0.00  0.00    +0.000 A 
ATOM     10  N   UNL     1      50.326   9.020  16.091  0.00  0.00    +0.000 N 
ATOM     11  C   UNL     1      49.230   9.036  15.255  0.00  0.00    +0.000 A 
ATOM     12  O   UNL     1      48.094   9.159  15.701  0.00  0.00    +0.000 OA
ATOM     13  C   UNL     1      49.560   8.816  13.858  0.00  0.00    +0.000 A 
ATOM     14  H   UNL     1      50.131   9.188  17.067  0.00  0.00    +0.000 HD
ENDBRANCH   2   4
BRANCH   1  16
ATOM     15  C   UNL     1      44.571   9.426  11.227  0.00  0.00    +0.000 C 
ATOM     16  C   UNL     1      44.938   9.230  12.690  0.00  0.00    +0.000 C 
ENDBRANCH   1  16
BRANCH   1  17
ATOM     17  C   UNL     1      46.455   7.249  13.153  0.00  0.00    +0.000 C 
BRANCH  17  18
ATOM     18  C   UNL     1      46.264   6.175  12.118  0.00  0.00    +0.000 A 
ATOM     19  C   UNL     1      45.642   4.969  12.481  0.00  0.00    +0.000 A 
ATOM     20  C   UNL     1      45.120   4.123  11.506  0.00  0.00    +0.000 A 
ATOM     21  C   UNL     1      45.225   4.459  10.150  0.00  0.00    +0.000 A 
ATOM     22  C   UNL     1      45.946   5.610   9.787  0.00  0.00    +0.000 A 
ATOM     23  C   UNL     1      46.467   6.459  10.764  0.00  0.00    +0.000 A 
BRANCH  21  24
ATOM     24  C   UNL     1      44.540   3.596   9.105  0.00  0.00    +0.000 C 
BRANCH  24  25
ATOM     25  C   UNL     1      45.471   2.833   8.195  0.00  0.00    +0.000 A 
ATOM     26  C   UNL     1      45.907   1.540   8.512  0.00  0.00    +0.000 A 
ATOM     27  C   UNL     1      46.798   0.881   7.674  0.00  0.00    +0.000 A 
ATOM     28  C   UNL     1      47.241   1.541   6.542  0.00  0.00    +0.000 A 
ATOM     29  N   UNL     1      46.864   2.790   6.205  0.00  0.00    +0.000 NA
ATOM     30  C   UNL     1      45.997   3.407   7.038  0.00  0.00    +0.000 A 
ENDBRANCH  24  25
BRANCH  24  31
ATOM     31  O   UNL     1      43.655   4.405   8.320  0.00  0.00    +0.000 OA
ATOM     32  H   UNL     1      43.942   4.357   7.394  0.00  0.00    +0.000 HD
ENDBRANCH  24  31
ENDBRANCH  21  24
ENDBRANCH  17  18
ENDBRANCH   1  17
TORSDOF 7
ENDMDL
