MODEL 1
REMARK VINA RESULT:    -7.996      0.000      0.000
REMARK INTER + INTRA:         -11.033
REMARK INTER:                 -10.333
REMARK INTRA:                  -0.700
REMARK UNBOUND:                -0.700
REMARK  Name = 
REMARK  8 active torsions:
REMARK  status: ('A' for Active; 'I' for Inactive)
REMARK    1  A    between atoms: C_1  and  C_2
REMARK    2  A    between atoms: C_2  and  C_3
REMARK    3  A    between atoms: C_2  and  C_4
REMARK    4  A    between atoms: C_2  and  C_5
REMARK    5  A    between atoms: C_8  and  C_9
REMARK    6  A    between atoms: C_9  and  N_10
REMARK    7  A    between atoms: N_10  and  C_11
REMARK    8  A    between atoms: C_14  and  C_15
REMARK                            x       y       z     vdW  Elec       q    Type
REMARK                         _______ _______ _______ _____ _____    ______ ____
ROOT
ATOM      1  N   UNL     1      43.693   4.761   9.983  0.00  0.00    +0.000 N 
ATOM      2  H   UNL     1      42.760   4.808   9.571  0.00  0.00    +0.000 HD
ENDROOT
BRANCH   1   3
ATOM      3  C   UNL     1      44.517   3.900   9.260  0.00  0.00    +0.000 A 
ATOM      4  C   UNL     1      44.569   2.512   9.436  0.00  0.00    +0.000 A 
ATOM      5  C   UNL     1      45.469   1.723   8.701  0.00  0.00    +0.000 A 
ATOM      6  C   UNL     1      46.356   2.314   7.794  0.00  0.00    +0.000 A 
ATOM      7  C   UNL     1      46.349   3.703   7.648  0.00  0.00    +0.000 A 
ATOM      8  C   UNL     1      45.440   4.477   8.378  0.00  0.00    +0.000 A 
BRANCH   6   9
ATOM      9  C   UNL     1      47.307   1.450   7.049  0.00  0.00    +0.000 C 
ATOM     10  N   UNL     1      48.423   2.045   6.524  0.00  0.00    +0.000 N 
ATOM     11  O   UNL     1      47.098   0.255   6.883  0.00  0.00    +0.000 OA
ATOM     12  H   UNL     1      48.535   3.045   6.455  0.00  0.00    +0.000 HD
ATOM     13  H   UNL     1      49.019   1.462   5.951  0.00  0.00    +0.000 HD
ENDBRANCH   6   9
ENDBRANCH   1   3
BRANCH   1  14
ATOM     14  C   UNL     1      43.627   4.711  11.441  0.00  0.00    +0.000 C 
BRANCH  14  18
ATOM     15  C   UNL     1      47.050   6.621  13.237  0.00  0.00    +0.000 A 
ATOM     16  C   UNL     1      46.732   5.294  13.566  0.00  0.00    +0.000 A 
ATOM     17  C   UNL     1      45.638   4.654  12.979  0.00  0.00    +0.000 A 
ATOM     18  C   UNL     1      44.859   5.350  12.061  0.00  0.00    +0.000 A 
ATOM     19  N   UNL     1      45.156   6.619  11.694  0.00  0.00    +0.000 NA
ATOM     20  C   UNL     1      46.227   7.212  12.281  0.00  0.00    +0.000 A 
BRANCH  15  22
ATOM     21  C   UNL     1      49.431   7.409  12.962  0.00  0.00    +0.000 C 
ATOM     22  C   UNL     1      48.217   7.351  13.913  0.00  0.00    +0.000 C 
ATOM     23  C   UNL     1      48.628   6.601  15.199  0.00  0.00    +0.000 C 
ATOM     24  C   UNL     1      47.880   8.804  14.323  0.00  0.00    +0.000 C 
ENDBRANCH  15  22
ENDBRANCH  14  18
ENDBRANCH   1  14
TORSDOF 5
ENDMDL
MODEL 2
REMARK VINA RESULT:    -6.862      2.874      6.889
REMARK INTER + INTRA:          -9.567
REMARK INTER:                  -8.820
REMARK INTRA:                  -0.747
REMARK UNBOUND:                -0.700
REMARK  Name = 
REMARK  8 active torsions:
REMARK  status: ('A' for Active; 'I' for Inactive)
REMARK    1  A    between atoms: C_1  and  C_2
REMARK    2  A    between atoms: C_2  and  C_3
REMARK    3  A    between atoms: C_2  and  C_4
REMARK    4  A    between atoms: C_2  and  C_5
REMARK    5  A    between atoms: C_8  and  C_9
REMARK    6  A    between atoms: C_9  and  N_10
REMARK    7  A    between atoms: N_10  and  C_11
REMARK    8  A    between atoms: C_14  and  C_15
REMARK                            x       y       z     vdW  Elec       q    Type
REMARK                         _______ _______ _______ _____ _____    ______ ____
ROOT
ATOM      1  N   UNL     1      43.909   4.512  12.266  0.00  0.00    +0.000 N 
ATOM      2  H   UNL     1      43.159   4.610  12.952  0.00  0.00    +0.000 HD
ENDROOT
BRANCH   1   3
ATOM      3  C   UNL     1      45.060   5.179  12.684  0.00  0.00    +0.000 A 
ATOM      4  C   UNL     1      45.342   6.525  12.421  0.00  0.00    +0.000 A 
ATOM      5  C   UNL     1      46.552   7.104  12.834  0.00  0.00    +0.000 A 
ATOM      6  C   UNL     1      47.519   6.337  13.495  0.00  0.00    +0.000 A 
ATOM      7  C   UNL     1      47.271   4.980  13.718  0.00  0.00    +0.000 A 
ATOM      8  C   UNL     1      46.057   4.418  13.311  0.00  0.00    +0.000 A 
BRANCH   6   9
ATOM      9  C   UNL     1      48.796   6.979  13.899  0.00  0.00    +0.000 C 
ATOM     10  N   UNL     1      49.748   7.155  12.933  0.00  0.00    +0.000 N 
ATOM     11  O   UNL     1      49.009   7.318  15.057  0.00  0.00    +0.000 OA
ATOM     12  H   UNL     1      49.705   6.713  12.027  0.00  0.00    +0.000 HD
ATOM     13  H   UNL     1      50.641   7.518  13.239  0.00  0.00    +0.000 HD
ENDBRANCH   6   9
ENDBRANCH   1   3
BRANCH   1  14
ATOM     14  C   UNL     1      43.402   4.645  10.903  0.00  0.00    +0.000 C 
BRANCH  14  18
ATOM     15  C   UNL     1      45.999   2.749   8.031  0.00  0.00    +0.000 A 
ATOM     16  C   UNL     1      45.961   4.148   8.129  0.00  0.00    +0.000 A 
ATOM     17  C   UNL     1      45.140   4.779   9.067  0.00  0.00    +0.000 A 
ATOM     18  C   UNL     1      44.351   4.000   9.907  0.00  0.00    +0.000 A 
ATOM     19  N   UNL     1      44.388   2.647   9.864  0.00  0.00    +0.000 NA
ATOM     20  C   UNL     1      45.198   2.065   8.943  0.00  0.00    +0.000 A 
BRANCH  15  22
ATOM     21  C   UNL     1      46.214   2.204   5.577  0.00  0.00    +0.000 C 
ATOM     22  C   UNL     1      46.857   2.047   6.971  0.00  0.00    +0.000 C 
ATOM     23  C   UNL     1      46.968   0.542   7.301  0.00  0.00    +0.000 C 
ATOM     24  C   UNL     1      48.299   2.599   6.881  0.00  0.00    +0.000 C 
ENDBRANCH  15  22
ENDBRANCH  14  18
ENDBRANCH   1  14
TORSDOF 5
ENDMDL
MODEL 3
REMARK VINA RESULT:    -6.659      2.651      6.980
REMARK INTER + INTRA:          -9.305
REMARK INTER:                  -8.769
REMARK INTRA:                  -0.535
REMARK UNBOUND:                -0.700
REMARK  Name = 
REMARK  8 active torsions:
REMARK  status: ('A' for Active; 'I' for Inactive)
REMARK    1  A    between atoms: C_1  and  C_2
REMARK    2  A    between atoms: C_2  and  C_3
REMARK    3  A    between atoms: C_2  and  C_4
REMARK    4  A    between atoms: C_2  and  C_5
REMARK    5  A    between atoms: C_8  and  C_9
REMARK    6  A    between atoms: C_9  and  N_10
REMARK    7  A    between atoms: N_10  and  C_11
REMARK    8  A    between atoms: C_14  and  C_15
REMARK                            x       y       z     vdW  Elec       q    Type
REMARK                         _______ _______ _______ _____ _____    ______ ____
ROOT
ATOM      1  N   UNL     1      44.100   5.981  10.995  0.00  0.00    +0.000 N 
ATOM      2  H   UNL     1      44.215   6.522  10.137  0.00  0.00    +0.000 HD
ENDROOT
BRANCH   1   3
ATOM      3  C   UNL     1      45.186   6.163  11.850  0.00  0.00    +0.000 A 
ATOM      4  C   UNL     1      45.516   5.312  12.912  0.00  0.00    +0.000 A 
ATOM      5  C   UNL     1      46.599   5.600  13.759  0.00  0.00    +0.000 A 
ATOM      6  C   UNL     1      47.355   6.763  13.576  0.00  0.00    +0.000 A 
ATOM      7  C   UNL     1      47.003   7.646  12.552  0.00  0.00    +0.000 A 
ATOM      8  C   UNL     1      45.930   7.343  11.709  0.00  0.00    +0.000 A 
BRANCH   6   9
ATOM      9  C   UNL     1      48.480   7.045  14.504  0.00  0.00    +0.000 C 
ATOM     10  N   UNL     1      48.183   7.664  15.688  0.00  0.00    +0.000 N 
ATOM     11  O   UNL     1      49.637   6.762  14.220  0.00  0.00    +0.000 OA
ATOM     12  H   UNL     1      47.291   8.098  15.876  0.00  0.00    +0.000 HD
ATOM     13  H   UNL     1      48.967   7.922  16.273  0.00  0.00    +0.000 HD
ENDBRANCH   6   9
ENDBRANCH   1   3
BRANCH   1  14
ATOM     14  C   UNL     1      43.563   4.652  10.714  0.00  0.00    +0.000 C 
BRANCH  14  18
ATOM     15  C   UNL     1      46.045   2.702   7.777  0.00  0.00    +0.000 A 
ATOM     16  C   UNL     1      45.349   1.939   8.728  0.00  0.00    +0.000 A 
ATOM     17  C   UNL     1      44.526   2.553   9.675  0.00  0.00    +0.000 A 
ATOM     18  C   UNL     1      44.403   3.939   9.668  0.00  0.00    +0.000 A 
ATOM     19  N   UNL     1      45.031   4.703   8.743  0.00  0.00    +0.000 NA
ATOM     20  C   UNL     1      45.824   4.076   7.837  0.00  0.00    +0.000 A 
BRANCH  15  22
ATOM     21  C   UNL     1      46.466   2.250   5.330  0.00  0.00    +0.000 C 
ATOM     22  C   UNL     1      46.992   2.043   6.766  0.00  0.00    +0.000 C 
ATOM     23  C   UNL     1      47.085   0.527   7.048  0.00  0.00    +0.000 C 
ATOM     24  C   UNL     1      48.433   2.603   6.818  0.00  0.00    +0.000 C 
ENDBRANCH  15  22
ENDBRANCH  14  18
ENDBRANCH   1  14
TORSDOF 5
ENDMDL
MODEL 4
REMARK VINA RESULT:    -6.094      4.896      8.089
REMARK INTER + INTRA:          -8.575
REMARK INTER:                  -8.187
REMARK INTRA:                  -0.388
REMARK UNBOUND:                -0.700
REMARK  Name = 
REMARK  8 active torsions:
REMARK  status: ('A' for Active; 'I' for Inactive)
REMARK    1  A    between atoms: C_1  and  C_2
REMARK    2  A    between atoms: C_2  and  C_3
REMARK    3  A    between atoms: C_2  and  C_4
REMARK    4  A    between atoms: C_2  and  C_5
REMARK    5  A    between atoms: C_8  and  C_9
REMARK    6  A    between atoms: C_9  and  N_10
REMARK    7  A    between atoms: N_10  and  C_11
REMARK    8  A    between atoms: C_14  and  C_15
REMARK                            x       y       z     vdW  Elec       q    Type
REMARK                         _______ _______ _______ _____ _____    ______ ____
ROOT
ATOM      1  N   UNL     1      47.670   4.843  16.408  0.00  0.00    +0.000 N 
ATOM      2  H   UNL     1      47.249   5.317  17.209  0.00  0.00    +0.000 HD
ENDROOT
BRANCH   1   3
ATOM      3  C   UNL     1      48.752   4.058  16.802  0.00  0.00    +0.000 A 
ATOM      4  C   UNL     1      49.961   4.558  17.301  0.00  0.00    +0.000 A 
ATOM      5  C   UNL     1      51.021   3.696  17.625  0.00  0.00    +0.000 A 
ATOM      6  C   UNL     1      50.902   2.316  17.427  0.00  0.00    +0.000 A 
ATOM      7  C   UNL     1      49.720   1.810  16.881  0.00  0.00    +0.000 A 
ATOM      8  C   UNL     1      48.667   2.677  16.573  0.00  0.00    +0.000 A 
BRANCH   6   9
ATOM      9  C   UNL     1      52.052   1.437  17.762  0.00  0.00    +0.000 C 
ATOM     10  N   UNL     1      51.776   0.152  18.143  0.00  0.00    +0.000 N 
ATOM     11  O   UNL     1      53.206   1.844  17.725  0.00  0.00    +0.000 OA
ATOM     12  H   UNL     1      50.849  -0.165  18.385  0.00  0.00    +0.000 HD
ATOM     13  H   UNL     1      52.561  -0.408  18.446  0.00  0.00    +0.000 HD
ENDBRANCH   6   9
ENDBRANCH   1   3
BRANCH   1  14
ATOM     14  C   UNL     1      47.751   5.731  15.251  0.00  0.00    +0.000 C 
BRANCH  14  18
ATOM     15  C   UNL     1      45.281   4.172  12.078  0.00  0.00    +0.000 A 
ATOM     16  C   UNL     1      45.568   5.545  12.137  0.00  0.00    +0.000 A 
ATOM     17  C   UNL     1      46.382   6.064  13.147  0.00  0.00    +0.000 A 
ATOM     18  C   UNL     1      46.907   5.201  14.103  0.00  0.00    +0.000 A 
ATOM     19  N   UNL     1      46.680   3.867  14.057  0.00  0.00    +0.000 NA
ATOM     20  C   UNL     1      45.886   3.394  13.063  0.00  0.00    +0.000 A 
BRANCH  15  22
ATOM     21  C   UNL     1      45.162   2.822   9.950  0.00  0.00    +0.000 C 
ATOM     22  C   UNL     1      44.347   3.599  11.005  0.00  0.00    +0.000 C 
ATOM     23  C   UNL     1      43.591   4.748  10.303  0.00  0.00    +0.000 C 
ATOM     24  C   UNL     1      43.280   2.633  11.571  0.00  0.00    +0.000 C 
ENDBRANCH  15  22
ENDBRANCH  14  18
ENDBRANCH   1  14
TORSDOF 5
ENDMDL
MODEL 5
REMARK VINA RESULT:    -5.795      4.184      6.344
REMARK INTER + INTRA:          -8.189
REMARK INTER:                  -7.748
REMARK INTRA:                  -0.441
REMARK UNBOUND:                -0.700
REMARK  Name = 
REMARK  8 active torsions:
REMARK  status: ('A' for Active; 'I' for Inactive)
REMARK    1  A    between atoms: C_1  and  C_2
REMARK    2  A    between atoms: C_2  and  C_3
REMARK    3  A    between atoms: C_2  and  C_4
REMARK    4  A    between atoms: C_2  and  C_5
REMARK    5  A    between atoms: C_8  and  C_9
REMARK    6  A    between atoms: C_9  and  N_10
REMARK    7  A    between atoms: N_10  and  C_11
REMARK    8  A    between atoms: C_14  and  C_15
REMARK                            x       y       z     vdW  Elec       q    Type
REMARK                         _______ _______ _______ _____ _____    ______ ____
ROOT
ATOM      1  N   UNL     1      47.462   5.308  15.066  0.00  0.00    +0.000 N 
ATOM      2  H   UNL     1      47.415   6.301  15.300  0.00  0.00    +0.000 HD
ENDROOT
BRANCH   1   3
ATOM      3  C   UNL     1      46.683   5.019  13.947  0.00  0.00    +0.000 A 
ATOM      4  C   UNL     1      45.969   5.967  13.206  0.00  0.00    +0.000 A 
ATOM      5  C   UNL     1      45.164   5.581  12.122  0.00  0.00    +0.000 A 
ATOM      6  C   UNL     1      45.036   4.230  11.777  0.00  0.00    +0.000 A 
ATOM      7  C   UNL     1      45.703   3.270  12.541  0.00  0.00    +0.000 A 
ATOM      8  C   UNL     1      46.510   3.669  13.612  0.00  0.00    +0.000 A 
BRANCH   6   9
ATOM      9  C   UNL     1      44.160   3.857  10.636  0.00  0.00    +0.000 C 
ATOM     10  N   UNL     1      43.881   4.826   9.711  0.00  0.00    +0.000 N 
ATOM     11  O   UNL     1      43.679   2.736  10.533  0.00  0.00    +0.000 OA
ATOM     12  H   UNL     1      44.078   5.804   9.858  0.00  0.00    +0.000 HD
ATOM     13  H   UNL     1      43.219   4.581   8.986  0.00  0.00    +0.000 HD
ENDBRANCH   6   9
ENDBRANCH   1   3
BRANCH   1  14
ATOM     14  C   UNL     1      47.411   4.479  16.268  0.00  0.00    +0.000 C 
BRANCH  14  18
ATOM     15  C   UNL     1      51.396   3.766  17.753  0.00  0.00    +0.000 A 
ATOM     16  C   UNL     1      50.899   5.077  17.673  0.00  0.00    +0.000 A 
ATOM     17  C   UNL     1      49.603   5.324  17.212  0.00  0.00    +0.000 A 
ATOM     18  C   UNL     1      48.806   4.251  16.828  0.00  0.00    +0.000 A 
ATOM     19  N   UNL     1      49.239   2.972  16.925  0.00  0.00    +0.000 NA
ATOM     20  C   UNL     1      50.502   2.766  17.377  0.00  0.00    +0.000 A 
BRANCH  15  22
ATOM     21  C   UNL     1      53.816   4.423  17.473  0.00  0.00    +0.000 C 
ATOM     22  C   UNL     1      52.834   3.486  18.208  0.00  0.00    +0.000 C 
ATOM     23  C   UNL     1      53.207   2.022  17.886  0.00  0.00    +0.000 C 
ATOM     24  C   UNL     1      53.049   3.686  19.726  0.00  0.00    +0.000 C 
ENDBRANCH  15  22
ENDBRANCH  14  18
ENDBRANCH   1  14
TORSDOF 5
ENDMDL
MODEL 6
REMARK VINA RESULT:    -5.612      3.056      5.251
REMARK INTER + INTRA:          -7.952
REMARK INTER:                  -7.471
REMARK INTRA:                  -0.481
REMARK UNBOUND:                -0.700
REMARK  Name = 
REMARK  8 active torsions:
REMARK  status: ('A' for Active; 'I' for Inactive)
REMARK    1  A    between atoms: C_1  and  C_2
REMARK    2  A    between atoms: C_2  and  C_3
REMARK    3  A    between atoms: C_2  and  C_4
REMARK    4  A    between atoms: C_2  and  C_5
REMARK    5  A    between atoms: C_8  and  C_9
REMARK    6  A    between atoms: C_9  and  N_10
REMARK    7  A    between atoms: N_10  and  C_11
REMARK    8  A    between atoms: C_14  and  C_15
REMARK                            x       y       z     vdW  Elec       q    Type
REMARK                         _______ _______ _______ _____ _____    ______ ____
ROOT
ATOM      1  N   UNL     1      46.884   7.177  13.686  0.00  0.00    +0.000 N 
ATOM      2  H   UNL     1      46.410   7.254  14.587  0.00  0.00    +0.000 HD
ENDROOT
BRANCH   1   3
ATOM      3  C   UNL     1      46.181   6.342  12.820  0.00  0.00    +0.000 A 
ATOM      4  C   UNL     1      45.450   5.214  13.216  0.00  0.00    +0.000 A 
ATOM      5  C   UNL     1      44.814   4.396  12.269  0.00  0.00    +0.000 A 
ATOM      6  C   UNL     1      44.921   4.674  10.901  0.00  0.00    +0.000 A 
ATOM      7  C   UNL     1      45.690   5.766  10.491  0.00  0.00    +0.000 A 
ATOM      8  C   UNL     1      46.310   6.580  11.445  0.00  0.00    +0.000 A 
BRANCH   6   9
ATOM      9  C   UNL     1      44.252   3.774   9.928  0.00  0.00    +0.000 C 
ATOM     10  N   UNL     1      44.143   4.210   8.635  0.00  0.00    +0.000 N 
ATOM     11  O   UNL     1      43.788   2.691  10.264  0.00  0.00    +0.000 OA
ATOM     12  H   UNL     1      44.319   5.164   8.357  0.00  0.00    +0.000 HD
ATOM     13  H   UNL     1      43.614   3.624   8.003  0.00  0.00    +0.000 HD
ENDBRANCH   6   9
ENDBRANCH   1   3
BRANCH   1  14
ATOM     14  C   UNL     1      48.330   7.057  13.857  0.00  0.00    +0.000 C 
BRANCH  14  18
ATOM     15  C   UNL     1      49.365   5.865  17.870  0.00  0.00    +0.000 A 
ATOM     16  C   UNL     1      49.706   7.146  17.406  0.00  0.00    +0.000 A 
ATOM     17  C   UNL     1      49.361   7.555  16.115  0.00  0.00    +0.000 A 
ATOM     18  C   UNL     1      48.675   6.674  15.287  0.00  0.00    +0.000 A 
ATOM     19  N   UNL     1      48.299   5.444  15.713  0.00  0.00    +0.000 NA
ATOM     20  C   UNL     1      48.649   5.077  16.972  0.00  0.00    +0.000 A 
BRANCH  15  22
ATOM     21  C   UNL     1      51.180   4.731  19.207  0.00  0.00    +0.000 C 
ATOM     22  C   UNL     1      49.784   5.386  19.265  0.00  0.00    +0.000 C 
ATOM     23  C   UNL     1      48.767   4.346  19.787  0.00  0.00    +0.000 C 
ATOM     24  C   UNL     1      49.849   6.523  20.313  0.00  0.00    +0.000 C 
ENDBRANCH  15  22
ENDBRANCH  14  18
ENDBRANCH   1  14
TORSDOF 5
ENDMDL
MODEL 7
REMARK VINA RESULT:    -5.569      3.453      5.711
REMARK INTER + INTRA:          -7.897
REMARK INTER:                  -7.366
REMARK INTRA:                  -0.531
REMARK UNBOUND:                -0.700
REMARK  Name = 
REMARK  8 active torsions:
REMARK  status: ('A' for Active; 'I' for Inactive)
REMARK    1  A    between atoms: C_1  and  C_2
REMARK    2  A    between atoms: C_2  and  C_3
REMARK    3  A    between atoms: C_2  and  C_4
REMARK    4  A    between atoms: C_2  and  C_5
REMARK    5  A    between atoms: C_8  and  C_9
REMARK    6  A    between atoms: C_9  and  N_10
REMARK    7  A    between atoms: N_10  and  C_11
REMARK    8  A    between atoms: C_14  and  C_15
REMARK                            x       y       z     vdW  Elec       q    Type
REMARK                         _______ _______ _______ _____ _____    ______ ____
ROOT
ATOM      1  N   UNL     1      47.270   6.985  13.959  0.00  0.00    +0.000 N 
ATOM      2  H   UNL     1      46.682   7.182  14.770  0.00  0.00    +0.000 HD
ENDROOT
BRANCH   1   3
ATOM      3  C   UNL     1      46.566   6.266  12.994  0.00  0.00    +0.000 A 
ATOM      4  C   UNL     1      46.274   6.733  11.706  0.00  0.00    +0.000 A 
ATOM      5  C   UNL     1      45.512   5.963  10.814  0.00  0.00    +0.000 A 
ATOM      6  C   UNL     1      45.001   4.719  11.203  0.00  0.00    +0.000 A 
ATOM      7  C   UNL     1      45.242   4.266  12.502  0.00  0.00    +0.000 A 
ATOM      8  C   UNL     1      46.012   5.038  13.379  0.00  0.00    +0.000 A 
BRANCH   6   9
ATOM      9  C   UNL     1      44.182   3.942  10.239  0.00  0.00    +0.000 C 
ATOM     10  N   UNL     1      44.096   4.414   8.957  0.00  0.00    +0.000 N 
ATOM     11  O   UNL     1      43.580   2.929  10.573  0.00  0.00    +0.000 OA
ATOM     12  H   UNL     1      44.397   5.339   8.688  0.00  0.00    +0.000 HD
ATOM     13  H   UNL     1      43.471   3.921   8.334  0.00  0.00    +0.000 HD
ENDBRANCH   6   9
ENDBRANCH   1   3
BRANCH   1  14
ATOM     14  C   UNL     1      48.620   6.601  14.364  0.00  0.00    +0.000 C 
BRANCH  14  18
ATOM     15  C   UNL     1      48.764   6.138  18.648  0.00  0.00    +0.000 A 
ATOM     16  C   UNL     1      48.395   5.055  17.836  0.00  0.00    +0.000 A 
ATOM     17  C   UNL     1      48.362   5.181  16.445  0.00  0.00    +0.000 A 
ATOM     18  C   UNL     1      48.697   6.402  15.869  0.00  0.00    +0.000 A 
ATOM     19  N   UNL     1      49.090   7.458  16.619  0.00  0.00    +0.000 NA
ATOM     20  C   UNL     1      49.113   7.303  17.968  0.00  0.00    +0.000 A 
BRANCH  15  22
ATOM     21  C   UNL     1      47.537   6.779  20.759  0.00  0.00    +0.000 C 
ATOM     22  C   UNL     1      48.754   6.027  20.178  0.00  0.00    +0.000 C 
ATOM     23  C   UNL     1      50.045   6.648  20.756  0.00  0.00    +0.000 C 
ATOM     24  C   UNL     1      48.684   4.568  20.689  0.00  0.00    +0.000 C 
ENDBRANCH  15  22
ENDBRANCH  14  18
ENDBRANCH   1  14
TORSDOF 5
ENDMDL
MODEL 8
REMARK VINA RESULT:    -5.273      5.606      8.603
REMARK INTER + INTRA:          -7.513
REMARK INTER:                  -7.034
REMARK INTRA:                  -0.480
REMARK UNBOUND:                -0.700
REMARK  Name = 
REMARK  8 active torsions:
REMARK  status: ('A' for Active; 'I' for Inactive)
REMARK    1  A    between atoms: C_1  and  C_2
REMARK    2  A    between atoms: C_2  and  C_3
REMARK    3  A    between atoms: C_2  and  C_4
REMARK    4  A    between atoms: C_2  and  C_5
REMARK    5  A    between atoms: C_8  and  C_9
REMARK    6  A    between atoms: C_9  and  N_10
REMARK    7  A    between atoms: N_10  and  C_11
REMARK    8  A    between atoms: C_14  and  C_15
REMARK                            x       y       z     vdW  Elec       q    Type
REMARK                         _______ _______ _______ _____ _____    ______ ____
ROOT
ATOM      1  N   UNL     1      49.394   4.866  17.506  0.00  0.00    +0.000 N 
ATOM      2  H   UNL     1      49.081   5.216  18.413  0.00  0.00    +0.000 HD
ENDROOT
BRANCH   1   3
ATOM      3  C   UNL     1      50.424   3.939  17.656  0.00  0.00    +0.000 A 
ATOM      4  C   UNL     1      51.753   4.264  17.955  0.00  0.00    +0.000 A 
ATOM      5  C   UNL     1      52.740   3.268  18.036  0.00  0.00    +0.000 A 
ATOM      6  C   UNL     1      52.421   1.928  17.788  0.00  0.00    +0.000 A 
ATOM      7  C   UNL     1      51.110   1.598  17.437  0.00  0.00    +0.000 A 
ATOM      8  C   UNL     1      50.133   2.597  17.371  0.00  0.00    +0.000 A 
BRANCH   6   9
ATOM      9  C   UNL     1      53.496   0.905  17.862  0.00  0.00    +0.000 C 
ATOM     10  N   UNL     1      54.165   0.607  16.706  0.00  0.00    +0.000 N 
ATOM     11  O   UNL     1      53.764   0.326  18.907  0.00  0.00    +0.000 OA
ATOM     12  H   UNL     1      53.848   0.899  15.793  0.00  0.00    +0.000 HD
ATOM     13  H   UNL     1      54.836  -0.148  16.754  0.00  0.00    +0.000 HD
ENDBRANCH   6   9
ENDBRANCH   1   3
BRANCH   1  14
ATOM     14  C   UNL     1      49.472   5.942  16.522  0.00  0.00    +0.000 C 
BRANCH  14  18
ATOM     15  C   UNL     1      46.500   5.337  13.457  0.00  0.00    +0.000 A 
ATOM     16  C   UNL     1      47.342   6.459  13.409  0.00  0.00    +0.000 A 
ATOM     17  C   UNL     1      48.323   6.661  14.383  0.00  0.00    +0.000 A 
ATOM     18  C   UNL     1      48.456   5.733  15.411  0.00  0.00    +0.000 A 
ATOM     19  N   UNL     1      47.685   4.622  15.470  0.00  0.00    +0.000 NA
ATOM     20  C   UNL     1      46.742   4.455  14.508  0.00  0.00    +0.000 A 
BRANCH  15  22
ATOM     21  C   UNL     1      45.225   3.631  12.104  0.00  0.00    +0.000 C 
ATOM     22  C   UNL     1      45.386   5.132  12.423  0.00  0.00    +0.000 C 
ATOM     23  C   UNL     1      45.738   5.883  11.120  0.00  0.00    +0.000 C 
ATOM     24  C   UNL     1      44.008   5.657  12.891  0.00  0.00    +0.000 C 
ENDBRANCH  15  22
ENDBRANCH  14  18
ENDBRANCH   1  14
TORSDOF 5
ENDMDL
