MODEL 1
REMARK VINA RESULT:    -8.351      0.000      0.000
REMARK INTER + INTRA:         -11.605
REMARK INTER:                 -10.792
REMARK INTRA:                  -0.813
REMARK UNBOUND:                -0.813
REMARK  Name = 
REMARK  5 active torsions:
REMARK  status: ('A' for Active; 'I' for Inactive)
REMARK    1  A    between atoms: C_2  and  C_4
REMARK    2  A    between atoms: C_7  and  O_8
REMARK    3  A    between atoms: O_8  and  C_9
REMARK    4  A    between atoms: C_9  and  C_10
REMARK    5  A    between atoms: C_12  and  N_13
REMARK                            x       y       z     vdW  Elec       q    Type
REMARK                         _______ _______ _______ _____ _____    ______ ____
ROOT
ATOM      1  C   UNL     1      43.644   3.642  11.605  0.00  0.00    +0.000 C 
ENDROOT
BRANCH   1   2
ATOM      2  C   UNL     1      44.873   4.180  12.308  0.00  0.00    +0.000 A 
ATOM      3  C   UNL     1      45.112   5.553  12.417  0.00  0.00    +0.000 A 
ATOM      4  C   UNL     1      46.251   6.025  13.078  0.00  0.00    +0.000 A 
ATOM      5  C   UNL     1      47.096   5.062  13.635  0.00  0.00    +0.000 A 
ATOM      6  C   UNL     1      46.779   3.719  13.521  0.00  0.00    +0.000 A 
ATOM      7  N   UNL     1      45.690   3.258  12.874  0.00  0.00    +0.000 NA
BRANCH   4   8
ATOM      8  N   UNL     1      46.538   7.368  13.201  0.00  0.00    +0.000 N 
ATOM      9  C   UNL     1      45.546   8.430  12.980  0.00  0.00    +0.000 C 
ATOM     10  C   UNL     1      45.986   9.350  11.833  0.00  0.00    +0.000 C 
ATOM     11  O   UNL     1      47.313   9.862  12.045  0.00  0.00    +0.000 OA
ATOM     12  C   UNL     1      48.252   8.777  12.133  0.00  0.00    +0.000 C 
ATOM     13  C   UNL     1      47.929   7.839  13.308  0.00  0.00    +0.000 C 
ENDBRANCH   4   8
ENDBRANCH   1   2
BRANCH   1  14
ATOM     14  O   UNL     1      43.601   4.042  10.232  0.00  0.00    +0.000 OA
BRANCH  14  18
ATOM     15  C   UNL     1      46.520   2.628   7.602  0.00  0.00    +0.000 A 
ATOM     16  C   UNL     1      45.828   1.699   8.388  0.00  0.00    +0.000 A 
ATOM     17  C   UNL     1      44.836   2.130   9.282  0.00  0.00    +0.000 A 
ATOM     18  C   UNL     1      44.530   3.489   9.394  0.00  0.00    +0.000 A 
ATOM     19  C   UNL     1      45.220   4.411   8.602  0.00  0.00    +0.000 A 
ATOM     20  C   UNL     1      46.213   3.987   7.715  0.00  0.00    +0.000 A 
BRANCH  15  22
ATOM     21  N   UNL     1      47.792   2.974   5.550  0.00  0.00    +0.000 N 
ATOM     22  C   UNL     1      47.609   2.225   6.677  0.00  0.00    +0.000 C 
ATOM     23  O   UNL     1      48.341   1.273   6.925  0.00  0.00    +0.000 OA
ATOM     24  H   UNL     1      48.603   2.740   4.989  0.00  0.00    +0.000 HD
ATOM     25  H   UNL     1      47.397   3.896   5.441  0.00  0.00    +0.000 HD
ENDBRANCH  15  22
ENDBRANCH  14  18
ENDBRANCH   1  14
TORSDOF 5
ENDMDL
MODEL 2
REMARK VINA RESULT:    -8.127      1.003      1.423
REMARK INTER + INTRA:         -11.316
REMARK INTER:                 -10.581
REMARK INTRA:                  -0.736
REMARK UNBOUND:                -0.813
REMARK  Name = 
REMARK  5 active torsions:
REMARK  status: ('A' for Active; 'I' for Inactive)
REMARK    1  A    between atoms: C_2  and  C_4
REMARK    2  A    between atoms: C_7  and  O_8
REMARK    3  A    between atoms: O_8  and  C_9
REMARK    4  A    between atoms: C_9  and  C_10
REMARK    5  A    between atoms: C_12  and  N_13
REMARK                            x       y       z     vdW  Elec       q    Type
REMARK                         _______ _______ _______ _____ _____    ______ ____
ROOT
ATOM      1  C   UNL     1      43.700   4.278  11.513  0.00  0.00    +0.000 C 
ENDROOT
BRANCH   1   2
ATOM      2  C   UNL     1      44.943   4.708  12.264  0.00  0.00    +0.000 A 
ATOM      3  C   UNL     1      45.550   5.944  12.028  0.00  0.00    +0.000 A 
ATOM      4  C   UNL     1      46.693   6.322  12.740  0.00  0.00    +0.000 A 
ATOM      5  C   UNL     1      47.161   5.419  13.699  0.00  0.00    +0.000 A 
ATOM      6  C   UNL     1      46.488   4.227  13.906  0.00  0.00    +0.000 A 
ATOM      7  N   UNL     1      45.394   3.852  13.214  0.00  0.00    +0.000 NA
BRANCH   4   8
ATOM      8  N   UNL     1      47.335   7.525  12.536  0.00  0.00    +0.000 N 
ATOM      9  C   UNL     1      48.542   7.667  11.709  0.00  0.00    +0.000 C 
ATOM     10  C   UNL     1      49.712   8.200  12.547  0.00  0.00    +0.000 C 
ATOM     11  O   UNL     1      49.362   9.413  13.235  0.00  0.00    +0.000 OA
ATOM     12  C   UNL     1      48.252   9.177  14.117  0.00  0.00    +0.000 C 
ATOM     13  C   UNL     1      47.005   8.708  13.348  0.00  0.00    +0.000 C 
ENDBRANCH   4   8
ENDBRANCH   1   2
BRANCH   1  14
ATOM     14  O   UNL     1      43.788   4.589  10.119  0.00  0.00    +0.000 OA
BRANCH  14  18
ATOM     15  C   UNL     1      46.440   2.459   7.697  0.00  0.00    +0.000 A 
ATOM     16  C   UNL     1      45.627   1.741   8.583  0.00  0.00    +0.000 A 
ATOM     17  C   UNL     1      44.719   2.417   9.412  0.00  0.00    +0.000 A 
ATOM     18  C   UNL     1      44.617   3.809   9.359  0.00  0.00    +0.000 A 
ATOM     19  C   UNL     1      45.426   4.519   8.468  0.00  0.00    +0.000 A 
ATOM     20  C   UNL     1      46.337   3.851   7.645  0.00  0.00    +0.000 A 
BRANCH  15  22
ATOM     21  N   UNL     1      48.540   2.522   6.457  0.00  0.00    +0.000 N 
ATOM     22  C   UNL     1      47.449   1.792   6.835  0.00  0.00    +0.000 C 
ATOM     23  O   UNL     1      47.328   0.621   6.495  0.00  0.00    +0.000 OA
ATOM     24  H   UNL     1      49.260   2.017   5.956  0.00  0.00    +0.000 HD
ATOM     25  H   UNL     1      48.804   3.380   6.917  0.00  0.00    +0.000 HD
ENDBRANCH  15  22
ENDBRANCH  14  18
ENDBRANCH   1  14
TORSDOF 5
ENDMDL
MODEL 3
REMARK VINA RESULT:    -7.728      1.540      2.447
REMARK INTER + INTRA:         -10.800
REMARK INTER:                 -10.097
REMARK INTRA:                  -0.703
REMARK UNBOUND:                -0.813
REMARK  Name = 
REMARK  5 active torsions:
REMARK  status: ('A' for Active; 'I' for Inactive)
REMARK    1  A    between atoms: C_2  and  C_4
REMARK    2  A    between atoms: C_7  and  O_8
REMARK    3  A    between atoms: O_8  and  C_9
REMARK    4  A    between atoms: C_9  and  C_10
REMARK    5  A    between atoms: C_12  and  N_13
REMARK                            x       y       z     vdW  Elec       q    Type
REMARK                         _______ _______ _______ _____ _____    ______ ____
ROOT
ATOM      1  C   UNL     1      44.149   3.815  11.719  0.00  0.00    +0.000 C 
ENDROOT
BRANCH   1   2
ATOM      2  C   UNL     1      44.859   5.117  12.031  0.00  0.00    +0.000 A 
ATOM      3  C   UNL     1      46.132   5.136  12.608  0.00  0.00    +0.000 A 
ATOM      4  C   UNL     1      46.770   6.351  12.880  0.00  0.00    +0.000 A 
ATOM      5  C   UNL     1      46.084   7.513  12.520  0.00  0.00    +0.000 A 
ATOM      6  C   UNL     1      44.840   7.419  11.918  0.00  0.00    +0.000 A 
ATOM      7  N   UNL     1      44.215   6.253  11.666  0.00  0.00    +0.000 NA
BRANCH   4   8
ATOM      8  N   UNL     1      48.019   6.423  13.459  0.00  0.00    +0.000 N 
ATOM      9  C   UNL     1      48.257   6.230  14.896  0.00  0.00    +0.000 C 
ATOM     10  C   UNL     1      48.874   7.490  15.517  0.00  0.00    +0.000 C 
ATOM     11  O   UNL     1      50.054   7.907  14.808  0.00  0.00    +0.000 OA
ATOM     12  C   UNL     1      49.730   8.196  13.438  0.00  0.00    +0.000 C 
ATOM     13  C   UNL     1      49.170   6.960  12.713  0.00  0.00    +0.000 C 
ENDBRANCH   4   8
ENDBRANCH   1   2
BRANCH   1  14
ATOM     14  O   UNL     1      43.719   3.760  10.355  0.00  0.00    +0.000 OA
BRANCH  14  18
ATOM     15  C   UNL     1      46.595   2.679   7.528  0.00  0.00    +0.000 A 
ATOM     16  C   UNL     1      46.257   4.032   7.646  0.00  0.00    +0.000 A 
ATOM     17  C   UNL     1      45.299   4.440   8.586  0.00  0.00    +0.000 A 
ATOM     18  C   UNL     1      44.676   3.500   9.412  0.00  0.00    +0.000 A 
ATOM     19  C   UNL     1      45.022   2.152   9.292  0.00  0.00    +0.000 A 
ATOM     20  C   UNL     1      45.971   1.740   8.353  0.00  0.00    +0.000 A 
BRANCH  15  22
ATOM     21  N   UNL     1      47.823   3.003   5.445  0.00  0.00    +0.000 N 
ATOM     22  C   UNL     1      47.568   2.194   6.515  0.00  0.00    +0.000 C 
ATOM     23  O   UNL     1      48.146   1.122   6.645  0.00  0.00    +0.000 OA
ATOM     24  H   UNL     1      48.562   2.696   4.824  0.00  0.00    +0.000 HD
ATOM     25  H   UNL     1      47.577   3.981   5.432  0.00  0.00    +0.000 HD
ENDBRANCH  15  22
ENDBRANCH  14  18
ENDBRANCH   1  14
TORSDOF 5
ENDMDL
MODEL 4
REMARK VINA RESULT:    -7.373      2.670      3.650
REMARK INTER + INTRA:         -10.341
REMARK INTER:                  -9.906
REMARK INTRA:                  -0.435
REMARK UNBOUND:                -0.813
REMARK  Name = 
REMARK  5 active torsions:
REMARK  status: ('A' for Active; 'I' for Inactive)
REMARK    1  A    between atoms: C_2  and  C_4
REMARK    2  A    between atoms: C_7  and  O_8
REMARK    3  A    between atoms: O_8  and  C_9
REMARK    4  A    between atoms: C_9  and  C_10
REMARK    5  A    between atoms: C_12  and  N_13
REMARK                            x       y       z     vdW  Elec       q    Type
REMARK                         _______ _______ _______ _____ _____    ______ ____
ROOT
ATOM      1  C   UNL     1      44.825   3.586  12.033  0.00  0.00    +0.000 C 
ENDROOT
BRANCH   1   2
ATOM      2  C   UNL     1      45.809   4.476  12.766  0.00  0.00    +0.000 A 
ATOM      3  C   UNL     1      46.251   4.170  14.057  0.00  0.00    +0.000 A 
ATOM      4  C   UNL     1      47.165   5.003  14.710  0.00  0.00    +0.000 A 
ATOM      5  C   UNL     1      47.619   6.116  13.997  0.00  0.00    +0.000 A 
ATOM      6  C   UNL     1      47.166   6.338  12.708  0.00  0.00    +0.000 A 
ATOM      7  N   UNL     1      46.275   5.547  12.078  0.00  0.00    +0.000 NA
BRANCH   4   8
ATOM      8  N   UNL     1      47.623   4.752  15.986  0.00  0.00    +0.000 N 
ATOM      9  C   UNL     1      48.550   5.640  16.702  0.00  0.00    +0.000 C 
ATOM     10  C   UNL     1      49.849   4.900  17.047  0.00  0.00    +0.000 C 
ATOM     11  O   UNL     1      49.590   3.676  17.756  0.00  0.00    +0.000 OA
ATOM     12  C   UNL     1      48.779   2.803  16.953  0.00  0.00    +0.000 C 
ATOM     13  C   UNL     1      47.418   3.438  16.620  0.00  0.00    +0.000 C 
ENDBRANCH   4   8
ENDBRANCH   1   2
BRANCH   1  14
ATOM     14  O   UNL     1      44.491   4.113  10.746  0.00  0.00    +0.000 OA
BRANCH  14  18
ATOM     15  C   UNL     1      46.544   2.744   7.378  0.00  0.00    +0.000 A 
ATOM     16  C   UNL     1      46.011   1.797   8.261  0.00  0.00    +0.000 A 
ATOM     17  C   UNL     1      45.310   2.213   9.402  0.00  0.00    +0.000 A 
ATOM     18  C   UNL     1      45.137   3.574   9.667  0.00  0.00    +0.000 A 
ATOM     19  C   UNL     1      45.667   4.514   8.779  0.00  0.00    +0.000 A 
ATOM     20  C   UNL     1      46.371   4.105   7.644  0.00  0.00    +0.000 A 
BRANCH  15  22
ATOM     21  N   UNL     1      47.244   3.149   5.076  0.00  0.00    +0.000 N 
ATOM     22  C   UNL     1      47.334   2.353   6.182  0.00  0.00    +0.000 C 
ATOM     23  O   UNL     1      48.065   1.370   6.191  0.00  0.00    +0.000 OA
ATOM     24  H   UNL     1      47.867   2.918   4.312  0.00  0.00    +0.000 HD
ATOM     25  H   UNL     1      46.872   4.086   5.110  0.00  0.00    +0.000 HD
ENDBRANCH  15  22
ENDBRANCH  14  18
ENDBRANCH   1  14
TORSDOF 5
ENDMDL
MODEL 5
REMARK VINA RESULT:    -6.749      3.923      8.294
REMARK INTER + INTRA:          -9.535
REMARK INTER:                  -9.088
REMARK INTRA:                  -0.447
REMARK UNBOUND:                -0.813
REMARK  Name = 
REMARK  5 active torsions:
REMARK  status: ('A' for Active; 'I' for Inactive)
REMARK    1  A    between atoms: C_2  and  C_4
REMARK    2  A    between atoms: C_7  and  O_8
REMARK    3  A    between atoms: O_8  and  C_9
REMARK    4  A    between atoms: C_9  and  C_10
REMARK    5  A    between atoms: C_12  and  N_13
REMARK                            x       y       z     vdW  Elec       q    Type
REMARK                         _______ _______ _______ _____ _____    ______ ____
ROOT
ATOM      1  C   UNL     1      46.635   4.776  13.743  0.00  0.00    +0.000 C 
ENDROOT
BRANCH   1   2
ATOM      2  C   UNL     1      45.441   4.412  12.885  0.00  0.00    +0.000 A 
ATOM      3  C   UNL     1      45.594   3.968  11.568  0.00  0.00    +0.000 A 
ATOM      4  C   UNL     1      44.475   3.630  10.799  0.00  0.00    +0.000 A 
ATOM      5  C   UNL     1      43.230   3.734  11.424  0.00  0.00    +0.000 A 
ATOM      6  C   UNL     1      43.156   4.145  12.743  0.00  0.00    +0.000 A 
ATOM      7  N   UNL     1      44.228   4.485  13.486  0.00  0.00    +0.000 NA
BRANCH   4   8
ATOM      8  N   UNL     1      44.572   3.199   9.492  0.00  0.00    +0.000 N 
ATOM      9  C   UNL     1      44.719   1.786   9.116  0.00  0.00    +0.000 C 
ATOM     10  C   UNL     1      46.031   1.563   8.352  0.00  0.00    +0.000 C 
ATOM     11  O   UNL     1      46.149   2.454   7.229  0.00  0.00    +0.000 OA
ATOM     12  C   UNL     1      46.119   3.819   7.678  0.00  0.00    +0.000 C 
ATOM     13  C   UNL     1      44.800   4.154   8.394  0.00  0.00    +0.000 C 
ENDBRANCH   4   8
ENDBRANCH   1   2
BRANCH   1  14
ATOM     14  O   UNL     1      46.996   3.713  14.630  0.00  0.00    +0.000 OA
BRANCH  14  18
ATOM     15  C   UNL     1      48.626   4.512  18.390  0.00  0.00    +0.000 A 
ATOM     16  C   UNL     1      48.692   5.512  17.411  0.00  0.00    +0.000 A 
ATOM     17  C   UNL     1      48.154   5.287  16.136  0.00  0.00    +0.000 A 
ATOM     18  C   UNL     1      47.545   4.067  15.832  0.00  0.00    +0.000 A 
ATOM     19  C   UNL     1      47.476   3.075  16.815  0.00  0.00    +0.000 A 
ATOM     20  C   UNL     1      48.017   3.292  18.085  0.00  0.00    +0.000 A 
BRANCH  15  22
ATOM     21  N   UNL     1      48.666   3.990  20.773  0.00  0.00    +0.000 N 
ATOM     22  C   UNL     1      49.224   4.686  19.738  0.00  0.00    +0.000 C 
ATOM     23  O   UNL     1      50.201   5.404  19.918  0.00  0.00    +0.000 OA
ATOM     24  H   UNL     1      49.152   4.047  21.659  0.00  0.00    +0.000 HD
ATOM     25  H   UNL     1      48.046   3.207  20.628  0.00  0.00    +0.000 HD
ENDBRANCH  15  22
ENDBRANCH  14  18
ENDBRANCH   1  14
TORSDOF 5
ENDMDL
MODEL 6
REMARK VINA RESULT:    -6.670      4.949      8.135
REMARK INTER + INTRA:          -9.433
REMARK INTER:                  -8.884
REMARK INTRA:                  -0.550
REMARK UNBOUND:                -0.813
REMARK  Name = 
REMARK  5 active torsions:
REMARK  status: ('A' for Active; 'I' for Inactive)
REMARK    1  A    between atoms: C_2  and  C_4
REMARK    2  A    between atoms: C_7  and  O_8
REMARK    3  A    between atoms: O_8  and  C_9
REMARK    4  A    between atoms: C_9  and  C_10
REMARK    5  A    between atoms: C_12  and  N_13
REMARK                            x       y       z     vdW  Elec       q    Type
REMARK                         _______ _______ _______ _____ _____    ______ ____
ROOT
ATOM      1  C   UNL     1      47.464   4.245  16.265  0.00  0.00    +0.000 C 
ENDROOT
BRANCH   1   2
ATOM      2  C   UNL     1      47.237   4.888  14.913  0.00  0.00    +0.000 A 
ATOM      3  C   UNL     1      46.158   4.525  14.101  0.00  0.00    +0.000 A 
ATOM      4  C   UNL     1      45.965   5.140  12.860  0.00  0.00    +0.000 A 
ATOM      5  C   UNL     1      46.879   6.135  12.504  0.00  0.00    +0.000 A 
ATOM      6  C   UNL     1      47.903   6.469  13.373  0.00  0.00    +0.000 A 
ATOM      7  N   UNL     1      48.102   5.872  14.564  0.00  0.00    +0.000 NA
BRANCH   4   8
ATOM      8  N   UNL     1      44.924   4.808  12.018  0.00  0.00    +0.000 N 
ATOM      9  C   UNL     1      43.644   4.263  12.492  0.00  0.00    +0.000 C 
ATOM     10  C   UNL     1      43.395   2.871  11.896  0.00  0.00    +0.000 C 
ATOM     11  O   UNL     1      43.499   2.882  10.462  0.00  0.00    +0.000 OA
ATOM     12  C   UNL     1      44.814   3.309  10.067  0.00  0.00    +0.000 C 
ATOM     13  C   UNL     1      45.122   4.733  10.561  0.00  0.00    +0.000 C 
ENDBRANCH   4   8
ENDBRANCH   1   2
BRANCH   1  14
ATOM     14  O   UNL     1      48.556   4.850  16.964  0.00  0.00    +0.000 OA
BRANCH  14  18
ATOM     15  C   UNL     1      51.715   2.207  17.648  0.00  0.00    +0.000 A 
ATOM     16  C   UNL     1      51.942   3.575  17.838  0.00  0.00    +0.000 A 
ATOM     17  C   UNL     1      50.907   4.498  17.624  0.00  0.00    +0.000 A 
ATOM     18  C   UNL     1      49.643   4.060  17.221  0.00  0.00    +0.000 A 
ATOM     19  C   UNL     1      49.422   2.692  17.039  0.00  0.00    +0.000 A 
ATOM     20  C   UNL     1      50.451   1.770  17.245  0.00  0.00    +0.000 A 
BRANCH  15  22
ATOM     21  N   UNL     1      52.427  -0.055  18.222  0.00  0.00    +0.000 N 
ATOM     22  C   UNL     1      52.792   1.197  17.817  0.00  0.00    +0.000 C 
ATOM     23  O   UNL     1      53.963   1.463  17.575  0.00  0.00    +0.000 OA
ATOM     24  H   UNL     1      53.163  -0.750  18.231  0.00  0.00    +0.000 HD
ATOM     25  H   UNL     1      51.474  -0.384  18.178  0.00  0.00    +0.000 HD
ENDBRANCH  15  22
ENDBRANCH  14  18
ENDBRANCH   1  14
TORSDOF 5
ENDMDL
MODEL 7
REMARK VINA RESULT:    -6.288      3.840      8.211
REMARK INTER + INTRA:          -8.939
REMARK INTER:                  -8.310
REMARK INTRA:                  -0.629
REMARK UNBOUND:                -0.813
REMARK  Name = 
REMARK  5 active torsions:
REMARK  status: ('A' for Active; 'I' for Inactive)
REMARK    1  A    between atoms: C_2  and  C_4
REMARK    2  A    between atoms: C_7  and  O_8
REMARK    3  A    between atoms: O_8  and  C_9
REMARK    4  A    between atoms: C_9  and  C_10
REMARK    5  A    between atoms: C_12  and  N_13
REMARK                            x       y       z     vdW  Elec       q    Type
REMARK                         _______ _______ _______ _____ _____    ______ ____
ROOT
ATOM      1  C   UNL     1      47.968   6.562  13.793  0.00  0.00    +0.000 C 
ENDROOT
BRANCH   1   2
ATOM      2  C   UNL     1      46.747   6.823  12.935  0.00  0.00    +0.000 A 
ATOM      3  C   UNL     1      46.039   5.779  12.334  0.00  0.00    +0.000 A 
ATOM      4  C   UNL     1      44.909   6.044  11.553  0.00  0.00    +0.000 A 
ATOM      5  C   UNL     1      44.526   7.383  11.439  0.00  0.00    +0.000 A 
ATOM      6  C   UNL     1      45.253   8.364  12.093  0.00  0.00    +0.000 A 
ATOM      7  N   UNL     1      46.350   8.115  12.836  0.00  0.00    +0.000 NA
BRANCH   4   8
ATOM      8  N   UNL     1      44.184   5.051  10.929  0.00  0.00    +0.000 N 
ATOM      9  C   UNL     1      43.040   4.372  11.554  0.00  0.00    +0.000 C 
ATOM     10  C   UNL     1      43.309   2.866  11.681  0.00  0.00    +0.000 C 
ATOM     11  O   UNL     1      43.680   2.286  10.419  0.00  0.00    +0.000 OA
ATOM     12  C   UNL     1      44.874   2.912   9.920  0.00  0.00    +0.000 C 
ATOM     13  C   UNL     1      44.672   4.420   9.691  0.00  0.00    +0.000 C 
ENDBRANCH   4   8
ENDBRANCH   1   2
BRANCH   1  14
ATOM     14  O   UNL     1      47.976   5.230  14.314  0.00  0.00    +0.000 OA
BRANCH  14  18
ATOM     15  C   UNL     1      48.064   5.069  18.486  0.00  0.00    +0.000 A 
ATOM     16  C   UNL     1      47.269   4.140  17.802  0.00  0.00    +0.000 A 
ATOM     17  C   UNL     1      47.214   4.156  16.401  0.00  0.00    +0.000 A 
ATOM     18  C   UNL     1      47.951   5.095  15.676  0.00  0.00    +0.000 A 
ATOM     19  C   UNL     1      48.747   6.016  16.364  0.00  0.00    +0.000 A 
ATOM     20  C   UNL     1      48.800   6.008  17.760  0.00  0.00    +0.000 A 
BRANCH  15  22
ATOM     21  N   UNL     1      48.640   4.042  20.622  0.00  0.00    +0.000 N 
ATOM     22  C   UNL     1      48.117   5.122  19.969  0.00  0.00    +0.000 C 
ATOM     23  O   UNL     1      47.735   6.107  20.589  0.00  0.00    +0.000 OA
ATOM     24  H   UNL     1      48.758   4.144  21.623  0.00  0.00    +0.000 HD
ATOM     25  H   UNL     1      49.194   3.340  20.154  0.00  0.00    +0.000 HD
ENDBRANCH  15  22
ENDBRANCH  14  18
ENDBRANCH   1  14
TORSDOF 5
ENDMDL
MODEL 8
REMARK VINA RESULT:    -6.081      4.662      8.043
REMARK INTER + INTRA:          -8.671
REMARK INTER:                  -8.044
REMARK INTRA:                  -0.627
REMARK UNBOUND:                -0.813
REMARK  Name = 
REMARK  5 active torsions:
REMARK  status: ('A' for Active; 'I' for Inactive)
REMARK    1  A    between atoms: C_2  and  C_4
REMARK    2  A    between atoms: C_7  and  O_8
REMARK    3  A    between atoms: O_8  and  C_9
REMARK    4  A    between atoms: C_9  and  C_10
REMARK    5  A    between atoms: C_12  and  N_13
REMARK                            x       y       z     vdW  Elec       q    Type
REMARK                         _______ _______ _______ _____ _____    ______ ____
ROOT
ATOM      1  C   UNL     1      48.707   6.632  15.455  0.00  0.00    +0.000 C 
ENDROOT
BRANCH   1   2
ATOM      2  C   UNL     1      47.931   6.448  14.167  0.00  0.00    +0.000 A 
ATOM      3  C   UNL     1      46.834   5.586  14.090  0.00  0.00    +0.000 A 
ATOM      4  C   UNL     1      46.129   5.439  12.890  0.00  0.00    +0.000 A 
ATOM      5  C   UNL     1      46.562   6.212  11.810  0.00  0.00    +0.000 A 
ATOM      6  C   UNL     1      47.635   7.074  11.968  0.00  0.00    +0.000 A 
ATOM      7  N   UNL     1      48.326   7.210  13.117  0.00  0.00    +0.000 NA
BRANCH   4   8
ATOM      8  N   UNL     1      45.048   4.593  12.760  0.00  0.00    +0.000 N 
ATOM      9  C   UNL     1      45.145   3.240  12.194  0.00  0.00    +0.000 C 
ATOM     10  C   UNL     1      44.265   3.114  10.943  0.00  0.00    +0.000 C 
ATOM     11  O   UNL     1      42.908   3.512  11.206  0.00  0.00    +0.000 OA
ATOM     12  C   UNL     1      42.873   4.882  11.642  0.00  0.00    +0.000 C 
ATOM     13  C   UNL     1      43.672   5.087  12.939  0.00  0.00    +0.000 C 
ENDBRANCH   4   8
ENDBRANCH   1   2
BRANCH   1  14
ATOM     14  O   UNL     1      48.298   5.697  16.458  0.00  0.00    +0.000 OA
BRANCH  14  18
ATOM     15  C   UNL     1      51.264   2.994  17.612  0.00  0.00    +0.000 A 
ATOM     16  C   UNL     1      49.975   2.503  17.375  0.00  0.00    +0.000 A 
ATOM     17  C   UNL     1      48.949   3.375  16.982  0.00  0.00    +0.000 A 
ATOM     18  C   UNL     1      49.206   4.740  16.821  0.00  0.00    +0.000 A 
ATOM     19  C   UNL     1      50.497   5.222  17.054  0.00  0.00    +0.000 A 
ATOM     20  C   UNL     1      51.520   4.358  17.452  0.00  0.00    +0.000 A 
BRANCH  15  22
ATOM     21  N   UNL     1      53.100   2.536  19.152  0.00  0.00    +0.000 N 
ATOM     22  C   UNL     1      52.370   2.118  18.076  0.00  0.00    +0.000 C 
ATOM     23  O   UNL     1      52.606   1.043  17.536  0.00  0.00    +0.000 OA
ATOM     24  H   UNL     1      53.780   1.876  19.511  0.00  0.00    +0.000 HD
ATOM     25  H   UNL     1      52.782   3.264  19.774  0.00  0.00    +0.000 HD
ENDBRANCH  15  22
ENDBRANCH  14  18
ENDBRANCH   1  14
TORSDOF 5
ENDMDL
MODEL 9
REMARK VINA RESULT:    -5.962      3.587      5.981
REMARK INTER + INTRA:          -8.518
REMARK INTER:                  -7.884
REMARK INTRA:                  -0.634
REMARK UNBOUND:                -0.813
REMARK  Name = 
REMARK  5 active torsions:
REMARK  status: ('A' for Active; 'I' for Inactive)
REMARK    1  A    between atoms: C_2  and  C_4
REMARK    2  A    between atoms: C_7  and  O_8
REMARK    3  A    between atoms: O_8  and  C_9
REMARK    4  A    between atoms: C_9  and  C_10
REMARK    5  A    between atoms: C_12  and  N_13
REMARK                            x       y       z     vdW  Elec       q    Type
REMARK                         _______ _______ _______ _____ _____    ______ ____
ROOT
ATOM      1  C   UNL     1      48.185   7.492  12.871  0.00  0.00    +0.000 C 
ENDROOT
BRANCH   1   2
ATOM      2  C   UNL     1      49.053   7.296  14.097  0.00  0.00    +0.000 A 
ATOM      3  C   UNL     1      48.710   6.382  15.098  0.00  0.00    +0.000 A 
ATOM      4  C   UNL     1      49.532   6.213  16.217  0.00  0.00    +0.000 A 
ATOM      5  C   UNL     1      50.702   6.975  16.256  0.00  0.00    +0.000 A 
ATOM      6  C   UNL     1      50.998   7.834  15.212  0.00  0.00    +0.000 A 
ATOM      7  N   UNL     1      50.204   8.011  14.137  0.00  0.00    +0.000 NA
BRANCH   4   8
ATOM      8  N   UNL     1      49.231   5.334  17.236  0.00  0.00    +0.000 N 
ATOM      9  C   UNL     1      50.092   4.202  17.607  0.00  0.00    +0.000 C 
ATOM     10  C   UNL     1      49.341   2.874  17.438  0.00  0.00    +0.000 C 
ATOM     11  O   UNL     1      48.090   2.879  18.148  0.00  0.00    +0.000 OA
ATOM     12  C   UNL     1      47.248   3.934  17.655  0.00  0.00    +0.000 C 
ATOM     13  C   UNL     1      47.893   5.316  17.852  0.00  0.00    +0.000 C 
ENDBRANCH   4   8
ENDBRANCH   1   2
BRANCH   1  14
ATOM     14  O   UNL     1      46.798   7.300  13.166  0.00  0.00    +0.000 OA
BRANCH  14  18
ATOM     15  C   UNL     1      44.813   4.079  11.401  0.00  0.00    +0.000 A 
ATOM     16  C   UNL     1      45.097   5.198  10.610  0.00  0.00    +0.000 A 
ATOM     17  C   UNL     1      45.766   6.300  11.161  0.00  0.00    +0.000 A 
ATOM     18  C   UNL     1      46.156   6.291  12.502  0.00  0.00    +0.000 A 
ATOM     19  C   UNL     1      45.875   5.168  13.286  0.00  0.00    +0.000 A 
ATOM     20  C   UNL     1      45.203   4.070  12.743  0.00  0.00    +0.000 A 
BRANCH  15  22
ATOM     21  N   UNL     1      44.630   2.206   9.849  0.00  0.00    +0.000 N 
ATOM     22  C   UNL     1      44.065   2.908  10.875  0.00  0.00    +0.000 C 
ATOM     23  O   UNL     1      42.994   2.562  11.359  0.00  0.00    +0.000 OA
ATOM     24  H   UNL     1      44.151   1.356   9.577  0.00  0.00    +0.000 HD
ATOM     25  H   UNL     1      45.605   2.293   9.603  0.00  0.00    +0.000 HD
ENDBRANCH  15  22
ENDBRANCH  14  18
ENDBRANCH   1  14
TORSDOF 5
ENDMDL
