MODEL 1
REMARK VINA RESULT:    -8.579      0.000      0.000
REMARK INTER + INTRA:         -12.603
REMARK INTER:                 -11.589
REMARK INTRA:                  -1.014
REMARK UNBOUND:                -1.014
REMARK  Name = 
REMARK  7 active torsions:
REMARK  status: ('A' for Active; 'I' for Inactive)
REMARK    1  A    between atoms: C_1  and  C_2
REMARK    2  A    between atoms: C_2  and  C_3
REMARK    3  A    between atoms: C_2  and  C_15
REMARK    4  A    between atoms: C_3  and  N_4
REMARK    5  A    between atoms: N_4  and  C_5
REMARK    6  A    between atoms: C_8  and  C_9
REMARK    7  A    between atoms: C_19  and  C_20
REMARK                            x       y       z     vdW  Elec       q    Type
REMARK                         _______ _______ _______ _____ _____    ______ ____
ROOT
ATOM      1  C   UNL     1      43.921   5.553  10.962  0.00  0.00    +0.000 C 
ENDROOT
BRANCH   1   3
ATOM      2  C   UNL     1      43.504   3.739  12.746  0.00  0.00    +0.000 C 
ATOM      3  C   UNL     1      44.443   4.684  12.067  0.00  0.00    +0.000 C 
BRANCH   3   4
ATOM      4  C   UNL     1      45.693   5.090  12.722  0.00  0.00    +0.000 A 
ATOM      5  C   UNL     1      46.451   6.159  12.234  0.00  0.00    +0.000 A 
ATOM      6  C   UNL     1      47.576   6.601  12.932  0.00  0.00    +0.000 A 
ATOM      7  C   UNL     1      47.936   5.986  14.131  0.00  0.00    +0.000 A 
ATOM      8  C   UNL     1      47.193   4.906  14.627  0.00  0.00    +0.000 A 
ATOM      9  C   UNL     1      46.088   4.450  13.904  0.00  0.00    +0.000 A 
BRANCH   8  10
ATOM     10  C   UNL     1      47.574   4.326  15.945  0.00  0.00    +0.000 C 
ATOM     11  N   UNL     1      47.151   4.944  17.088  0.00  0.00    +0.000 N 
ATOM     12  O   UNL     1      48.276   3.322  16.019  0.00  0.00    +0.000 OA
ATOM     13  H   UNL     1      46.548   5.749  17.137  0.00  0.00    +0.000 HD
ATOM     14  H   UNL     1      47.451   4.532  17.962  0.00  0.00    +0.000 HD
ENDBRANCH   8  10
ENDBRANCH   3   4
ENDBRANCH   1   3
BRANCH   1  15
ATOM     15  N   UNL     1      43.562   4.685   9.844  0.00  0.00    +0.000 N 
ATOM     16  H   UNL     1      42.963   5.146   9.164  0.00  0.00    +0.000 HD
BRANCH  15  17
ATOM     17  C   UNL     1      44.575   3.944   9.212  0.00  0.00    +0.000 A 
ATOM     18  C   UNL     1      45.459   4.631   8.366  0.00  0.00    +0.000 A 
ATOM     19  C   UNL     1      46.436   3.953   7.617  0.00  0.00    +0.000 A 
ATOM     20  C   UNL     1      46.543   2.560   7.697  0.00  0.00    +0.000 A 
ATOM     21  C   UNL     1      45.675   1.865   8.541  0.00  0.00    +0.000 A 
ATOM     22  C   UNL     1      44.705   2.547   9.268  0.00  0.00    +0.000 A 
ATOM     23  F   UNL     1      43.901   1.808  10.049  0.00  0.00    +0.000 F 
BRANCH  20  24
ATOM     24  C   UNL     1      47.519   1.750   6.915  0.00  0.00    +0.000 C 
ATOM     25  N   UNL     1      48.611   2.368   6.378  0.00  0.00    +0.000 N 
ATOM     26  O   UNL     1      47.351   0.549   6.739  0.00  0.00    +0.000 OA
ATOM     27  H   UNL     1      48.822   3.350   6.443  0.00  0.00    +0.000 HD
ATOM     28  H   UNL     1      49.230   1.784   5.830  0.00  0.00    +0.000 HD
ENDBRANCH  20  24
ENDBRANCH  15  17
ENDBRANCH   1  15
TORSDOF 6
ENDMDL
MODEL 2
REMARK VINA RESULT:    -8.319      2.307      2.739
REMARK INTER + INTRA:         -12.251
REMARK INTER:                 -11.220
REMARK INTRA:                  -1.031
REMARK UNBOUND:                -1.014
REMARK  Name = 
REMARK  7 active torsions:
REMARK  status: ('A' for Active; 'I' for Inactive)
REMARK    1  A    between atoms: C_1  and  C_2
REMARK    2  A    between atoms: C_2  and  C_3
REMARK    3  A    between atoms: C_2  and  C_15
REMARK    4  A    between atoms: C_3  and  N_4
REMARK    5  A    between atoms: N_4  and  C_5
REMARK    6  A    between atoms: C_8  and  C_9
REMARK    7  A    between atoms: C_19  and  C_20
REMARK                            x       y       z     vdW  Elec       q    Type
REMARK                         _______ _______ _______ _____ _____    ______ ____
ROOT
ATOM      1  C   UNL     1      43.673   4.703  11.366  0.00  0.00    +0.000 C 
ENDROOT
BRANCH   1   3
ATOM      2  C   UNL     1      45.652   3.769  12.729  0.00  0.00    +0.000 C 
ATOM      3  C   UNL     1      45.064   4.868  11.902  0.00  0.00    +0.000 C 
BRANCH   3   4
ATOM      4  C   UNL     1      45.612   6.228  11.973  0.00  0.00    +0.000 A 
ATOM      5  C   UNL     1      44.794   7.322  12.273  0.00  0.00    +0.000 A 
ATOM      6  C   UNL     1      45.349   8.590  12.446  0.00  0.00    +0.000 A 
ATOM      7  C   UNL     1      46.729   8.766  12.338  0.00  0.00    +0.000 A 
ATOM      8  C   UNL     1      47.561   7.681  12.028  0.00  0.00    +0.000 A 
ATOM      9  C   UNL     1      46.991   6.422  11.824  0.00  0.00    +0.000 A 
BRANCH   8  10
ATOM     10  C   UNL     1      49.033   7.902  11.990  0.00  0.00    +0.000 C 
ATOM     11  N   UNL     1      49.846   7.069  12.708  0.00  0.00    +0.000 N 
ATOM     12  O   UNL     1      49.522   8.826  11.348  0.00  0.00    +0.000 OA
ATOM     13  H   UNL     1      49.550   6.266  13.237  0.00  0.00    +0.000 HD
ATOM     14  H   UNL     1      50.838   7.267  12.675  0.00  0.00    +0.000 HD
ENDBRANCH   8  10
ENDBRANCH   3   4
ENDBRANCH   1   3
BRANCH   1  15
ATOM     15  N   UNL     1      43.744   4.776   9.910  0.00  0.00    +0.000 N 
ATOM     16  H   UNL     1      43.725   5.732   9.562  0.00  0.00    +0.000 HD
BRANCH  15  17
ATOM     17  C   UNL     1      44.713   4.009   9.241  0.00  0.00    +0.000 A 
ATOM     18  C   UNL     1      45.619   4.681   8.406  0.00  0.00    +0.000 A 
ATOM     19  C   UNL     1      46.554   3.982   7.623  0.00  0.00    +0.000 A 
ATOM     20  C   UNL     1      46.595   2.584   7.657  0.00  0.00    +0.000 A 
ATOM     21  C   UNL     1      45.704   1.904   8.488  0.00  0.00    +0.000 A 
ATOM     22  C   UNL     1      44.776   2.606   9.250  0.00  0.00    +0.000 A 
ATOM     23  F   UNL     1      43.946   1.882  10.017  0.00  0.00    +0.000 F 
BRANCH  20  24
ATOM     24  C   UNL     1      47.522   1.754   6.836  0.00  0.00    +0.000 C 
ATOM     25  N   UNL     1      48.667   2.322   6.355  0.00  0.00    +0.000 N 
ATOM     26  O   UNL     1      47.269   0.584   6.579  0.00  0.00    +0.000 OA
ATOM     27  H   UNL     1      48.949   3.278   6.487  0.00  0.00    +0.000 HD
ATOM     28  H   UNL     1      49.250   1.729   5.778  0.00  0.00    +0.000 HD
ENDBRANCH  20  24
ENDBRANCH  15  17
ENDBRANCH   1  15
TORSDOF 6
ENDMDL
MODEL 3
REMARK VINA RESULT:    -8.281      2.828      3.455
REMARK INTER + INTRA:         -12.199
REMARK INTER:                 -11.328
REMARK INTRA:                  -0.871
REMARK UNBOUND:                -1.014
REMARK  Name = 
REMARK  7 active torsions:
REMARK  status: ('A' for Active; 'I' for Inactive)
REMARK    1  A    between atoms: C_1  and  C_2
REMARK    2  A    between atoms: C_2  and  C_3
REMARK    3  A    between atoms: C_2  and  C_15
REMARK    4  A    between atoms: C_3  and  N_4
REMARK    5  A    between atoms: N_4  and  C_5
REMARK    6  A    between atoms: C_8  and  C_9
REMARK    7  A    between atoms: C_19  and  C_20
REMARK                            x       y       z     vdW  Elec       q    Type
REMARK                         _______ _______ _______ _____ _____    ______ ____
ROOT
ATOM      1  C   UNL     1      43.705   4.729  11.392  0.00  0.00    +0.000 C 
ENDROOT
BRANCH   1   3
ATOM      2  C   UNL     1      45.694   3.704  12.671  0.00  0.00    +0.000 C 
ATOM      3  C   UNL     1      45.104   4.853  11.916  0.00  0.00    +0.000 C 
BRANCH   3   4
ATOM      4  C   UNL     1      45.664   6.202  12.058  0.00  0.00    +0.000 A 
ATOM      5  C   UNL     1      47.043   6.403  12.171  0.00  0.00    +0.000 A 
ATOM      6  C   UNL     1      47.567   7.697  12.193  0.00  0.00    +0.000 A 
ATOM      7  C   UNL     1      46.712   8.795  12.087  0.00  0.00    +0.000 A 
ATOM      8  C   UNL     1      45.327   8.609  11.984  0.00  0.00    +0.000 A 
ATOM      9  C   UNL     1      44.810   7.311  11.995  0.00  0.00    +0.000 A 
BRANCH   8  10
ATOM     10  C   UNL     1      44.460   9.807  11.803  0.00  0.00    +0.000 C 
ATOM     11  N   UNL     1      43.194   9.640  11.314  0.00  0.00    +0.000 N 
ATOM     12  O   UNL     1      44.869  10.934  12.062  0.00  0.00    +0.000 OA
ATOM     13  H   UNL     1      42.753   8.760  11.102  0.00  0.00    +0.000 HD
ATOM     14  H   UNL     1      42.647  10.481  11.183  0.00  0.00    +0.000 HD
ENDBRANCH   8  10
ENDBRANCH   3   4
ENDBRANCH   1   3
BRANCH   1  15
ATOM     15  N   UNL     1      43.766   4.803   9.935  0.00  0.00    +0.000 N 
ATOM     16  H   UNL     1      43.750   5.759   9.588  0.00  0.00    +0.000 HD
BRANCH  15  17
ATOM     17  C   UNL     1      44.725   4.030   9.260  0.00  0.00    +0.000 A 
ATOM     18  C   UNL     1      45.633   4.697   8.423  0.00  0.00    +0.000 A 
ATOM     19  C   UNL     1      46.559   3.993   7.633  0.00  0.00    +0.000 A 
ATOM     20  C   UNL     1      46.589   2.595   7.662  0.00  0.00    +0.000 A 
ATOM     21  C   UNL     1      45.696   1.919   8.496  0.00  0.00    +0.000 A 
ATOM     22  C   UNL     1      44.777   2.626   9.264  0.00  0.00    +0.000 A 
ATOM     23  F   UNL     1      43.945   1.906  10.032  0.00  0.00    +0.000 F 
BRANCH  20  24
ATOM     24  C   UNL     1      47.505   1.760   6.835  0.00  0.00    +0.000 C 
ATOM     25  N   UNL     1      48.616   2.339   6.291  0.00  0.00    +0.000 N 
ATOM     26  O   UNL     1      47.273   0.576   6.627  0.00  0.00    +0.000 OA
ATOM     27  H   UNL     1      48.878   3.306   6.380  0.00  0.00    +0.000 HD
ATOM     28  H   UNL     1      49.192   1.741   5.712  0.00  0.00    +0.000 HD
ENDBRANCH  20  24
ENDBRANCH  15  17
ENDBRANCH   1  15
TORSDOF 6
ENDMDL
MODEL 4
REMARK VINA RESULT:    -7.848      2.413      6.181
REMARK INTER + INTRA:         -11.615
REMARK INTER:                 -10.218
REMARK INTRA:                  -1.397
REMARK UNBOUND:                -1.014
REMARK  Name = 
REMARK  7 active torsions:
REMARK  status: ('A' for Active; 'I' for Inactive)
REMARK    1  A    between atoms: C_1  and  C_2
REMARK    2  A    between atoms: C_2  and  C_3
REMARK    3  A    between atoms: C_2  and  C_15
REMARK    4  A    between atoms: C_3  and  N_4
REMARK    5  A    between atoms: N_4  and  C_5
REMARK    6  A    between atoms: C_8  and  C_9
REMARK    7  A    between atoms: C_19  and  C_20
REMARK                            x       y       z     vdW  Elec       q    Type
REMARK                         _______ _______ _______ _____ _____    ______ ____
ROOT
ATOM      1  C   UNL     1      43.039   4.665  11.435  0.00  0.00    +0.000 C 
ENDROOT
BRANCH   1   3
ATOM      2  C   UNL     1      43.568   2.163  11.762  0.00  0.00    +0.000 C 
ATOM      3  C   UNL     1      43.597   3.383  10.896  0.00  0.00    +0.000 C 
BRANCH   3   4
ATOM      4  C   UNL     1      44.520   3.465   9.758  0.00  0.00    +0.000 A 
ATOM      5  C   UNL     1      44.918   4.700   9.237  0.00  0.00    +0.000 A 
ATOM      6  C   UNL     1      45.881   4.763   8.228  0.00  0.00    +0.000 A 
ATOM      7  C   UNL     1      46.462   3.589   7.748  0.00  0.00    +0.000 A 
ATOM      8  C   UNL     1      46.066   2.343   8.252  0.00  0.00    +0.000 A 
ATOM      9  C   UNL     1      45.078   2.289   9.239  0.00  0.00    +0.000 A 
BRANCH   8  10
ATOM     10  C   UNL     1      46.762   1.122   7.758  0.00  0.00    +0.000 C 
ATOM     11  N   UNL     1      47.875   1.265   6.977  0.00  0.00    +0.000 N 
ATOM     12  O   UNL     1      46.342  -0.000   8.021  0.00  0.00    +0.000 OA
ATOM     13  H   UNL     1      48.318   2.135   6.733  0.00  0.00    +0.000 HD
ATOM     14  H   UNL     1      48.305   0.412   6.643  0.00  0.00    +0.000 HD
ENDBRANCH   8  10
ENDBRANCH   3   4
ENDBRANCH   1   3
BRANCH   1  15
ATOM     15  N   UNL     1      43.682   4.927  12.720  0.00  0.00    +0.000 N 
ATOM     16  H   UNL     1      43.657   4.123  13.344  0.00  0.00    +0.000 HD
BRANCH  15  17
ATOM     17  C   UNL     1      44.945   5.542  12.730  0.00  0.00    +0.000 A 
ATOM     18  C   UNL     1      45.025   6.880  12.315  0.00  0.00    +0.000 A 
ATOM     19  C   UNL     1      46.260   7.542  12.197  0.00  0.00    +0.000 A 
ATOM     20  C   UNL     1      47.449   6.866  12.489  0.00  0.00    +0.000 A 
ATOM     21  C   UNL     1      47.384   5.537  12.910  0.00  0.00    +0.000 A 
ATOM     22  C   UNL     1      46.156   4.890  13.011  0.00  0.00    +0.000 A 
ATOM     23  F   UNL     1      46.176   3.610  13.412  0.00  0.00    +0.000 F 
BRANCH  20  24
ATOM     24  C   UNL     1      48.807   7.468  12.358  0.00  0.00    +0.000 C 
ATOM     25  N   UNL     1      49.745   7.195  13.311  0.00  0.00    +0.000 N 
ATOM     26  O   UNL     1      49.088   8.205  11.421  0.00  0.00    +0.000 OA
ATOM     27  H   UNL     1      49.604   6.626  14.129  0.00  0.00    +0.000 HD
ATOM     28  H   UNL     1      50.643   7.649  13.197  0.00  0.00    +0.000 HD
ENDBRANCH  20  24
ENDBRANCH  15  17
ENDBRANCH   1  15
TORSDOF 6
ENDMDL
MODEL 5
REMARK VINA RESULT:    -7.529      2.926      6.830
REMARK INTER + INTRA:         -11.185
REMARK INTER:                 -10.095
REMARK INTRA:                  -1.089
REMARK UNBOUND:                -1.014
REMARK  Name = 
REMARK  7 active torsions:
REMARK  status: ('A' for Active; 'I' for Inactive)
REMARK    1  A    between atoms: C_1  and  C_2
REMARK    2  A    between atoms: C_2  and  C_3
REMARK    3  A    between atoms: C_2  and  C_15
REMARK    4  A    between atoms: C_3  and  N_4
REMARK    5  A    between atoms: N_4  and  C_5
REMARK    6  A    between atoms: C_8  and  C_9
REMARK    7  A    between atoms: C_19  and  C_20
REMARK                            x       y       z     vdW  Elec       q    Type
REMARK                         _______ _______ _______ _____ _____    ______ ____
ROOT
ATOM      1  C   UNL     1      45.550   3.197  12.377  0.00  0.00    +0.000 C 
ENDROOT
BRANCH   1   3
ATOM      2  C   UNL     1      43.239   2.608  11.398  0.00  0.00    +0.000 C 
ATOM      3  C   UNL     1      44.611   3.174  11.209  0.00  0.00    +0.000 C 
BRANCH   3   4
ATOM      4  C   UNL     1      45.189   3.289   9.865  0.00  0.00    +0.000 A 
ATOM      5  C   UNL     1      45.338   4.535   9.246  0.00  0.00    +0.000 A 
ATOM      6  C   UNL     1      45.991   4.637   8.017  0.00  0.00    +0.000 A 
ATOM      7  C   UNL     1      46.512   3.495   7.409  0.00  0.00    +0.000 A 
ATOM      8  C   UNL     1      46.361   2.238   8.011  0.00  0.00    +0.000 A 
ATOM      9  C   UNL     1      45.678   2.142   9.226  0.00  0.00    +0.000 A 
BRANCH   8  10
ATOM     10  C   UNL     1      46.993   1.057   7.360  0.00  0.00    +0.000 C 
ATOM     11  N   UNL     1      46.611  -0.197   7.750  0.00  0.00    +0.000 N 
ATOM     12  O   UNL     1      47.861   1.190   6.504  0.00  0.00    +0.000 OA
ATOM     13  H   UNL     1      45.889  -0.415   8.416  0.00  0.00    +0.000 HD
ATOM     14  H   UNL     1      47.081  -0.972   7.301  0.00  0.00    +0.000 HD
ENDBRANCH   8  10
ENDBRANCH   3   4
ENDBRANCH   1   3
BRANCH   1  15
ATOM     15  N   UNL     1      45.169   4.315  13.235  0.00  0.00    +0.000 N 
ATOM     16  H   UNL     1      45.305   4.118  14.223  0.00  0.00    +0.000 HD
BRANCH  15  17
ATOM     17  C   UNL     1      45.621   5.604  12.904  0.00  0.00    +0.000 A 
ATOM     18  C   UNL     1      46.943   5.939  13.234  0.00  0.00    +0.000 A 
ATOM     19  C   UNL     1      47.446   7.236  13.032  0.00  0.00    +0.000 A 
ATOM     20  C   UNL     1      46.624   8.233  12.497  0.00  0.00    +0.000 A 
ATOM     21  C   UNL     1      45.308   7.912  12.157  0.00  0.00    +0.000 A 
ATOM     22  C   UNL     1      44.820   6.627  12.373  0.00  0.00    +0.000 A 
ATOM     23  F   UNL     1      43.542   6.398  12.030  0.00  0.00    +0.000 F 
BRANCH  20  24
ATOM     24  C   UNL     1      47.051   9.644  12.282  0.00  0.00    +0.000 C 
ATOM     25  N   UNL     1      46.116  10.636  12.351  0.00  0.00    +0.000 N 
ATOM     26  O   UNL     1      48.218   9.925  12.035  0.00  0.00    +0.000 OA
ATOM     27  H   UNL     1      45.132  10.506  12.519  0.00  0.00    +0.000 HD
ATOM     28  H   UNL     1      46.446  11.575  12.169  0.00  0.00    +0.000 HD
ENDBRANCH  20  24
ENDBRANCH  15  17
ENDBRANCH   1  15
TORSDOF 6
ENDMDL
MODEL 6
REMARK VINA RESULT:    -7.447      1.780      2.230
REMARK INTER + INTRA:         -11.074
REMARK INTER:                 -10.122
REMARK INTRA:                  -0.952
REMARK UNBOUND:                -1.014
REMARK  Name = 
REMARK  7 active torsions:
REMARK  status: ('A' for Active; 'I' for Inactive)
REMARK    1  A    between atoms: C_1  and  C_2
REMARK    2  A    between atoms: C_2  and  C_3
REMARK    3  A    between atoms: C_2  and  C_15
REMARK    4  A    between atoms: C_3  and  N_4
REMARK    5  A    between atoms: N_4  and  C_5
REMARK    6  A    between atoms: C_8  and  C_9
REMARK    7  A    between atoms: C_19  and  C_20
REMARK                            x       y       z     vdW  Elec       q    Type
REMARK                         _______ _______ _______ _____ _____    ______ ____
ROOT
ATOM      1  C   UNL     1      44.779   3.277  11.951  0.00  0.00    +0.000 C 
ENDROOT
BRANCH   1   3
ATOM      2  C   UNL     1      42.782   4.898  12.124  0.00  0.00    +0.000 C 
ATOM      3  C   UNL     1      44.242   4.630  12.309  0.00  0.00    +0.000 C 
BRANCH   3   4
ATOM      4  C   UNL     1      45.196   5.741  12.402  0.00  0.00    +0.000 A 
ATOM      5  C   UNL     1      45.051   6.886  11.611  0.00  0.00    +0.000 A 
ATOM      6  C   UNL     1      45.901   7.978  11.790  0.00  0.00    +0.000 A 
ATOM      7  C   UNL     1      46.889   7.936  12.774  0.00  0.00    +0.000 A 
ATOM      8  C   UNL     1      47.054   6.792  13.566  0.00  0.00    +0.000 A 
ATOM      9  C   UNL     1      46.219   5.692  13.357  0.00  0.00    +0.000 A 
BRANCH   8  10
ATOM     10  C   UNL     1      48.076   6.819  14.649  0.00  0.00    +0.000 C 
ATOM     11  N   UNL     1      48.242   7.966  15.375  0.00  0.00    +0.000 N 
ATOM     12  O   UNL     1      48.782   5.842  14.883  0.00  0.00    +0.000 OA
ATOM     13  H   UNL     1      47.696   8.806  15.286  0.00  0.00    +0.000 HD
ATOM     14  H   UNL     1      48.963   7.950  16.085  0.00  0.00    +0.000 HD
ENDBRANCH   8  10
ENDBRANCH   3   4
ENDBRANCH   1   3
BRANCH   1  15
ATOM     15  N   UNL     1      44.117   2.845  10.723  0.00  0.00    +0.000 N 
ATOM     16  H   UNL     1      43.211   3.288  10.587  0.00  0.00    +0.000 HD
BRANCH  15  17
ATOM     17  C   UNL     1      44.858   2.819   9.530  0.00  0.00    +0.000 A 
ATOM     18  C   UNL     1      45.385   1.587   9.112  0.00  0.00    +0.000 A 
ATOM     19  C   UNL     1      46.222   1.489   7.987  0.00  0.00    +0.000 A 
ATOM     20  C   UNL     1      46.555   2.634   7.256  0.00  0.00    +0.000 A 
ATOM     21  C   UNL     1      46.032   3.865   7.656  0.00  0.00    +0.000 A 
ATOM     22  C   UNL     1      45.213   3.950   8.778  0.00  0.00    +0.000 A 
ATOM     23  F   UNL     1      44.757   5.169   9.105  0.00  0.00    +0.000 F 
BRANCH  20  24
ATOM     24  C   UNL     1      47.463   2.637   6.075  0.00  0.00    +0.000 C 
ATOM     25  N   UNL     1      48.783   2.339   6.256  0.00  0.00    +0.000 N 
ATOM     26  O   UNL     1      47.049   2.911   4.955  0.00  0.00    +0.000 OA
ATOM     27  H   UNL     1      49.223   2.129   7.136  0.00  0.00    +0.000 HD
ATOM     28  H   UNL     1      49.368   2.383   5.430  0.00  0.00    +0.000 HD
ENDBRANCH  20  24
ENDBRANCH  15  17
ENDBRANCH   1  15
TORSDOF 6
ENDMDL
MODEL 7
REMARK VINA RESULT:    -6.618      3.225      5.340
REMARK INTER + INTRA:          -9.954
REMARK INTER:                  -8.960
REMARK INTRA:                  -0.993
REMARK UNBOUND:                -1.014
REMARK  Name = 
REMARK  7 active torsions:
REMARK  status: ('A' for Active; 'I' for Inactive)
REMARK    1  A    between atoms: C_1  and  C_2
REMARK    2  A    between atoms: C_2  and  C_3
REMARK    3  A    between atoms: C_2  and  C_15
REMARK    4  A    between atoms: C_3  and  N_4
REMARK    5  A    between atoms: N_4  and  C_5
REMARK    6  A    between atoms: C_8  and  C_9
REMARK    7  A    between atoms: C_19  and  C_20
REMARK                            x       y       z     vdW  Elec       q    Type
REMARK                         _______ _______ _______ _____ _____    ______ ____
ROOT
ATOM      1  C   UNL     1      48.675   6.791  14.523  0.00  0.00    +0.000 C 
ENDROOT
BRANCH   1   3
ATOM      2  C   UNL     1      49.230   8.510  16.362  0.00  0.00    +0.000 C 
ATOM      3  C   UNL     1      48.745   7.148  15.977  0.00  0.00    +0.000 C 
BRANCH   3   4
ATOM      4  C   UNL     1      48.764   6.050  16.950  0.00  0.00    +0.000 A 
ATOM      5  C   UNL     1      48.101   6.159  18.177  0.00  0.00    +0.000 A 
ATOM      6  C   UNL     1      48.035   5.066  19.043  0.00  0.00    +0.000 A 
ATOM      7  C   UNL     1      48.619   3.853  18.676  0.00  0.00    +0.000 A 
ATOM      8  C   UNL     1      49.297   3.731  17.456  0.00  0.00    +0.000 A 
ATOM      9  C   UNL     1      49.385   4.841  16.611  0.00  0.00    +0.000 A 
BRANCH   8  10
ATOM     10  C   UNL     1      49.845   2.399  17.076  0.00  0.00    +0.000 C 
ATOM     11  N   UNL     1      50.840   1.851  17.839  0.00  0.00    +0.000 N 
ATOM     12  O   UNL     1      49.437   1.801  16.086  0.00  0.00    +0.000 OA
ATOM     13  H   UNL     1      51.220   2.242  18.684  0.00  0.00    +0.000 HD
ATOM     14  H   UNL     1      51.201   0.957  17.533  0.00  0.00    +0.000 HD
ENDBRANCH   8  10
ENDBRANCH   3   4
ENDBRANCH   1   3
BRANCH   1  15
ATOM     15  N   UNL     1      47.312   7.046  14.067  0.00  0.00    +0.000 N 
ATOM     16  H   UNL     1      47.202   7.966  13.646  0.00  0.00    +0.000 HD
BRANCH  15  17
ATOM     17  C   UNL     1      46.657   6.058  13.312  0.00  0.00    +0.000 A 
ATOM     18  C   UNL     1      46.299   6.372  11.992  0.00  0.00    +0.000 A 
ATOM     19  C   UNL     1      45.553   5.481  11.200  0.00  0.00    +0.000 A 
ATOM     20  C   UNL     1      45.142   4.251  11.724  0.00  0.00    +0.000 A 
ATOM     21  C   UNL     1      45.497   3.923  13.033  0.00  0.00    +0.000 A 
ATOM     22  C   UNL     1      46.226   4.818  13.810  0.00  0.00    +0.000 A 
ATOM     23  F   UNL     1      46.520   4.436  15.062  0.00  0.00    +0.000 F 
BRANCH  20  24
ATOM     24  C   UNL     1      44.318   3.258  10.978  0.00  0.00    +0.000 C 
ATOM     25  N   UNL     1      44.930   2.434  10.078  0.00  0.00    +0.000 N 
ATOM     26  O   UNL     1      43.108   3.179  11.151  0.00  0.00    +0.000 OA
ATOM     27  H   UNL     1      45.908   2.440   9.846  0.00  0.00    +0.000 HD
ATOM     28  H   UNL     1      44.325   1.797   9.574  0.00  0.00    +0.000 HD
ENDBRANCH  20  24
ENDBRANCH  15  17
ENDBRANCH   1  15
TORSDOF 6
ENDMDL
MODEL 8
REMARK VINA RESULT:    -6.594      2.777      4.792
REMARK INTER + INTRA:          -9.921
REMARK INTER:                  -9.119
REMARK INTRA:                  -0.802
REMARK UNBOUND:                -1.014
REMARK  Name = 
REMARK  7 active torsions:
REMARK  status: ('A' for Active; 'I' for Inactive)
REMARK    1  A    between atoms: C_1  and  C_2
REMARK    2  A    between atoms: C_2  and  C_3
REMARK    3  A    between atoms: C_2  and  C_15
REMARK    4  A    between atoms: C_3  and  N_4
REMARK    5  A    between atoms: N_4  and  C_5
REMARK    6  A    between atoms: C_8  and  C_9
REMARK    7  A    between atoms: C_19  and  C_20
REMARK                            x       y       z     vdW  Elec       q    Type
REMARK                         _______ _______ _______ _____ _____    ______ ____
ROOT
ATOM      1  C   UNL     1      48.316   7.279  13.772  0.00  0.00    +0.000 C 
ENDROOT
BRANCH   1   3
ATOM      2  C   UNL     1      48.981   8.959  15.610  0.00  0.00    +0.000 C 
ATOM      3  C   UNL     1      48.702   7.550  15.195  0.00  0.00    +0.000 C 
BRANCH   3   4
ATOM      4  C   UNL     1      49.208   6.426  15.991  0.00  0.00    +0.000 A 
ATOM      5  C   UNL     1      50.549   6.365  16.385  0.00  0.00    +0.000 A 
ATOM      6  C   UNL     1      50.989   5.348  17.233  0.00  0.00    +0.000 A 
ATOM      7  C   UNL     1      50.085   4.396  17.705  0.00  0.00    +0.000 A 
ATOM      8  C   UNL     1      48.741   4.437  17.310  0.00  0.00    +0.000 A 
ATOM      9  C   UNL     1      48.317   5.440  16.435  0.00  0.00    +0.000 A 
BRANCH   8  10
ATOM     10  C   UNL     1      47.798   3.442  17.893  0.00  0.00    +0.000 C 
ATOM     11  N   UNL     1      48.133   2.818  19.063  0.00  0.00    +0.000 N 
ATOM     12  O   UNL     1      46.744   3.159  17.332  0.00  0.00    +0.000 OA
ATOM     13  H   UNL     1      48.954   3.001  19.616  0.00  0.00    +0.000 HD
ATOM     14  H   UNL     1      47.477   2.131  19.412  0.00  0.00    +0.000 HD
ENDBRANCH   8  10
ENDBRANCH   3   4
ENDBRANCH   1   3
BRANCH   1  15
ATOM     15  N   UNL     1      46.866   7.115  13.726  0.00  0.00    +0.000 N 
ATOM     16  H   UNL     1      46.368   8.002  13.726  0.00  0.00    +0.000 HD
BRANCH  15  17
ATOM     17  C   UNL     1      46.317   6.222  12.790  0.00  0.00    +0.000 A 
ATOM     18  C   UNL     1      46.140   6.679  11.474  0.00  0.00    +0.000 A 
ATOM     19  C   UNL     1      45.506   5.888  10.500  0.00  0.00    +0.000 A 
ATOM     20  C   UNL     1      45.027   4.616  10.830  0.00  0.00    +0.000 A 
ATOM     21  C   UNL     1      45.203   4.146  12.133  0.00  0.00    +0.000 A 
ATOM     22  C   UNL     1      45.822   4.943  13.090  0.00  0.00    +0.000 A 
ATOM     23  F   UNL     1      45.946   4.427  14.323  0.00  0.00    +0.000 F 
BRANCH  20  24
ATOM     24  C   UNL     1      44.309   3.721   9.880  0.00  0.00    +0.000 C 
ATOM     25  N   UNL     1      44.101   4.146   8.600  0.00  0.00    +0.000 N 
ATOM     26  O   UNL     1      43.896   2.622  10.230  0.00  0.00    +0.000 OA
ATOM     27  H   UNL     1      44.375   5.039   8.225  0.00  0.00    +0.000 HD
ATOM     28  H   UNL     1      43.583   3.518   7.999  0.00  0.00    +0.000 HD
ENDBRANCH  20  24
ENDBRANCH  15  17
ENDBRANCH   1  15
TORSDOF 6
ENDMDL
MODEL 9
REMARK VINA RESULT:    -6.458      2.484      7.140
REMARK INTER + INTRA:          -9.737
REMARK INTER:                  -8.589
REMARK INTRA:                  -1.148
REMARK UNBOUND:                -1.014
REMARK  Name = 
REMARK  7 active torsions:
REMARK  status: ('A' for Active; 'I' for Inactive)
REMARK    1  A    between atoms: C_1  and  C_2
REMARK    2  A    between atoms: C_2  and  C_3
REMARK    3  A    between atoms: C_2  and  C_15
REMARK    4  A    between atoms: C_3  and  N_4
REMARK    5  A    between atoms: N_4  and  C_5
REMARK    6  A    between atoms: C_8  and  C_9
REMARK    7  A    between atoms: C_19  and  C_20
REMARK                            x       y       z     vdW  Elec       q    Type
REMARK                         _______ _______ _______ _____ _____    ______ ____
ROOT
ATOM      1  C   UNL     1      46.317   7.662  13.159  0.00  0.00    +0.000 C 
ENDROOT
BRANCH   1   3
ATOM      2  C   UNL     1      44.716   8.628  11.384  0.00  0.00    +0.000 C 
ATOM      3  C   UNL     1      45.347   7.439  12.037  0.00  0.00    +0.000 C 
BRANCH   3   4
ATOM      4  C   UNL     1      44.732   6.112  11.919  0.00  0.00    +0.000 A 
ATOM      5  C   UNL     1      43.805   5.659  12.863  0.00  0.00    +0.000 A 
ATOM      6  C   UNL     1      43.147   4.442  12.676  0.00  0.00    +0.000 A 
ATOM      7  C   UNL     1      43.403   3.681  11.535  0.00  0.00    +0.000 A 
ATOM      8  C   UNL     1      44.337   4.117  10.585  0.00  0.00    +0.000 A 
ATOM      9  C   UNL     1      45.014   5.321  10.798  0.00  0.00    +0.000 A 
BRANCH   8  10
ATOM     10  C   UNL     1      44.527   3.307   9.350  0.00  0.00    +0.000 C 
ATOM     11  N   UNL     1      44.538   1.943   9.448  0.00  0.00    +0.000 N 
ATOM     12  O   UNL     1      44.694   3.841   8.258  0.00  0.00    +0.000 OA
ATOM     13  H   UNL     1      44.379   1.409  10.285  0.00  0.00    +0.000 HD
ATOM     14  H   UNL     1      44.694   1.431   8.589  0.00  0.00    +0.000 HD
ENDBRANCH   8  10
ENDBRANCH   3   4
ENDBRANCH   1   3
BRANCH   1  15
ATOM     15  N   UNL     1      47.308   6.590  13.112  0.00  0.00    +0.000 N 
ATOM     16  H   UNL     1      48.188   6.885  12.696  0.00  0.00    +0.000 HD
BRANCH  15  17
ATOM     17  C   UNL     1      47.521   5.818  14.266  0.00  0.00    +0.000 A 
ATOM     18  C   UNL     1      48.292   6.377  15.296  0.00  0.00    +0.000 A 
ATOM     19  C   UNL     1      48.639   5.638  16.440  0.00  0.00    +0.000 A 
ATOM     20  C   UNL     1      48.222   4.310  16.572  0.00  0.00    +0.000 A 
ATOM     21  C   UNL     1      47.448   3.742  15.558  0.00  0.00    +0.000 A 
ATOM     22  C   UNL     1      47.121   4.481  14.426  0.00  0.00    +0.000 A 
ATOM     23  F   UNL     1      46.383   3.864  13.490  0.00  0.00    +0.000 F 
BRANCH  20  24
ATOM     24  C   UNL     1      48.571   3.434  17.726  0.00  0.00    +0.000 C 
ATOM     25  N   UNL     1      47.928   3.622  18.916  0.00  0.00    +0.000 N 
ATOM     26  O   UNL     1      49.426   2.562  17.627  0.00  0.00    +0.000 OA
ATOM     27  H   UNL     1      47.234   4.326  19.104  0.00  0.00    +0.000 HD
ATOM     28  H   UNL     1      48.219   3.024  19.679  0.00  0.00    +0.000 HD
ENDBRANCH  20  24
ENDBRANCH  15  17
ENDBRANCH   1  15
TORSDOF 6
ENDMDL
