MODEL 1
REMARK VINA RESULT:    -9.378      0.000      0.000
REMARK INTER + INTRA:         -13.658
REMARK INTER:                 -12.667
REMARK INTRA:                  -0.990
REMARK UNBOUND:                -0.990
REMARK  Name = 
REMARK  6 active torsions:
REMARK  status: ('A' for Active; 'I' for Inactive)
REMARK    1  A    between atoms: C_2  and  C_4
REMARK    2  A    between atoms: N_8  and  C_9
REMARK    3  A    between atoms: C_9  and  C_10
REMARK    4  A    between atoms: C_10  and  C_13
REMARK    5  A    between atoms: C_18  and  C_19
REMARK    6  A    between atoms: C_19  and  C_20
REMARK                            x       y       z     vdW  Elec       q    Type
REMARK                         _______ _______ _______ _____ _____    ______ ____
ROOT
ATOM      1  C   UNL     1      43.268   5.555  12.220  0.00  0.00    +0.000 C 
ATOM      2  F   UNL     1      42.646   6.597  11.591  0.00  0.00    +0.000 F 
ATOM      3  F   UNL     1      42.478   5.256  13.293  0.00  0.00    +0.000 F 
ENDROOT
BRANCH   1   4
ATOM      4  C   UNL     1      44.684   5.896  12.644  0.00  0.00    +0.000 A 
ATOM      5  C   UNL     1      45.231   7.154  12.379  0.00  0.00    +0.000 A 
ATOM      6  C   UNL     1      46.571   7.409  12.681  0.00  0.00    +0.000 A 
ATOM      7  C   UNL     1      47.371   6.417  13.269  0.00  0.00    +0.000 A 
ATOM      8 CL   UNL     1      49.027   6.813  13.562  0.00  0.00    +0.000 Cl
ATOM      9  C   UNL     1      46.827   5.169  13.608  0.00  0.00    +0.000 A 
ATOM     10  C   UNL     1      45.484   4.921  13.271  0.00  0.00    +0.000 A 
BRANCH   9  11
ATOM     11  C   UNL     1      47.568   4.120  14.405  0.00  0.00    +0.000 C 
BRANCH  11  12
ATOM     12  C   UNL     1      47.541   4.483  15.854  0.00  0.00    +0.000 A 
ATOM     13  C   UNL     1      48.328   5.477  16.510  0.00  0.00    +0.000 A 
ATOM     14  C   UNL     1      48.127   5.352  17.867  0.00  0.00    +0.000 A 
ATOM     15  N   UNL     1      47.223   4.345  18.068  0.00  0.00    +0.000 N 
ATOM     16  C   UNL     1      46.856   3.819  16.857  0.00  0.00    +0.000 A 
ATOM     17  H   UNL     1      46.907   4.010  18.968  0.00  0.00    +0.000 HD
ENDBRANCH  11  12
ENDBRANCH   9  11
ENDBRANCH   1   4
BRANCH   1  18
ATOM     18  C   UNL     1      43.295   4.341  11.253  0.00  0.00    +0.000 C 
BRANCH  18  23
ATOM     19  C   UNL     1      46.488   2.533   7.707  0.00  0.00    +0.000 A 
ATOM     20  C   UNL     1      45.654   1.838   8.576  0.00  0.00    +0.000 A 
ATOM     21  C   UNL     1      44.731   2.550   9.347  0.00  0.00    +0.000 A 
ATOM     22  C   UNL     1      44.662   3.938   9.238  0.00  0.00    +0.000 A 
ATOM     23  N   UNL     1      43.716   4.700   9.895  0.00  0.00    +0.000 N 
ATOM     24  N   UNL     1      45.479   4.619   8.413  0.00  0.00    +0.000 NA
ATOM     25  C   UNL     1      46.376   3.912   7.674  0.00  0.00    +0.000 A 
ATOM     26  H   UNL     1      43.937   5.685   9.750  0.00  0.00    +0.000 HD
BRANCH  19  28
ATOM     27  N   UNL     1      48.540   2.625   6.410  0.00  0.00    +0.000 N 
ATOM     28  C   UNL     1      47.482   1.868   6.843  0.00  0.00    +0.000 C 
ATOM     29  O   UNL     1      47.393   0.690   6.552  0.00  0.00    +0.000 OA
ATOM     30  H   UNL     1      49.269   2.126   5.909  0.00  0.00    +0.000 HD
ATOM     31  H   UNL     1      48.789   3.505   6.835  0.00  0.00    +0.000 HD
ENDBRANCH  19  28
ENDBRANCH  18  23
ENDBRANCH   1  18
TORSDOF 6
ENDMDL
MODEL 2
REMARK VINA RESULT:    -8.816      2.987      4.899
REMARK INTER + INTRA:         -12.899
REMARK INTER:                 -11.725
REMARK INTRA:                  -1.174
REMARK UNBOUND:                -0.990
REMARK  Name = 
REMARK  6 active torsions:
REMARK  status: ('A' for Active; 'I' for Inactive)
REMARK    1  A    between atoms: C_2  and  C_4
REMARK    2  A    between atoms: N_8  and  C_9
REMARK    3  A    between atoms: C_9  and  C_10
REMARK    4  A    between atoms: C_10  and  C_13
REMARK    5  A    between atoms: C_18  and  C_19
REMARK    6  A    between atoms: C_19  and  C_20
REMARK                            x       y       z     vdW  Elec       q    Type
REMARK                         _______ _______ _______ _____ _____    ______ ____
ROOT
ATOM      1  C   UNL     1      44.689   4.888  12.244  0.00  0.00    +0.000 C 
ATOM      2  F   UNL     1      44.094   4.770  13.469  0.00  0.00    +0.000 F 
ATOM      3  F   UNL     1      45.517   3.807  12.138  0.00  0.00    +0.000 F 
ENDROOT
BRANCH   1   4
ATOM      4  C   UNL     1      45.447   6.192  12.091  0.00  0.00    +0.000 A 
ATOM      5  C   UNL     1      46.821   6.201  11.836  0.00  0.00    +0.000 A 
ATOM      6  C   UNL     1      47.518   7.411  11.807  0.00  0.00    +0.000 A 
ATOM      7  C   UNL     1      46.846   8.626  12.012  0.00  0.00    +0.000 A 
ATOM      8 CL   UNL     1      47.801  10.065  12.002  0.00  0.00    +0.000 Cl
ATOM      9  C   UNL     1      45.455   8.649  12.200  0.00  0.00    +0.000 A 
ATOM     10  C   UNL     1      44.776   7.419  12.255  0.00  0.00    +0.000 A 
BRANCH   9  11
ATOM     11  C   UNL     1      44.638   9.920  12.244  0.00  0.00    +0.000 C 
BRANCH  11  12
ATOM     12  C   UNL     1      44.158  10.251  10.869  0.00  0.00    +0.000 A 
ATOM     13  C   UNL     1      44.734  11.185   9.954  0.00  0.00    +0.000 A 
ATOM     14  C   UNL     1      43.875  11.320   8.886  0.00  0.00    +0.000 A 
ATOM     15  N   UNL     1      42.813  10.483   9.091  0.00  0.00    +0.000 N 
ATOM     16  C   UNL     1      42.978   9.826  10.281  0.00  0.00    +0.000 A 
ATOM     17  H   UNL     1      42.009  10.394   8.483  0.00  0.00    +0.000 HD
ENDBRANCH  11  12
ENDBRANCH   9  11
ENDBRANCH   1   4
BRANCH   1  18
ATOM     18  C   UNL     1      43.591   4.796  11.151  0.00  0.00    +0.000 C 
BRANCH  18  23
ATOM     19  C   UNL     1      46.554   2.598   7.626  0.00  0.00    +0.000 A 
ATOM     20  C   UNL     1      45.607   2.020   8.463  0.00  0.00    +0.000 A 
ATOM     21  C   UNL     1      44.784   2.847   9.232  0.00  0.00    +0.000 A 
ATOM     22  C   UNL     1      44.926   4.231   9.153  0.00  0.00    +0.000 A 
ATOM     23  N   UNL     1      44.090   5.114   9.809  0.00  0.00    +0.000 N 
ATOM     24  N   UNL     1      45.854   4.799   8.359  0.00  0.00    +0.000 NA
ATOM     25  C   UNL     1      46.651   3.979   7.622  0.00  0.00    +0.000 A 
ATOM     26  H   UNL     1      44.459   6.058   9.690  0.00  0.00    +0.000 HD
BRANCH  19  28
ATOM     27  N   UNL     1      48.533   2.462   6.222  0.00  0.00    +0.000 N 
ATOM     28  C   UNL     1      47.457   1.810   6.766  0.00  0.00    +0.000 C 
ATOM     29  O   UNL     1      47.281   0.621   6.572  0.00  0.00    +0.000 OA
ATOM     30  H   UNL     1      49.202   1.882   5.725  0.00  0.00    +0.000 HD
ATOM     31  H   UNL     1      48.858   3.354   6.564  0.00  0.00    +0.000 HD
ENDBRANCH  19  28
ENDBRANCH  18  23
ENDBRANCH   1  18
TORSDOF 6
ENDMDL
MODEL 3
REMARK VINA RESULT:    -8.596      1.979      2.431
REMARK INTER + INTRA:         -12.601
REMARK INTER:                 -11.759
REMARK INTRA:                  -0.842
REMARK UNBOUND:                -0.990
REMARK  Name = 
REMARK  6 active torsions:
REMARK  status: ('A' for Active; 'I' for Inactive)
REMARK    1  A    between atoms: C_2  and  C_4
REMARK    2  A    between atoms: N_8  and  C_9
REMARK    3  A    between atoms: C_9  and  C_10
REMARK    4  A    between atoms: C_10  and  C_13
REMARK    5  A    between atoms: C_18  and  C_19
REMARK    6  A    between atoms: C_19  and  C_20
REMARK                            x       y       z     vdW  Elec       q    Type
REMARK                         _______ _______ _______ _____ _____    ______ ____
ROOT
ATOM      1  C   UNL     1      44.446   4.487  12.285  0.00  0.00    +0.000 C 
ATOM      2  F   UNL     1      43.836   4.219  13.478  0.00  0.00    +0.000 F 
ATOM      3  F   UNL     1      45.271   3.424  12.052  0.00  0.00    +0.000 F 
ENDROOT
BRANCH   1   4
ATOM      4  C   UNL     1      45.211   5.796  12.306  0.00  0.00    +0.000 A 
ATOM      5  C   UNL     1      44.542   7.022  12.247  0.00  0.00    +0.000 A 
ATOM      6  C   UNL     1      45.271   8.210  12.158  0.00  0.00    +0.000 A 
ATOM      7  C   UNL     1      46.674   8.188  12.148  0.00  0.00    +0.000 A 
ATOM      8 CL   UNL     1      47.484   9.705  11.989  0.00  0.00    +0.000 Cl
ATOM      9  C   UNL     1      47.369   6.975  12.276  0.00  0.00    +0.000 A 
ATOM     10  C   UNL     1      46.619   5.787  12.336  0.00  0.00    +0.000 A 
BRANCH   9  11
ATOM     11  C   UNL     1      48.867   6.884  12.457  0.00  0.00    +0.000 C 
BRANCH  11  12
ATOM     12  C   UNL     1      49.218   7.191  13.876  0.00  0.00    +0.000 A 
ATOM     13  C   UNL     1      48.582   6.688  15.051  0.00  0.00    +0.000 A 
ATOM     14  C   UNL     1      49.090   7.369  16.136  0.00  0.00    +0.000 A 
ATOM     15  N   UNL     1      50.036   8.244  15.677  0.00  0.00    +0.000 N 
ATOM     16  C   UNL     1      50.127   8.139  14.314  0.00  0.00    +0.000 A 
ATOM     17  H   UNL     1      50.556   8.899  16.247  0.00  0.00    +0.000 HD
ENDBRANCH  11  12
ENDBRANCH   9  11
ENDBRANCH   1   4
BRANCH   1  18
ATOM     18  C   UNL     1      43.360   4.541  11.177  0.00  0.00    +0.000 C 
BRANCH  18  23
ATOM     19  C   UNL     1      46.465   2.509   7.674  0.00  0.00    +0.000 A 
ATOM     20  C   UNL     1      45.499   1.889   8.459  0.00  0.00    +0.000 A 
ATOM     21  C   UNL     1      44.640   2.677   9.230  0.00  0.00    +0.000 A 
ATOM     22  C   UNL     1      44.766   4.065   9.205  0.00  0.00    +0.000 A 
ATOM     23  N   UNL     1      43.898   4.913   9.865  0.00  0.00    +0.000 N 
ATOM     24  N   UNL     1      45.711   4.672   8.463  0.00  0.00    +0.000 NA
ATOM     25  C   UNL     1      46.543   3.890   7.723  0.00  0.00    +0.000 A 
ATOM     26  H   UNL     1      44.257   5.865   9.792  0.00  0.00    +0.000 HD
BRANCH  19  28
ATOM     27  N   UNL     1      48.498   2.443   6.346  0.00  0.00    +0.000 N 
ATOM     28  C   UNL     1      47.405   1.763   6.817  0.00  0.00    +0.000 C 
ATOM     29  O   UNL     1      47.244   0.583   6.564  0.00  0.00    +0.000 OA
ATOM     30  H   UNL     1      49.189   1.889   5.850  0.00  0.00    +0.000 HD
ATOM     31  H   UNL     1      48.804   3.320   6.740  0.00  0.00    +0.000 HD
ENDBRANCH  19  28
ENDBRANCH  18  23
ENDBRANCH   1  18
TORSDOF 6
ENDMDL
MODEL 4
REMARK VINA RESULT:    -8.431      2.229      3.946
REMARK INTER + INTRA:         -12.379
REMARK INTER:                 -12.260
REMARK INTRA:                  -0.118
REMARK UNBOUND:                -0.990
REMARK  Name = 
REMARK  6 active torsions:
REMARK  status: ('A' for Active; 'I' for Inactive)
REMARK    1  A    between atoms: C_2  and  C_4
REMARK    2  A    between atoms: N_8  and  C_9
REMARK    3  A    between atoms: C_9  and  C_10
REMARK    4  A    between atoms: C_10  and  C_13
REMARK    5  A    between atoms: C_18  and  C_19
REMARK    6  A    between atoms: C_19  and  C_20
REMARK                            x       y       z     vdW  Elec       q    Type
REMARK                         _______ _______ _______ _____ _____    ______ ____
ROOT
ATOM      1  C   UNL     1      43.319   5.221  12.251  0.00  0.00    +0.000 C 
ATOM      2  F   UNL     1      42.558   6.257  11.788  0.00  0.00    +0.000 F 
ATOM      3  F   UNL     1      42.663   4.754  13.354  0.00  0.00    +0.000 F 
ENDROOT
BRANCH   1   4
ATOM      4  C   UNL     1      44.737   5.646  12.581  0.00  0.00    +0.000 A 
ATOM      5  C   UNL     1      45.602   4.792  13.272  0.00  0.00    +0.000 A 
ATOM      6  C   UNL     1      46.865   5.245  13.661  0.00  0.00    +0.000 A 
ATOM      7  C   UNL     1      47.285   6.545  13.344  0.00  0.00    +0.000 A 
ATOM      8 CL   UNL     1      48.846   7.027  13.907  0.00  0.00    +0.000 Cl
ATOM      9  C   UNL     1      46.464   7.398  12.590  0.00  0.00    +0.000 A 
ATOM     10  C   UNL     1      45.184   6.935  12.233  0.00  0.00    +0.000 A 
BRANCH   9  11
ATOM     11  C   UNL     1      46.913   8.738  12.055  0.00  0.00    +0.000 C 
BRANCH  11  12
ATOM     12  C   UNL     1      45.730   9.638  11.909  0.00  0.00    +0.000 A 
ATOM     13  C   UNL     1      44.449   9.301  11.378  0.00  0.00    +0.000 A 
ATOM     14  C   UNL     1      43.721  10.465  11.250  0.00  0.00    +0.000 A 
ATOM     15  N   UNL     1      44.491  11.496  11.714  0.00  0.00    +0.000 N 
ATOM     16  C   UNL     1      45.704  11.006  12.123  0.00  0.00    +0.000 A 
ATOM     17  H   UNL     1      44.227  12.472  11.716  0.00  0.00    +0.000 HD
ENDBRANCH  11  12
ENDBRANCH   9  11
ENDBRANCH   1   4
BRANCH   1  18
ATOM     18  C   UNL     1      43.351   4.109  11.168  0.00  0.00    +0.000 C 
BRANCH  18  23
ATOM     19  C   UNL     1      46.642   2.765   7.508  0.00  0.00    +0.000 A 
ATOM     20  C   UNL     1      45.836   1.960   8.305  0.00  0.00    +0.000 A 
ATOM     21  C   UNL     1      44.877   2.559   9.126  0.00  0.00    +0.000 A 
ATOM     22  C   UNL     1      44.746   3.946   9.138  0.00  0.00    +0.000 A 
ATOM     23  N   UNL     1      43.762   4.605   9.851  0.00  0.00    +0.000 N 
ATOM     24  N   UNL     1      45.535   4.734   8.384  0.00  0.00    +0.000 NA
ATOM     25  C   UNL     1      46.468   4.135   7.595  0.00  0.00    +0.000 A 
ATOM     26  H   UNL     1      43.938   5.608   9.794  0.00  0.00    +0.000 HD
BRANCH  19  28
ATOM     27  N   UNL     1      47.874   2.890   5.418  0.00  0.00    +0.000 N 
ATOM     28  C   UNL     1      47.670   2.225   6.599  0.00  0.00    +0.000 C 
ATOM     29  O   UNL     1      48.339   1.251   6.893  0.00  0.00    +0.000 OA
ATOM     30  H   UNL     1      48.657   2.571   4.855  0.00  0.00    +0.000 HD
ATOM     31  H   UNL     1      47.542   3.829   5.258  0.00  0.00    +0.000 HD
ENDBRANCH  19  28
ENDBRANCH  18  23
ENDBRANCH   1  18
TORSDOF 6
ENDMDL
MODEL 5
REMARK VINA RESULT:    -7.902      3.417      7.760
REMARK INTER + INTRA:         -11.665
REMARK INTER:                 -10.549
REMARK INTRA:                  -1.116
REMARK UNBOUND:                -0.990
REMARK  Name = 
REMARK  6 active torsions:
REMARK  status: ('A' for Active; 'I' for Inactive)
REMARK    1  A    between atoms: C_2  and  C_4
REMARK    2  A    between atoms: N_8  and  C_9
REMARK    3  A    between atoms: C_9  and  C_10
REMARK    4  A    between atoms: C_10  and  C_13
REMARK    5  A    between atoms: C_18  and  C_19
REMARK    6  A    between atoms: C_19  and  C_20
REMARK                            x       y       z     vdW  Elec       q    Type
REMARK                         _______ _______ _______ _____ _____    ______ ____
ROOT
ATOM      1  C   UNL     1      46.665   7.296  12.024  0.00  0.00    +0.000 C 
ATOM      2  F   UNL     1      46.188   8.451  11.470  0.00  0.00    +0.000 F 
ATOM      3  F   UNL     1      47.872   7.078  11.423  0.00  0.00    +0.000 F 
ENDROOT
BRANCH   1   4
ATOM      4  C   UNL     1      45.721   6.126  11.827  0.00  0.00    +0.000 A 
ATOM      5  C   UNL     1      45.101   5.510  12.917  0.00  0.00    +0.000 A 
ATOM      6  C   UNL     1      44.323   4.367  12.722  0.00  0.00    +0.000 A 
ATOM      7  C   UNL     1      44.139   3.840  11.435  0.00  0.00    +0.000 A 
ATOM      8 CL   UNL     1      43.197   2.398  11.302  0.00  0.00    +0.000 Cl
ATOM      9  C   UNL     1      44.693   4.480  10.316  0.00  0.00    +0.000 A 
ATOM     10  C   UNL     1      45.498   5.613  10.535  0.00  0.00    +0.000 A 
BRANCH   9  11
ATOM     11  C   UNL     1      44.391   4.083   8.889  0.00  0.00    +0.000 C 
BRANCH  11  12
ATOM     12  C   UNL     1      45.509   3.247   8.357  0.00  0.00    +0.000 A 
ATOM     13  C   UNL     1      46.491   3.629   7.393  0.00  0.00    +0.000 A 
ATOM     14  C   UNL     1      47.211   2.505   7.049  0.00  0.00    +0.000 A 
ATOM     15  N   UNL     1      46.733   1.457   7.789  0.00  0.00    +0.000 N 
ATOM     16  C   UNL     1      45.712   1.897   8.588  0.00  0.00    +0.000 A 
ATOM     17  H   UNL     1      47.053   0.500   7.725  0.00  0.00    +0.000 HD
ENDBRANCH  11  12
ENDBRANCH   9  11
ENDBRANCH   1   4
BRANCH   1  18
ATOM     18  C   UNL     1      46.887   7.532  13.542  0.00  0.00    +0.000 C 
BRANCH  18  23
ATOM     19  C   UNL     1      48.730   4.249  16.987  0.00  0.00    +0.000 A 
ATOM     20  C   UNL     1      47.626   4.120  16.151  0.00  0.00    +0.000 A 
ATOM     21  C   UNL     1      47.410   5.079  15.157  0.00  0.00    +0.000 A 
ATOM     22  C   UNL     1      48.296   6.145  15.020  0.00  0.00    +0.000 A 
ATOM     23  N   UNL     1      48.202   7.078  14.005  0.00  0.00    +0.000 N 
ATOM     24  N   UNL     1      49.357   6.287  15.837  0.00  0.00    +0.000 NA
ATOM     25  C   UNL     1      49.550   5.350  16.804  0.00  0.00    +0.000 A 
ATOM     26  H   UNL     1      48.886   7.815  14.180  0.00  0.00    +0.000 HD
BRANCH  19  28
ATOM     27  N   UNL     1      48.415   3.446  19.258  0.00  0.00    +0.000 N 
ATOM     28  C   UNL     1      49.049   3.282  18.054  0.00  0.00    +0.000 C 
ATOM     29  O   UNL     1      49.814   2.353  17.870  0.00  0.00    +0.000 OA
ATOM     30  H   UNL     1      48.561   2.711  19.943  0.00  0.00    +0.000 HD
ATOM     31  H   UNL     1      47.594   4.023  19.366  0.00  0.00    +0.000 HD
ENDBRANCH  19  28
ENDBRANCH  18  23
ENDBRANCH   1  18
TORSDOF 6
ENDMDL
MODEL 6
REMARK VINA RESULT:    -7.649      2.154      3.562
REMARK INTER + INTRA:         -11.322
REMARK INTER:                 -10.741
REMARK INTRA:                  -0.581
REMARK UNBOUND:                -0.990
REMARK  Name = 
REMARK  6 active torsions:
REMARK  status: ('A' for Active; 'I' for Inactive)
REMARK    1  A    between atoms: C_2  and  C_4
REMARK    2  A    between atoms: N_8  and  C_9
REMARK    3  A    between atoms: C_9  and  C_10
REMARK    4  A    between atoms: C_10  and  C_13
REMARK    5  A    between atoms: C_18  and  C_19
REMARK    6  A    between atoms: C_19  and  C_20
REMARK                            x       y       z     vdW  Elec       q    Type
REMARK                         _______ _______ _______ _____ _____    ______ ____
ROOT
ATOM      1  C   UNL     1      43.547   4.730  12.658  0.00  0.00    +0.000 C 
ATOM      2  F   UNL     1      42.535   5.625  12.866  0.00  0.00    +0.000 F 
ATOM      3  F   UNL     1      43.203   3.621  13.377  0.00  0.00    +0.000 F 
ENDROOT
BRANCH   1   4
ATOM      4  C   UNL     1      44.899   5.274  13.078  0.00  0.00    +0.000 A 
ATOM      5  C   UNL     1      45.808   4.479  13.779  0.00  0.00    +0.000 A 
ATOM      6  C   UNL     1      47.001   5.033  14.251  0.00  0.00    +0.000 A 
ATOM      7  C   UNL     1      47.306   6.380  14.008  0.00  0.00    +0.000 A 
ATOM      8 CL   UNL     1      48.782   6.985  14.670  0.00  0.00    +0.000 Cl
ATOM      9  C   UNL     1      46.442   7.182  13.246  0.00  0.00    +0.000 A 
ATOM     10  C   UNL     1      45.233   6.614  12.805  0.00  0.00    +0.000 A 
BRANCH   9  11
ATOM     11  C   UNL     1      46.783   8.582  12.789  0.00  0.00    +0.000 C 
BRANCH  11  12
ATOM     12  C   UNL     1      48.126   8.579  12.134  0.00  0.00    +0.000 A 
ATOM     13  C   UNL     1      48.708   7.527  11.364  0.00  0.00    +0.000 A 
ATOM     14  C   UNL     1      50.022   7.860  11.112  0.00  0.00    +0.000 A 
ATOM     15  N   UNL     1      50.257   9.089  11.667  0.00  0.00    +0.000 N 
ATOM     16  C   UNL     1      49.116   9.535  12.279  0.00  0.00    +0.000 A 
ATOM     17  H   UNL     1      51.145   9.573  11.665  0.00  0.00    +0.000 HD
ENDBRANCH  11  12
ENDBRANCH   9  11
ENDBRANCH   1   4
BRANCH   1  18
ATOM     18  C   UNL     1      43.581   4.367  11.149  0.00  0.00    +0.000 C 
BRANCH  18  23
ATOM     19  C   UNL     1      46.575   2.931   7.274  0.00  0.00    +0.000 A 
ATOM     20  C   UNL     1      46.329   4.206   7.770  0.00  0.00    +0.000 A 
ATOM     21  C   UNL     1      45.606   4.347   8.957  0.00  0.00    +0.000 A 
ATOM     22  C   UNL     1      45.141   3.214   9.622  0.00  0.00    +0.000 A 
ATOM     23  N   UNL     1      44.502   3.266  10.846  0.00  0.00    +0.000 N 
ATOM     24  N   UNL     1      45.358   1.976   9.139  0.00  0.00    +0.000 NA
ATOM     25  C   UNL     1      46.058   1.857   7.978  0.00  0.00    +0.000 A 
ATOM     26  H   UNL     1      44.160   2.333  11.072  0.00  0.00    +0.000 HD
BRANCH  19  28
ATOM     27  N   UNL     1      48.670   2.380   6.174  0.00  0.00    +0.000 N 
ATOM     28  C   UNL     1      47.340   2.682   6.038  0.00  0.00    +0.000 C 
ATOM     29  O   UNL     1      46.812   2.706   4.941  0.00  0.00    +0.000 OA
ATOM     30  H   UNL     1      49.155   2.105   5.325  0.00  0.00    +0.000 HD
ATOM     31  H   UNL     1      49.075   2.093   7.052  0.00  0.00    +0.000 HD
ENDBRANCH  19  28
ENDBRANCH  18  23
ENDBRANCH   1  18
TORSDOF 6
ENDMDL
MODEL 7
REMARK VINA RESULT:    -7.360      4.165      7.398
REMARK INTER + INTRA:         -10.932
REMARK INTER:                  -9.494
REMARK INTRA:                  -1.438
REMARK UNBOUND:                -0.990
REMARK  Name = 
REMARK  6 active torsions:
REMARK  status: ('A' for Active; 'I' for Inactive)
REMARK    1  A    between atoms: C_2  and  C_4
REMARK    2  A    between atoms: N_8  and  C_9
REMARK    3  A    between atoms: C_9  and  C_10
REMARK    4  A    between atoms: C_10  and  C_13
REMARK    5  A    between atoms: C_18  and  C_19
REMARK    6  A    between atoms: C_19  and  C_20
REMARK                            x       y       z     vdW  Elec       q    Type
REMARK                         _______ _______ _______ _____ _____    ______ ____
ROOT
ATOM      1  C   UNL     1      48.988   8.122  12.440  0.00  0.00    +0.000 C 
ATOM      2  F   UNL     1      49.509   9.196  11.774  0.00  0.00    +0.000 F 
ATOM      3  F   UNL     1      49.779   7.063  12.095  0.00  0.00    +0.000 F 
ENDROOT
BRANCH   1   4
ATOM      4  C   UNL     1      47.533   7.873  12.089  0.00  0.00    +0.000 A 
ATOM      5  C   UNL     1      46.531   8.751  12.509  0.00  0.00    +0.000 A 
ATOM      6  C   UNL     1      45.190   8.446  12.269  0.00  0.00    +0.000 A 
ATOM      7  C   UNL     1      44.837   7.270  11.589  0.00  0.00    +0.000 A 
ATOM      8 CL   UNL     1      43.151   6.957  11.380  0.00  0.00    +0.000 Cl
ATOM      9  C   UNL     1      45.827   6.406  11.096  0.00  0.00    +0.000 A 
ATOM     10  C   UNL     1      47.171   6.716  11.373  0.00  0.00    +0.000 A 
BRANCH   9  11
ATOM     11  C   UNL     1      45.537   5.223  10.201  0.00  0.00    +0.000 C 
BRANCH  11  12
ATOM     12  C   UNL     1      44.920   4.127  11.008  0.00  0.00    +0.000 A 
ATOM     13  C   UNL     1      43.708   3.426  10.728  0.00  0.00    +0.000 A 
ATOM     14  C   UNL     1      43.411   2.637  11.818  0.00  0.00    +0.000 A 
ATOM     15  N   UNL     1      44.409   2.800  12.740  0.00  0.00    +0.000 N 
ATOM     16  C   UNL     1      45.330   3.692  12.257  0.00  0.00    +0.000 A 
ATOM     17  H   UNL     1      44.441   2.367  13.653  0.00  0.00    +0.000 HD
ENDBRANCH  11  12
ENDBRANCH   9  11
ENDBRANCH   1   4
BRANCH   1  18
ATOM     18  C   UNL     1      49.116   8.377  13.965  0.00  0.00    +0.000 C 
BRANCH  18  23
ATOM     19  C   UNL     1      48.150   4.366  16.968  0.00  0.00    +0.000 A 
ATOM     20  C   UNL     1      47.449   4.822  15.857  0.00  0.00    +0.000 A 
ATOM     21  C   UNL     1      48.000   5.844  15.079  0.00  0.00    +0.000 A 
ATOM     22  C   UNL     1      49.233   6.391  15.427  0.00  0.00    +0.000 A 
ATOM     23  N   UNL     1      49.883   7.337  14.657  0.00  0.00    +0.000 N 
ATOM     24  N   UNL     1      49.908   5.969  16.512  0.00  0.00    +0.000 NA
ATOM     25  C   UNL     1      49.356   4.978  17.263  0.00  0.00    +0.000 A 
ATOM     26  H   UNL     1      50.703   7.662  15.169  0.00  0.00    +0.000 HD
BRANCH  19  28
ATOM     27  N   UNL     1      48.346   3.055  19.004  0.00  0.00    +0.000 N 
ATOM     28  C   UNL     1      47.658   3.284  17.841  0.00  0.00    +0.000 C 
ATOM     29  O   UNL     1      46.663   2.639  17.564  0.00  0.00    +0.000 OA
ATOM     30  H   UNL     1      47.932   2.383  19.643  0.00  0.00    +0.000 HD
ATOM     31  H   UNL     1      48.995   3.723  19.392  0.00  0.00    +0.000 HD
ENDBRANCH  19  28
ENDBRANCH  18  23
ENDBRANCH   1  18
TORSDOF 6
ENDMDL
MODEL 8
REMARK VINA RESULT:    -7.095      4.524      6.827
REMARK INTER + INTRA:         -10.574
REMARK INTER:                  -9.697
REMARK INTRA:                  -0.877
REMARK UNBOUND:                -0.990
REMARK  Name = 
REMARK  6 active torsions:
REMARK  status: ('A' for Active; 'I' for Inactive)
REMARK    1  A    between atoms: C_2  and  C_4
REMARK    2  A    between atoms: N_8  and  C_9
REMARK    3  A    between atoms: C_9  and  C_10
REMARK    4  A    between atoms: C_10  and  C_13
REMARK    5  A    between atoms: C_18  and  C_19
REMARK    6  A    between atoms: C_19  and  C_20
REMARK                            x       y       z     vdW  Elec       q    Type
REMARK                         _______ _______ _______ _____ _____    ______ ____
ROOT
ATOM      1  C   UNL     1      48.085   2.920  16.945  0.00  0.00    +0.000 C 
ATOM      2  F   UNL     1      47.038   2.352  17.615  0.00  0.00    +0.000 F 
ATOM      3  F   UNL     1      48.659   1.902  16.239  0.00  0.00    +0.000 F 
ENDROOT
BRANCH   1   4
ATOM      4  C   UNL     1      49.078   3.585  17.878  0.00  0.00    +0.000 A 
ATOM      5  C   UNL     1      48.675   4.092  19.116  0.00  0.00    +0.000 A 
ATOM      6  C   UNL     1      49.582   4.796  19.911  0.00  0.00    +0.000 A 
ATOM      7  C   UNL     1      50.907   4.983  19.487  0.00  0.00    +0.000 A 
ATOM      8 CL   UNL     1      51.941   5.906  20.518  0.00  0.00    +0.000 Cl
ATOM      9  C   UNL     1      51.355   4.424  18.280  0.00  0.00    +0.000 A 
ATOM     10  C   UNL     1      50.420   3.743  17.480  0.00  0.00    +0.000 A 
BRANCH   9  11
ATOM     11  C   UNL     1      52.802   4.424  17.844  0.00  0.00    +0.000 C 
BRANCH  11  12
ATOM     12  C   UNL     1      53.466   3.172  18.318  0.00  0.00    +0.000 A 
ATOM     13  C   UNL     1      53.632   1.955  17.591  0.00  0.00    +0.000 A 
ATOM     14  C   UNL     1      54.121   1.003  18.460  0.00  0.00    +0.000 A 
ATOM     15  N   UNL     1      54.293   1.597  19.680  0.00  0.00    +0.000 N 
ATOM     16  C   UNL     1      53.909   2.909  19.603  0.00  0.00    +0.000 A 
ATOM     17  H   UNL     1      54.612   1.132  20.520  0.00  0.00    +0.000 HD
ENDBRANCH  11  12
ENDBRANCH   9  11
ENDBRANCH   1   4
BRANCH   1  18
ATOM     18  C   UNL     1      47.522   3.973  15.953  0.00  0.00    +0.000 C 
BRANCH  18  23
ATOM     19  C   UNL     1      44.531   4.939  11.933  0.00  0.00    +0.000 A 
ATOM     20  C   UNL     1      45.144   5.829  12.808  0.00  0.00    +0.000 A 
ATOM     21  C   UNL     1      46.067   5.343  13.737  0.00  0.00    +0.000 A 
ATOM     22  C   UNL     1      46.355   3.980  13.777  0.00  0.00    +0.000 A 
ATOM     23  N   UNL     1      47.321   3.437  14.603  0.00  0.00    +0.000 N 
ATOM     24  N   UNL     1      45.752   3.109  12.948  0.00  0.00    +0.000 NA
ATOM     25  C   UNL     1      44.851   3.598  12.052  0.00  0.00    +0.000 A 
ATOM     26  H   UNL     1      47.269   2.421  14.537  0.00  0.00    +0.000 HD
BRANCH  19  28
ATOM     27  N   UNL     1      42.861   6.517  11.144  0.00  0.00    +0.000 N 
ATOM     28  C   UNL     1      43.556   5.360  10.909  0.00  0.00    +0.000 C 
ATOM     29  O   UNL     1      43.396   4.731   9.879  0.00  0.00    +0.000 OA
ATOM     30  H   UNL     1      42.277   6.850  10.383  0.00  0.00    +0.000 HD
ATOM     31  H   UNL     1      43.148   7.193  11.836  0.00  0.00    +0.000 HD
ENDBRANCH  19  28
ENDBRANCH  18  23
ENDBRANCH   1  18
TORSDOF 6
ENDMDL
MODEL 9
REMARK VINA RESULT:    -6.886      3.848      5.517
REMARK INTER + INTRA:         -10.291
REMARK INTER:                  -8.818
REMARK INTRA:                  -1.474
REMARK UNBOUND:                -0.990
REMARK  Name = 
REMARK  6 active torsions:
REMARK  status: ('A' for Active; 'I' for Inactive)
REMARK    1  A    between atoms: C_2  and  C_4
REMARK    2  A    between atoms: N_8  and  C_9
REMARK    3  A    between atoms: C_9  and  C_10
REMARK    4  A    between atoms: C_10  and  C_13
REMARK    5  A    between atoms: C_18  and  C_19
REMARK    6  A    between atoms: C_19  and  C_20
REMARK                            x       y       z     vdW  Elec       q    Type
REMARK                         _______ _______ _______ _____ _____    ______ ____
ROOT
ATOM      1  C   UNL     1      49.403   8.042  14.776  0.00  0.00    +0.000 C 
ATOM      2  F   UNL     1      50.723   8.379  14.672  0.00  0.00    +0.000 F 
ATOM      3  F   UNL     1      48.713   9.179  14.466  0.00  0.00    +0.000 F 
ENDROOT
BRANCH   1   4
ATOM      4  C   UNL     1      49.043   7.527  16.157  0.00  0.00    +0.000 A 
ATOM      5  C   UNL     1      49.231   8.321  17.292  0.00  0.00    +0.000 A 
ATOM      6  C   UNL     1      48.996   7.788  18.561  0.00  0.00    +0.000 A 
ATOM      7  C   UNL     1      48.551   6.466  18.709  0.00  0.00    +0.000 A 
ATOM      8 CL   UNL     1      48.332   5.884  20.321  0.00  0.00    +0.000 Cl
ATOM      9  C   UNL     1      48.288   5.671  17.582  0.00  0.00    +0.000 A 
ATOM     10  C   UNL     1      48.558   6.215  16.314  0.00  0.00    +0.000 A 
BRANCH   9  11
ATOM     11  C   UNL     1      47.637   4.309  17.652  0.00  0.00    +0.000 C 
BRANCH  11  12
ATOM     12  C   UNL     1      48.646   3.257  17.322  0.00  0.00    +0.000 A 
ATOM     13  C   UNL     1      49.972   3.140  17.838  0.00  0.00    +0.000 A 
ATOM     14  C   UNL     1      50.618   2.149  17.131  0.00  0.00    +0.000 A 
ATOM     15  N   UNL     1      49.732   1.631  16.227  0.00  0.00    +0.000 N 
ATOM     16  C   UNL     1      48.535   2.287  16.340  0.00  0.00    +0.000 A 
ATOM     17  H   UNL     1      49.938   0.908  15.551  0.00  0.00    +0.000 HD
ENDBRANCH  11  12
ENDBRANCH   9  11
ENDBRANCH   1   4
BRANCH   1  18
ATOM     18  C   UNL     1      49.087   6.950  13.719  0.00  0.00    +0.000 C 
BRANCH  18  23
ATOM     19  C   UNL     1      45.100   4.286  11.974  0.00  0.00    +0.000 A 
ATOM     20  C   UNL     1      45.788   4.155  13.175  0.00  0.00    +0.000 A 
ATOM     21  C   UNL     1      46.743   5.115  13.520  0.00  0.00    +0.000 A 
ATOM     22  C   UNL     1      46.994   6.181  12.659  0.00  0.00    +0.000 A 
ATOM     23  N   UNL     1      47.854   7.217  12.971  0.00  0.00    +0.000 N 
ATOM     24  N   UNL     1      46.347   6.305  11.485  0.00  0.00    +0.000 NA
ATOM     25  C   UNL     1      45.425   5.358  11.161  0.00  0.00    +0.000 A 
ATOM     26  H   UNL     1      47.959   7.810  12.148  0.00  0.00    +0.000 HD
BRANCH  19  28
ATOM     27  N   UNL     1      43.729   2.326  12.399  0.00  0.00    +0.000 N 
ATOM     28  C   UNL     1      44.065   3.332  11.531  0.00  0.00    +0.000 C 
ATOM     29  O   UNL     1      43.504   3.448  10.457  0.00  0.00    +0.000 OA
ATOM     30  H   UNL     1      42.941   1.746  12.126  0.00  0.00    +0.000 HD
ATOM     31  H   UNL     1      43.967   2.350  13.379  0.00  0.00    +0.000 HD
ENDBRANCH  19  28
ENDBRANCH  18  23
ENDBRANCH   1  18
TORSDOF 6
ENDMDL
