MODEL 1
REMARK VINA RESULT:    -8.448      0.000      0.000
REMARK INTER + INTRA:         -12.930
REMARK INTER:                 -11.905
REMARK INTRA:                  -1.025
REMARK UNBOUND:                -1.025
REMARK  Name = 
REMARK  10 active torsions:
REMARK  status: ('A' for Active; 'I' for Inactive)
REMARK    1  A    between atoms: C_1  and  O_2
REMARK    2  A    between atoms: O_2  and  C_3
REMARK    3  A    between atoms: C_6  and  C_7
REMARK    4  A    between atoms: C_11  and  C_12
REMARK    5  A    between atoms: C_12  and  C_13
REMARK    6  A    between atoms: C_12  and  C_14
REMARK    7  A    between atoms: C_12  and  C_15
REMARK    8  A    between atoms: C_15  and  N_16
REMARK    9  A    between atoms: N_16  and  C_17
REMARK   10  A    between atoms: C_20  and  C_21
REMARK                            x       y       z     vdW  Elec       q    Type
REMARK                         _______ _______ _______ _____ _____    ______ ____
ROOT
ATOM      1  C   UNL     1      43.974   4.829  12.060  0.00  0.00    +0.000 C 
ATOM      2  C   UNL     1      43.026   4.879  13.282  0.00  0.00    +0.000 C 
ATOM      3  C   UNL     1      43.410   5.770  10.969  0.00  0.00    +0.000 C 
ENDROOT
BRANCH   1   8
ATOM      4  C   UNL     1      47.200   5.399  14.126  0.00  0.00    +0.000 A 
ATOM      5  C   UNL     1      47.879   6.190  13.204  0.00  0.00    +0.000 A 
ATOM      6  N   UNL     1      47.386   6.573  12.004  0.00  0.00    +0.000 NA
ATOM      7  C   UNL     1      46.150   6.127  11.684  0.00  0.00    +0.000 A 
ATOM      8  C   UNL     1      45.359   5.322  12.502  0.00  0.00    +0.000 A 
ATOM      9  C   UNL     1      45.913   4.996  13.746  0.00  0.00    +0.000 A 
BRANCH   4  13
ATOM     10  C   UNL     1      48.748   4.436  17.940  0.00  0.00    +0.000 A 
ATOM     11  C   UNL     1      47.875   3.535  17.361  0.00  0.00    +0.000 A 
ATOM     12  C   UNL     1      47.384   3.826  16.089  0.00  0.00    +0.000 A 
ATOM     13  C   UNL     1      47.754   5.014  15.432  0.00  0.00    +0.000 A 
ATOM     14  C   UNL     1      48.646   5.835  16.119  0.00  0.00    +0.000 A 
ATOM     15  N   UNL     1      49.155   5.570  17.339  0.00  0.00    +0.000 NA
BRANCH  10  17
ATOM     16  C   UNL     1      48.591   4.984  20.192  0.00  0.00    +0.000 C 
ATOM     17  O   UNL     1      49.199   4.147  19.210  0.00  0.00    +0.000 OA
ENDBRANCH  10  17
ENDBRANCH   4  13
ENDBRANCH   1   8
BRANCH   1  18
ATOM     18  C   UNL     1      43.938   3.353  11.522  0.00  0.00    +0.000 C 
BRANCH  18  19
ATOM     19  N   UNL     1      43.730   3.289  10.075  0.00  0.00    +0.000 N 
ATOM     20  H   UNL     1      42.836   2.918   9.769  0.00  0.00    +0.000 HD
BRANCH  19  21
ATOM     21  C   UNL     1      44.756   3.101   9.161  0.00  0.00    +0.000 A 
ATOM     22  C   UNL     1      45.264   4.108   8.339  0.00  0.00    +0.000 A 
ATOM     23  C   UNL     1      46.266   3.834   7.399  0.00  0.00    +0.000 A 
ATOM     24  C   UNL     1      46.759   2.535   7.245  0.00  0.00    +0.000 A 
ATOM     25  C   UNL     1      46.219   1.506   8.018  0.00  0.00    +0.000 A 
ATOM     26  C   UNL     1      45.225   1.793   8.959  0.00  0.00    +0.000 A 
BRANCH  24  27
ATOM     27  C   UNL     1      47.815   2.293   6.228  0.00  0.00    +0.000 C 
ATOM     28  N   UNL     1      47.791   3.066   5.098  0.00  0.00    +0.000 N 
ATOM     29  O   UNL     1      48.652   1.419   6.369  0.00  0.00    +0.000 OA
ATOM     30  H   UNL     1      47.011   3.654   4.846  0.00  0.00    +0.000 HD
ATOM     31  H   UNL     1      48.458   2.824   4.376  0.00  0.00    +0.000 HD
ENDBRANCH  24  27
ENDBRANCH  19  21
ENDBRANCH  18  19
ENDBRANCH   1  18
TORSDOF 7
ENDMDL
MODEL 2
REMARK VINA RESULT:    -7.937      2.356      3.055
REMARK INTER + INTRA:         -12.209
REMARK INTER:                 -11.642
REMARK INTRA:                  -0.568
REMARK UNBOUND:                -1.025
REMARK  Name = 
REMARK  10 active torsions:
REMARK  status: ('A' for Active; 'I' for Inactive)
REMARK    1  A    between atoms: C_1  and  O_2
REMARK    2  A    between atoms: O_2  and  C_3
REMARK    3  A    between atoms: C_6  and  C_7
REMARK    4  A    between atoms: C_11  and  C_12
REMARK    5  A    between atoms: C_12  and  C_13
REMARK    6  A    between atoms: C_12  and  C_14
REMARK    7  A    between atoms: C_12  and  C_15
REMARK    8  A    between atoms: C_15  and  N_16
REMARK    9  A    between atoms: N_16  and  C_17
REMARK   10  A    between atoms: C_20  and  C_21
REMARK                            x       y       z     vdW  Elec       q    Type
REMARK                         _______ _______ _______ _____ _____    ______ ____
ROOT
ATOM      1  C   UNL     1      44.028   4.588  12.371  0.00  0.00    +0.000 C 
ATOM      2  C   UNL     1      45.058   3.436  12.456  0.00  0.00    +0.000 C 
ATOM      3  C   UNL     1      43.138   4.538  13.635  0.00  0.00    +0.000 C 
ENDROOT
BRANCH   1   8
ATOM      4  C   UNL     1      46.762   7.287  12.857  0.00  0.00    +0.000 A 
ATOM      5  C   UNL     1      46.138   8.318  12.162  0.00  0.00    +0.000 A 
ATOM      6  N   UNL     1      44.919   8.230  11.581  0.00  0.00    +0.000 NA
ATOM      7  C   UNL     1      44.286   7.039  11.674  0.00  0.00    +0.000 A 
ATOM      8  C   UNL     1      44.793   5.918  12.329  0.00  0.00    +0.000 A 
ATOM      9  C   UNL     1      46.039   6.090  12.944  0.00  0.00    +0.000 A 
BRANCH   4  13
ATOM     10  C   UNL     1      50.567   7.505  14.687  0.00  0.00    +0.000 A 
ATOM     11  C   UNL     1      50.352   8.289  13.570  0.00  0.00    +0.000 A 
ATOM     12  C   UNL     1      49.089   8.251  12.979  0.00  0.00    +0.000 A 
ATOM     13  C   UNL     1      48.080   7.418  13.496  0.00  0.00    +0.000 A 
ATOM     14  C   UNL     1      48.422   6.683  14.628  0.00  0.00    +0.000 A 
ATOM     15  N   UNL     1      49.625   6.715  15.236  0.00  0.00    +0.000 NA
BRANCH  10  17
ATOM     16  C   UNL     1      51.930   6.673  16.374  0.00  0.00    +0.000 C 
ATOM     17  O   UNL     1      51.830   7.532  15.240  0.00  0.00    +0.000 OA
ENDBRANCH  10  17
ENDBRANCH   4  13
ENDBRANCH   1   8
BRANCH   1  18
ATOM     18  C   UNL     1      43.134   4.300  11.111  0.00  0.00    +0.000 C 
BRANCH  18  19
ATOM     19  N   UNL     1      43.776   4.712   9.862  0.00  0.00    +0.000 N 
ATOM     20  H   UNL     1      43.267   5.386   9.300  0.00  0.00    +0.000 HD
BRANCH  19  21
ATOM     21  C   UNL     1      44.616   3.890   9.125  0.00  0.00    +0.000 A 
ATOM     22  C   UNL     1      44.626   2.498   9.220  0.00  0.00    +0.000 A 
ATOM     23  C   UNL     1      45.540   1.732   8.484  0.00  0.00    +0.000 A 
ATOM     24  C   UNL     1      46.481   2.352   7.657  0.00  0.00    +0.000 A 
ATOM     25  C   UNL     1      46.523   3.745   7.597  0.00  0.00    +0.000 A 
ATOM     26  C   UNL     1      45.600   4.499   8.331  0.00  0.00    +0.000 A 
BRANCH  24  27
ATOM     27  C   UNL     1      47.435   1.497   6.904  0.00  0.00    +0.000 C 
ATOM     28  N   UNL     1      48.589   2.082   6.457  0.00  0.00    +0.000 N 
ATOM     29  O   UNL     1      47.191   0.329   6.657  0.00  0.00    +0.000 OA
ATOM     30  H   UNL     1      48.741   3.079   6.459  0.00  0.00    +0.000 HD
ATOM     31  H   UNL     1      49.181   1.512   5.866  0.00  0.00    +0.000 HD
ENDBRANCH  24  27
ENDBRANCH  19  21
ENDBRANCH  18  19
ENDBRANCH   1  18
TORSDOF 7
ENDMDL
MODEL 3
REMARK VINA RESULT:    -6.993      2.443      8.335
REMARK INTER + INTRA:         -10.879
REMARK INTER:                  -9.589
REMARK INTRA:                  -1.290
REMARK UNBOUND:                -1.025
REMARK  Name = 
REMARK  10 active torsions:
REMARK  status: ('A' for Active; 'I' for Inactive)
REMARK    1  A    between atoms: C_1  and  O_2
REMARK    2  A    between atoms: O_2  and  C_3
REMARK    3  A    between atoms: C_6  and  C_7
REMARK    4  A    between atoms: C_11  and  C_12
REMARK    5  A    between atoms: C_12  and  C_13
REMARK    6  A    between atoms: C_12  and  C_14
REMARK    7  A    between atoms: C_12  and  C_15
REMARK    8  A    between atoms: C_15  and  N_16
REMARK    9  A    between atoms: N_16  and  C_17
REMARK   10  A    between atoms: C_20  and  C_21
REMARK                            x       y       z     vdW  Elec       q    Type
REMARK                         _______ _______ _______ _____ _____    ______ ____
ROOT
ATOM      1  C   UNL     1      49.664   8.589  12.454  0.00  0.00    +0.000 C 
ATOM      2  C   UNL     1      50.370   7.860  11.286  0.00  0.00    +0.000 C 
ATOM      3  C   UNL     1      49.996  10.096  12.358  0.00  0.00    +0.000 C 
ENDROOT
BRANCH   1   8
ATOM      4  C   UNL     1      46.214   6.993  11.715  0.00  0.00    +0.000 A 
ATOM      5  C   UNL     1      45.418   8.056  12.131  0.00  0.00    +0.000 A 
ATOM      6  N   UNL     1      45.889   9.236  12.596  0.00  0.00    +0.000 NA
ATOM      7  C   UNL     1      47.233   9.365  12.678  0.00  0.00    +0.000 A 
ATOM      8  C   UNL     1      48.150   8.382  12.308  0.00  0.00    +0.000 A 
ATOM      9  C   UNL     1      47.596   7.202  11.796  0.00  0.00    +0.000 A 
BRANCH   4  13
ATOM     10  C   UNL     1      44.794   3.337  10.136  0.00  0.00    +0.000 A 
ATOM     11  C   UNL     1      44.764   3.492  11.508  0.00  0.00    +0.000 A 
ATOM     12  C   UNL     1      45.198   4.707  12.038  0.00  0.00    +0.000 A 
ATOM     13  C   UNL     1      45.673   5.728  11.195  0.00  0.00    +0.000 A 
ATOM     14  C   UNL     1      45.645   5.450   9.830  0.00  0.00    +0.000 A 
ATOM     15  N   UNL     1      45.211   4.295   9.286  0.00  0.00    +0.000 NA
BRANCH  10  17
ATOM     16  C   UNL     1      45.333   1.592   8.698  0.00  0.00    +0.000 C 
ATOM     17  O   UNL     1      44.391   2.119   9.631  0.00  0.00    +0.000 OA
ENDBRANCH  10  17
ENDBRANCH   4  13
ENDBRANCH   1   8
BRANCH   1  18
ATOM     18  C   UNL     1      50.283   8.018  13.781  0.00  0.00    +0.000 C 
BRANCH  18  19
ATOM     19  N   UNL     1      49.328   8.020  14.890  0.00  0.00    +0.000 N 
ATOM     20  H   UNL     1      49.320   8.852  15.471  0.00  0.00    +0.000 HD
BRANCH  19  21
ATOM     21  C   UNL     1      48.923   6.871  15.554  0.00  0.00    +0.000 A 
ATOM     22  C   UNL     1      48.006   5.954  15.038  0.00  0.00    +0.000 A 
ATOM     23  C   UNL     1      47.600   4.841  15.787  0.00  0.00    +0.000 A 
ATOM     24  C   UNL     1      48.087   4.643  17.083  0.00  0.00    +0.000 A 
ATOM     25  C   UNL     1      48.959   5.582  17.635  0.00  0.00    +0.000 A 
ATOM     26  C   UNL     1      49.362   6.685  16.874  0.00  0.00    +0.000 A 
BRANCH  24  27
ATOM     27  C   UNL     1      47.620   3.452  17.840  0.00  0.00    +0.000 C 
ATOM     28  N   UNL     1      48.343   3.083  18.943  0.00  0.00    +0.000 N 
ATOM     29  O   UNL     1      46.653   2.803  17.482  0.00  0.00    +0.000 OA
ATOM     30  H   UNL     1      49.253   3.460  19.160  0.00  0.00    +0.000 HD
ATOM     31  H   UNL     1      48.068   2.218  19.390  0.00  0.00    +0.000 HD
ENDBRANCH  24  27
ENDBRANCH  19  21
ENDBRANCH  18  19
ENDBRANCH   1  18
TORSDOF 7
ENDMDL
MODEL 4
REMARK VINA RESULT:    -6.669      3.280      5.407
REMARK INTER + INTRA:         -10.423
REMARK INTER:                  -9.118
REMARK INTRA:                  -1.305
REMARK UNBOUND:                -1.025
REMARK  Name = 
REMARK  10 active torsions:
REMARK  status: ('A' for Active; 'I' for Inactive)
REMARK    1  A    between atoms: C_1  and  O_2
REMARK    2  A    between atoms: O_2  and  C_3
REMARK    3  A    between atoms: C_6  and  C_7
REMARK    4  A    between atoms: C_11  and  C_12
REMARK    5  A    between atoms: C_12  and  C_13
REMARK    6  A    between atoms: C_12  and  C_14
REMARK    7  A    between atoms: C_12  and  C_15
REMARK    8  A    between atoms: C_15  and  N_16
REMARK    9  A    between atoms: N_16  and  C_17
REMARK   10  A    between atoms: C_20  and  C_21
REMARK                            x       y       z     vdW  Elec       q    Type
REMARK                         _______ _______ _______ _____ _____    ______ ____
ROOT
ATOM      1  C   UNL     1      48.647   8.923  14.029  0.00  0.00    +0.000 C 
ATOM      2  C   UNL     1      48.853  10.448  14.191  0.00  0.00    +0.000 C 
ATOM      3  C   UNL     1      49.820   8.360  13.193  0.00  0.00    +0.000 C 
ENDROOT
BRANCH   1   8
ATOM      4  C   UNL     1      49.117   6.397  16.926  0.00  0.00    +0.000 A 
ATOM      5  C   UNL     1      48.690   7.217  17.966  0.00  0.00    +0.000 A 
ATOM      6  N   UNL     1      48.244   8.486  17.815  0.00  0.00    +0.000 NA
ATOM      7  C   UNL     1      48.242   8.984  16.558  0.00  0.00    +0.000 A 
ATOM      8  C   UNL     1      48.651   8.283  15.424  0.00  0.00    +0.000 A 
ATOM      9  C   UNL     1      49.060   6.962  15.646  0.00  0.00    +0.000 A 
BRANCH   4  13
ATOM     10  C   UNL     1      50.403   2.389  17.326  0.00  0.00    +0.000 A 
ATOM     11  C   UNL     1      51.289   3.382  17.696  0.00  0.00    +0.000 A 
ATOM     12  C   UNL     1      50.864   4.707  17.600  0.00  0.00    +0.000 A 
ATOM     13  C   UNL     1      49.578   5.014  17.118  0.00  0.00    +0.000 A 
ATOM     14  C   UNL     1      48.778   3.923  16.785  0.00  0.00    +0.000 A 
ATOM     15  N   UNL     1      49.153   2.631  16.888  0.00  0.00    +0.000 NA
BRANCH  10  17
ATOM     16  C   UNL     1      52.272   1.020  17.502  0.00  0.00    +0.000 C 
ATOM     17  O   UNL     1      50.851   1.088  17.398  0.00  0.00    +0.000 OA
ENDBRANCH  10  17
ENDBRANCH   4  13
ENDBRANCH   1   8
BRANCH   1  18
ATOM     18  C   UNL     1      47.313   8.733  13.219  0.00  0.00    +0.000 C 
BRANCH  18  19
ATOM     19  N   UNL     1      47.453   7.767  12.128  0.00  0.00    +0.000 N 
ATOM     20  H   UNL     1      47.740   8.146  11.231  0.00  0.00    +0.000 HD
BRANCH  19  21
ATOM     21  C   UNL     1      46.698   6.608  12.029  0.00  0.00    +0.000 A 
ATOM     22  C   UNL     1      46.002   6.225  10.881  0.00  0.00    +0.000 A 
ATOM     23  C   UNL     1      45.215   5.067  10.868  0.00  0.00    +0.000 A 
ATOM     24  C   UNL     1      45.088   4.283  12.019  0.00  0.00    +0.000 A 
ATOM     25  C   UNL     1      45.730   4.684  13.191  0.00  0.00    +0.000 A 
ATOM     26  C   UNL     1      46.520   5.839  13.189  0.00  0.00    +0.000 A 
BRANCH  24  27
ATOM     27  C   UNL     1      44.234   3.068  11.958  0.00  0.00    +0.000 C 
ATOM     28  N   UNL     1      44.151   2.415  10.758  0.00  0.00    +0.000 N 
ATOM     29  O   UNL     1      43.599   2.682  12.924  0.00  0.00    +0.000 OA
ATOM     30  H   UNL     1      44.489   2.804   9.891  0.00  0.00    +0.000 HD
ATOM     31  H   UNL     1      43.493   1.647  10.709  0.00  0.00    +0.000 HD
ENDBRANCH  24  27
ENDBRANCH  19  21
ENDBRANCH  18  19
ENDBRANCH   1  18
TORSDOF 7
ENDMDL
MODEL 5
REMARK VINA RESULT:    -6.119      3.708      6.254
REMARK INTER + INTRA:          -9.648
REMARK INTER:                  -8.533
REMARK INTRA:                  -1.114
REMARK UNBOUND:                -1.025
REMARK  Name = 
REMARK  10 active torsions:
REMARK  status: ('A' for Active; 'I' for Inactive)
REMARK    1  A    between atoms: C_1  and  O_2
REMARK    2  A    between atoms: O_2  and  C_3
REMARK    3  A    between atoms: C_6  and  C_7
REMARK    4  A    between atoms: C_11  and  C_12
REMARK    5  A    between atoms: C_12  and  C_13
REMARK    6  A    between atoms: C_12  and  C_14
REMARK    7  A    between atoms: C_12  and  C_15
REMARK    8  A    between atoms: C_15  and  N_16
REMARK    9  A    between atoms: N_16  and  C_17
REMARK   10  A    between atoms: C_20  and  C_21
REMARK                            x       y       z     vdW  Elec       q    Type
REMARK                         _______ _______ _______ _____ _____    ______ ____
ROOT
ATOM      1  C   UNL     1      49.427   7.993  15.393  0.00  0.00    +0.000 C 
ATOM      2  C   UNL     1      48.246   8.988  15.474  0.00  0.00    +0.000 C 
ATOM      3  C   UNL     1      50.744   8.785  15.567  0.00  0.00    +0.000 C 
ENDROOT
BRANCH   1   8
ATOM      4  C   UNL     1      49.928   4.886  17.650  0.00  0.00    +0.000 A 
ATOM      5  C   UNL     1      49.013   5.221  18.643  0.00  0.00    +0.000 A 
ATOM      6  N   UNL     1      48.240   6.332  18.637  0.00  0.00    +0.000 NA
ATOM      7  C   UNL     1      48.398   7.177  17.593  0.00  0.00    +0.000 A 
ATOM      8  C   UNL     1      49.281   6.975  16.533  0.00  0.00    +0.000 A 
ATOM      9  C   UNL     1      50.020   5.786  16.581  0.00  0.00    +0.000 A 
BRANCH   4  13
ATOM     10  C   UNL     1      52.226   1.338  17.566  0.00  0.00    +0.000 A 
ATOM     11  C   UNL     1      52.845   2.488  18.017  0.00  0.00    +0.000 A 
ATOM     12  C   UNL     1      52.087   3.656  18.081  0.00  0.00    +0.000 A 
ATOM     13  C   UNL     1      50.740   3.661  17.674  0.00  0.00    +0.000 A 
ATOM     14  C   UNL     1      50.233   2.436  17.246  0.00  0.00    +0.000 A 
ATOM     15  N   UNL     1      50.933   1.285  17.193  0.00  0.00    +0.000 NA
BRANCH  10  17
ATOM     16  C   UNL     1      54.321   0.488  17.028  0.00  0.00    +0.000 C 
ATOM     17  O   UNL     1      52.999   0.200  17.480  0.00  0.00    +0.000 OA
ENDBRANCH  10  17
ENDBRANCH   4  13
ENDBRANCH   1   8
BRANCH   1  18
ATOM     18  C   UNL     1      49.398   7.374  13.948  0.00  0.00    +0.000 C 
BRANCH  18  19
ATOM     19  N   UNL     1      48.154   7.673  13.237  0.00  0.00    +0.000 N 
ATOM     20  H   UNL     1      47.808   8.624  13.321  0.00  0.00    +0.000 HD
BRANCH  19  21
ATOM     21  C   UNL     1      47.157   6.735  13.009  0.00  0.00    +0.000 A 
ATOM     22  C   UNL     1      47.121   5.474  13.605  0.00  0.00    +0.000 A 
ATOM     23  C   UNL     1      46.112   4.555  13.288  0.00  0.00    +0.000 A 
ATOM     24  C   UNL     1      45.134   4.875  12.341  0.00  0.00    +0.000 A 
ATOM     25  C   UNL     1      45.190   6.109  11.693  0.00  0.00    +0.000 A 
ATOM     26  C   UNL     1      46.199   7.021  12.025  0.00  0.00    +0.000 A 
BRANCH  24  27
ATOM     27  C   UNL     1      44.090   3.864  12.031  0.00  0.00    +0.000 C 
ATOM     28  N   UNL     1      44.265   2.603  12.535  0.00  0.00    +0.000 N 
ATOM     29  O   UNL     1      43.131   4.127  11.327  0.00  0.00    +0.000 OA
ATOM     30  H   UNL     1      45.129   2.285  12.946  0.00  0.00    +0.000 HD
ATOM     31  H   UNL     1      43.595   1.904  12.237  0.00  0.00    +0.000 HD
ENDBRANCH  24  27
ENDBRANCH  19  21
ENDBRANCH  18  19
ENDBRANCH   1  18
TORSDOF 7
ENDMDL
MODEL 6
REMARK VINA RESULT:    -5.851      3.662      8.453
REMARK INTER + INTRA:          -9.270
REMARK INTER:                  -7.530
REMARK INTRA:                  -1.740
REMARK UNBOUND:                -1.025
REMARK  Name = 
REMARK  10 active torsions:
REMARK  status: ('A' for Active; 'I' for Inactive)
REMARK    1  A    between atoms: C_1  and  O_2
REMARK    2  A    between atoms: O_2  and  C_3
REMARK    3  A    between atoms: C_6  and  C_7
REMARK    4  A    between atoms: C_11  and  C_12
REMARK    5  A    between atoms: C_12  and  C_13
REMARK    6  A    between atoms: C_12  and  C_14
REMARK    7  A    between atoms: C_12  and  C_15
REMARK    8  A    between atoms: C_15  and  N_16
REMARK    9  A    between atoms: N_16  and  C_17
REMARK   10  A    between atoms: C_20  and  C_21
REMARK                            x       y       z     vdW  Elec       q    Type
REMARK                         _______ _______ _______ _____ _____    ______ ____
ROOT
ATOM      1  C   UNL     1      49.632   9.794  12.553  0.00  0.00    +0.000 C 
ATOM      2  C   UNL     1      50.405   8.617  11.911  0.00  0.00    +0.000 C 
ATOM      3  C   UNL     1      50.053  11.100  11.838  0.00  0.00    +0.000 C 
ENDROOT
BRANCH   1   8
ATOM      4  C   UNL     1      46.162   8.084  12.369  0.00  0.00    +0.000 A 
ATOM      5  C   UNL     1      45.414   9.207  12.027  0.00  0.00    +0.000 A 
ATOM      6  N   UNL     1      45.925  10.444  11.827  0.00  0.00    +0.000 NA
ATOM      7  C   UNL     1      47.259  10.585  11.998  0.00  0.00    +0.000 A 
ATOM      8  C   UNL     1      48.130   9.554  12.349  0.00  0.00    +0.000 A 
ATOM      9  C   UNL     1      47.541   8.292  12.500  0.00  0.00    +0.000 A 
BRANCH   4  13
ATOM     10  C   UNL     1      44.455   4.237  12.764  0.00  0.00    +0.000 A 
ATOM     11  C   UNL     1      45.737   4.417  13.245  0.00  0.00    +0.000 A 
ATOM     12  C   UNL     1      46.298   5.690  13.151  0.00  0.00    +0.000 A 
ATOM     13  C   UNL     1      45.581   6.748  12.561  0.00  0.00    +0.000 A 
ATOM     14  C   UNL     1      44.295   6.439  12.122  0.00  0.00    +0.000 A 
ATOM     15  N   UNL     1      43.717   5.224  12.220  0.00  0.00    +0.000 NA
BRANCH  10  17
ATOM     16  C   UNL     1      43.348   2.559  11.599  0.00  0.00    +0.000 C 
ATOM     17  O   UNL     1      43.928   2.965  12.838  0.00  0.00    +0.000 OA
ENDBRANCH  10  17
ENDBRANCH   4  13
ENDBRANCH   1   8
BRANCH   1  18
ATOM     18  C   UNL     1      50.091   9.870  14.054  0.00  0.00    +0.000 C 
BRANCH  18  19
ATOM     19  N   UNL     1      50.505   8.568  14.580  0.00  0.00    +0.000 N 
ATOM     20  H   UNL     1      51.017   7.971  13.939  0.00  0.00    +0.000 HD
BRANCH  19  21
ATOM     21  C   UNL     1      49.795   7.872  15.547  0.00  0.00    +0.000 A 
ATOM     22  C   UNL     1      49.735   8.245  16.891  0.00  0.00    +0.000 A 
ATOM     23  C   UNL     1      49.042   7.464  17.825  0.00  0.00    +0.000 A 
ATOM     24  C   UNL     1      48.419   6.275  17.433  0.00  0.00    +0.000 A 
ATOM     25  C   UNL     1      48.521   5.858  16.105  0.00  0.00    +0.000 A 
ATOM     26  C   UNL     1      49.209   6.651  15.180  0.00  0.00    +0.000 A 
BRANCH  24  27
ATOM     27  C   UNL     1      47.705   5.476  18.463  0.00  0.00    +0.000 C 
ATOM     28  N   UNL     1      48.063   4.162  18.602  0.00  0.00    +0.000 N 
ATOM     29  O   UNL     1      46.809   5.954  19.137  0.00  0.00    +0.000 OA
ATOM     30  H   UNL     1      48.647   3.674  17.940  0.00  0.00    +0.000 HD
ATOM     31  H   UNL     1      47.504   3.610  19.240  0.00  0.00    +0.000 HD
ENDBRANCH  24  27
ENDBRANCH  19  21
ENDBRANCH  18  19
ENDBRANCH   1  18
TORSDOF 7
ENDMDL
MODEL 7
REMARK VINA RESULT:    -5.656      4.783      7.286
REMARK INTER + INTRA:          -8.995
REMARK INTER:                  -8.017
REMARK INTRA:                  -0.978
REMARK UNBOUND:                -1.025
REMARK  Name = 
REMARK  10 active torsions:
REMARK  status: ('A' for Active; 'I' for Inactive)
REMARK    1  A    between atoms: C_1  and  O_2
REMARK    2  A    between atoms: O_2  and  C_3
REMARK    3  A    between atoms: C_6  and  C_7
REMARK    4  A    between atoms: C_11  and  C_12
REMARK    5  A    between atoms: C_12  and  C_13
REMARK    6  A    between atoms: C_12  and  C_14
REMARK    7  A    between atoms: C_12  and  C_15
REMARK    8  A    between atoms: C_15  and  N_16
REMARK    9  A    between atoms: N_16  and  C_17
REMARK   10  A    between atoms: C_20  and  C_21
REMARK                            x       y       z     vdW  Elec       q    Type
REMARK                         _______ _______ _______ _____ _____    ______ ____
ROOT
ATOM      1  C   UNL     1      51.340   9.119  12.278  0.00  0.00    +0.000 C 
ATOM      2  C   UNL     1      50.483   9.742  11.150  0.00  0.00    +0.000 C 
ATOM      3  C   UNL     1      51.942  10.268  13.121  0.00  0.00    +0.000 C 
ENDROOT
BRANCH   1   8
ATOM      4  C   UNL     1      48.483   6.784  13.452  0.00  0.00    +0.000 A 
ATOM      5  C   UNL     1      48.868   6.665  14.784  0.00  0.00    +0.000 A 
ATOM      6  N   UNL     1      49.937   7.284  15.336  0.00  0.00    +0.000 NA
ATOM      7  C   UNL     1      50.687   8.052  14.513  0.00  0.00    +0.000 A 
ATOM      8  C   UNL     1      50.428   8.254  13.159  0.00  0.00    +0.000 A 
ATOM      9  C   UNL     1      49.283   7.619  12.662  0.00  0.00    +0.000 A 
BRANCH   4  13
ATOM     10  C   UNL     1      45.010   4.893  11.954  0.00  0.00    +0.000 A 
ATOM     11  C   UNL     1      45.603   5.856  11.161  0.00  0.00    +0.000 A 
ATOM     12  C   UNL     1      46.768   6.463  11.630  0.00  0.00    +0.000 A 
ATOM     13  C   UNL     1      47.303   6.115  12.884  0.00  0.00    +0.000 A 
ATOM     14  C   UNL     1      46.616   5.125  13.583  0.00  0.00    +0.000 A 
ATOM     15  N   UNL     1      45.500   4.505  13.147  0.00  0.00    +0.000 NA
BRANCH  10  17
ATOM     16  C   UNL     1      44.014   3.741  10.200  0.00  0.00    +0.000 C 
ATOM     17  O   UNL     1      43.843   4.327  11.489  0.00  0.00    +0.000 OA
ENDBRANCH  10  17
ENDBRANCH   4  13
ENDBRANCH   1   8
BRANCH   1  18
ATOM     18  C   UNL     1      52.511   8.341  11.576  0.00  0.00    +0.000 C 
BRANCH  18  19
ATOM     19  N   UNL     1      52.450   8.434  10.116  0.00  0.00    +0.000 N 
ATOM     20  H   UNL     1      51.722   9.031   9.738  0.00  0.00    +0.000 HD
BRANCH  19  21
ATOM     21  C   UNL     1      52.828   7.406   9.266  0.00  0.00    +0.000 A 
ATOM     22  C   UNL     1      52.408   7.296   7.939  0.00  0.00    +0.000 A 
ATOM     23  C   UNL     1      52.786   6.200   7.152  0.00  0.00    +0.000 A 
ATOM     24  C   UNL     1      53.571   5.176   7.692  0.00  0.00    +0.000 A 
ATOM     25  C   UNL     1      53.949   5.242   9.033  0.00  0.00    +0.000 A 
ATOM     26  C   UNL     1      53.572   6.346   9.807  0.00  0.00    +0.000 A 
BRANCH  24  27
ATOM     27  C   UNL     1      53.938   4.030   6.820  0.00  0.00    +0.000 C 
ATOM     28  N   UNL     1      53.100   2.947   6.816  0.00  0.00    +0.000 N 
ATOM     29  O   UNL     1      54.961   4.030   6.157  0.00  0.00    +0.000 OA
ATOM     30  H   UNL     1      52.361   2.817   7.490  0.00  0.00    +0.000 HD
ATOM     31  H   UNL     1      53.413   2.140   6.291  0.00  0.00    +0.000 HD
ENDBRANCH  24  27
ENDBRANCH  19  21
ENDBRANCH  18  19
ENDBRANCH   1  18
TORSDOF 7
ENDMDL
MODEL 8
REMARK VINA RESULT:    -5.649      2.945      9.121
REMARK INTER + INTRA:          -8.985
REMARK INTER:                  -8.094
REMARK INTRA:                  -0.891
REMARK UNBOUND:                -1.025
REMARK  Name = 
REMARK  10 active torsions:
REMARK  status: ('A' for Active; 'I' for Inactive)
REMARK    1  A    between atoms: C_1  and  O_2
REMARK    2  A    between atoms: O_2  and  C_3
REMARK    3  A    between atoms: C_6  and  C_7
REMARK    4  A    between atoms: C_11  and  C_12
REMARK    5  A    between atoms: C_12  and  C_13
REMARK    6  A    between atoms: C_12  and  C_14
REMARK    7  A    between atoms: C_12  and  C_15
REMARK    8  A    between atoms: C_15  and  N_16
REMARK    9  A    between atoms: N_16  and  C_17
REMARK   10  A    between atoms: C_20  and  C_21
REMARK                            x       y       z     vdW  Elec       q    Type
REMARK                         _______ _______ _______ _____ _____    ______ ____
ROOT
ATOM      1  C   UNL     1      46.078   7.758  12.354  0.00  0.00    +0.000 C 
ATOM      2  C   UNL     1      47.295   8.011  11.432  0.00  0.00    +0.000 C 
ATOM      3  C   UNL     1      45.294   9.083  12.500  0.00  0.00    +0.000 C 
ENDROOT
BRANCH   1   8
ATOM      4  C   UNL     1      44.859   4.808  10.160  0.00  0.00    +0.000 A 
ATOM      5  C   UNL     1      43.537   4.779  10.597  0.00  0.00    +0.000 A 
ATOM      6  N   UNL     1      43.005   5.631  11.503  0.00  0.00    +0.000 NA
ATOM      7  C   UNL     1      43.838   6.558  12.029  0.00  0.00    +0.000 A 
ATOM      8  C   UNL     1      45.184   6.698  11.694  0.00  0.00    +0.000 A 
ATOM      9  C   UNL     1      45.660   5.811  10.721  0.00  0.00    +0.000 A 
BRANCH   4  13
ATOM     10  C   UNL     1      46.568   2.216   7.291  0.00  0.00    +0.000 A 
ATOM     11  C   UNL     1      45.926   1.638   8.369  0.00  0.00    +0.000 A 
ATOM     12  C   UNL     1      45.329   2.483   9.304  0.00  0.00    +0.000 A 
ATOM     13  C   UNL     1      45.404   3.881   9.159  0.00  0.00    +0.000 A 
ATOM     14  C   UNL     1      46.073   4.338   8.026  0.00  0.00    +0.000 A 
ATOM     15  N   UNL     1      46.641   3.546   7.092  0.00  0.00    +0.000 NA
BRANCH  10  17
ATOM     16  C   UNL     1      47.965   2.079   5.440  0.00  0.00    +0.000 C 
ATOM     17  O   UNL     1      47.179   1.367   6.394  0.00  0.00    +0.000 OA
ENDBRANCH  10  17
ENDBRANCH   4  13
ENDBRANCH   1   8
BRANCH   1  18
ATOM     18  C   UNL     1      46.654   7.354  13.759  0.00  0.00    +0.000 C 
BRANCH  18  19
ATOM     19  N   UNL     1      47.227   8.493  14.478  0.00  0.00    +0.000 N 
ATOM     20  H   UNL     1      46.817   9.399  14.278  0.00  0.00    +0.000 HD
BRANCH  19  21
ATOM     21  C   UNL     1      48.553   8.557  14.880  0.00  0.00    +0.000 A 
ATOM     22  C   UNL     1      49.471   7.518  14.714  0.00  0.00    +0.000 A 
ATOM     23  C   UNL     1      50.782   7.631  15.193  0.00  0.00    +0.000 A 
ATOM     24  C   UNL     1      51.192   8.781  15.875  0.00  0.00    +0.000 A 
ATOM     25  C   UNL     1      50.270   9.803  16.102  0.00  0.00    +0.000 A 
ATOM     26  C   UNL     1      48.965   9.682  15.611  0.00  0.00    +0.000 A 
BRANCH  24  27
ATOM     27  C   UNL     1      52.590   8.849  16.373  0.00  0.00    +0.000 C 
ATOM     28  N   UNL     1      53.489   7.957  15.852  0.00  0.00    +0.000 N 
ATOM     29  O   UNL     1      52.925   9.641  17.236  0.00  0.00    +0.000 OA
ATOM     30  H   UNL     1      53.220   7.162  15.294  0.00  0.00    +0.000 HD
ATOM     31  H   UNL     1      54.411   7.955  16.269  0.00  0.00    +0.000 HD
ENDBRANCH  24  27
ENDBRANCH  19  21
ENDBRANCH  18  19
ENDBRANCH   1  18
TORSDOF 7
ENDMDL
