MODEL 1
REMARK VINA RESULT:    -8.955      0.000      0.000
REMARK INTER + INTRA:         -11.595
REMARK INTER:                 -11.049
REMARK INTRA:                  -0.546
REMARK UNBOUND:                -0.546
REMARK  Name = 
REMARK  4 active torsions:
REMARK  status: ('A' for Active; 'I' for Inactive)
REMARK    1  A    between atoms: C_2  and  C_4
REMARK    2  A    between atoms: N_8  and  C_9
REMARK    3  A    between atoms: C_9  and  C_10
REMARK    4  A    between atoms: C_14  and  C_15
REMARK                            x       y       z     vdW  Elec       q    Type
REMARK                         _______ _______ _______ _____ _____    ______ ____
ROOT
ATOM      1  C   UNL     1      46.597   2.492   7.141  0.00  0.00    +0.000 A 
ATOM      2  C   UNL     1      45.879   3.651   7.412  0.00  0.00    +0.000 A 
ATOM      3  C   UNL     1      45.054   3.693   8.534  0.00  0.00    +0.000 A 
ATOM      4  C   UNL     1      44.958   2.586   9.369  0.00  0.00    +0.000 A 
ATOM      5  N   UNL     1      44.208   2.561  10.507  0.00  0.00    +0.000 N 
ATOM      6  N   UNL     1      45.629   1.446   9.098  0.00  0.00    +0.000 NA
ATOM      7  C   UNL     1      46.420   1.414   7.991  0.00  0.00    +0.000 A 
ATOM      8  H   UNL     1      44.233   1.676  10.996  0.00  0.00    +0.000 HD
ENDROOT
BRANCH   1  10
ATOM      9  N   UNL     1      47.404   3.336   5.019  0.00  0.00    +0.000 N 
ATOM     10  C   UNL     1      47.510   2.376   5.989  0.00  0.00    +0.000 C 
ATOM     11  O   UNL     1      48.347   1.487   5.918  0.00  0.00    +0.000 OA
ATOM     12  H   UNL     1      48.094   3.312   4.278  0.00  0.00    +0.000 HD
ATOM     13  H   UNL     1      46.910   4.204   5.168  0.00  0.00    +0.000 HD
ENDBRANCH   1  10
BRANCH   5  14
ATOM     14  C   UNL     1      43.497   3.670  11.092  0.00  0.00    +0.000 C 
BRANCH  14  15
ATOM     15  C   UNL     1      44.449   4.713  11.629  0.00  0.00    +0.000 A 
ATOM     16  C   UNL     1      44.377   6.032  11.165  0.00  0.00    +0.000 A 
ATOM     17  C   UNL     1      45.199   7.017  11.703  0.00  0.00    +0.000 A 
ATOM     18  C   UNL     1      46.083   6.700  12.734  0.00  0.00    +0.000 A 
ATOM     19  C   UNL     1      46.166   5.396  13.256  0.00  0.00    +0.000 A 
ATOM     20  C   UNL     1      45.363   4.406  12.656  0.00  0.00    +0.000 A 
BRANCH  19  21
ATOM     21  C   UNL     1      47.005   5.091  14.433  0.00  0.00    +0.000 A 
ATOM     22  C   UNL     1      48.028   5.942  14.863  0.00  0.00    +0.000 A 
ATOM     23  N   UNL     1      48.787   5.719  15.966  0.00  0.00    +0.000 NA
ATOM     24  C   UNL     1      48.483   4.596  16.646  0.00  0.00    +0.000 A 
ATOM     25  C   UNL     1      47.472   3.740  16.240  0.00  0.00    +0.000 A 
ATOM     26  N   UNL     1      46.711   3.967  15.141  0.00  0.00    +0.000 NA
ENDBRANCH  19  21
ENDBRANCH  14  15
ENDBRANCH   5  14
TORSDOF 4
ENDMDL
MODEL 2
REMARK VINA RESULT:    -8.385      2.236      3.439
REMARK INTER + INTRA:         -10.892
REMARK INTER:                 -10.280
REMARK INTRA:                  -0.612
REMARK UNBOUND:                -0.546
REMARK  Name = 
REMARK  4 active torsions:
REMARK  status: ('A' for Active; 'I' for Inactive)
REMARK    1  A    between atoms: C_2  and  C_4
REMARK    2  A    between atoms: N_8  and  C_9
REMARK    3  A    between atoms: C_9  and  C_10
REMARK    4  A    between atoms: C_14  and  C_15
REMARK                            x       y       z     vdW  Elec       q    Type
REMARK                         _______ _______ _______ _____ _____    ______ ____
ROOT
ATOM      1  C   UNL     1      46.589   2.533   7.351  0.00  0.00    +0.000 A 
ATOM      2  C   UNL     1      46.068   3.786   7.649  0.00  0.00    +0.000 A 
ATOM      3  C   UNL     1      45.164   3.914   8.702  0.00  0.00    +0.000 A 
ATOM      4  C   UNL     1      44.796   2.798   9.443  0.00  0.00    +0.000 A 
ATOM      5  N   UNL     1      43.952   2.845  10.513  0.00  0.00    +0.000 N 
ATOM      6  N   UNL     1      45.274   1.571   9.143  0.00  0.00    +0.000 NA
ATOM      7  C   UNL     1      46.145   1.458   8.102  0.00  0.00    +0.000 A 
ATOM      8  H   UNL     1      43.774   1.944  10.935  0.00  0.00    +0.000 HD
ENDROOT
BRANCH   1  10
ATOM      9  N   UNL     1      47.504   3.168   5.201  0.00  0.00    +0.000 N 
ATOM     10  C   UNL     1      47.569   2.316   6.270  0.00  0.00    +0.000 C 
ATOM     11  O   UNL     1      48.422   1.444   6.340  0.00  0.00    +0.000 OA
ATOM     12  H   UNL     1      48.235   3.081   4.506  0.00  0.00    +0.000 HD
ATOM     13  H   UNL     1      46.988   4.036   5.230  0.00  0.00    +0.000 HD
ENDBRANCH   1  10
BRANCH   5  14
ATOM     14  C   UNL     1      43.400   4.031  11.118  0.00  0.00    +0.000 C 
BRANCH  14  15
ATOM     15  C   UNL     1      44.434   4.759  11.946  0.00  0.00    +0.000 A 
ATOM     16  C   UNL     1      45.304   4.038  12.774  0.00  0.00    +0.000 A 
ATOM     17  C   UNL     1      46.306   4.690  13.485  0.00  0.00    +0.000 A 
ATOM     18  C   UNL     1      46.469   6.069  13.354  0.00  0.00    +0.000 A 
ATOM     19  C   UNL     1      45.642   6.830  12.508  0.00  0.00    +0.000 A 
ATOM     20  C   UNL     1      44.600   6.154  11.841  0.00  0.00    +0.000 A 
BRANCH  19  21
ATOM     21  C   UNL     1      45.898   8.265  12.269  0.00  0.00    +0.000 A 
ATOM     22  C   UNL     1      47.187   8.807  12.288  0.00  0.00    +0.000 A 
ATOM     23  N   UNL     1      47.466  10.110  12.027  0.00  0.00    +0.000 NA
ATOM     24  C   UNL     1      46.394  10.872  11.734  0.00  0.00    +0.000 A 
ATOM     25  C   UNL     1      45.109  10.355  11.706  0.00  0.00    +0.000 A 
ATOM     26  N   UNL     1      44.832   9.052  11.962  0.00  0.00    +0.000 NA
ENDBRANCH  19  21
ENDBRANCH  14  15
ENDBRANCH   5  14
TORSDOF 4
ENDMDL
MODEL 3
REMARK VINA RESULT:    -7.250      2.940      7.118
REMARK INTER + INTRA:          -9.492
REMARK INTER:                  -8.823
REMARK INTRA:                  -0.669
REMARK UNBOUND:                -0.546
REMARK  Name = 
REMARK  4 active torsions:
REMARK  status: ('A' for Active; 'I' for Inactive)
REMARK    1  A    between atoms: C_2  and  C_4
REMARK    2  A    between atoms: N_8  and  C_9
REMARK    3  A    between atoms: C_9  and  C_10
REMARK    4  A    between atoms: C_14  and  C_15
REMARK                            x       y       z     vdW  Elec       q    Type
REMARK                         _______ _______ _______ _____ _____    ______ ____
ROOT
ATOM      1  C   UNL     1      49.667   7.838  12.732  0.00  0.00    +0.000 A 
ATOM      2  C   UNL     1      48.759   7.817  11.679  0.00  0.00    +0.000 A 
ATOM      3  C   UNL     1      47.489   7.284  11.887  0.00  0.00    +0.000 A 
ATOM      4  C   UNL     1      47.140   6.784  13.136  0.00  0.00    +0.000 A 
ATOM      5  N   UNL     1      45.906   6.285  13.432  0.00  0.00    +0.000 N 
ATOM      6  N   UNL     1      48.024   6.772  14.156  0.00  0.00    +0.000 NA
ATOM      7  C   UNL     1      49.266   7.283  13.935  0.00  0.00    +0.000 A 
ATOM      8  H   UNL     1      45.817   5.947  14.381  0.00  0.00    +0.000 HD
ENDROOT
BRANCH   1  10
ATOM      9  N   UNL     1      51.920   8.091  13.584  0.00  0.00    +0.000 N 
ATOM     10  C   UNL     1      51.021   8.407  12.601  0.00  0.00    +0.000 C 
ATOM     11  O   UNL     1      51.340   9.098  11.644  0.00  0.00    +0.000 OA
ATOM     12  H   UNL     1      52.873   8.401  13.444  0.00  0.00    +0.000 HD
ATOM     13  H   UNL     1      51.765   7.336  14.237  0.00  0.00    +0.000 HD
ENDBRANCH   1  10
BRANCH   5  14
ATOM     14  C   UNL     1      44.749   6.290  12.573  0.00  0.00    +0.000 C 
BRANCH  14  15
ATOM     15  C   UNL     1      44.525   4.935  11.943  0.00  0.00    +0.000 A 
ATOM     16  C   UNL     1      43.535   4.083  12.447  0.00  0.00    +0.000 A 
ATOM     17  C   UNL     1      43.270   2.864  11.832  0.00  0.00    +0.000 A 
ATOM     18  C   UNL     1      43.973   2.495  10.685  0.00  0.00    +0.000 A 
ATOM     19  C   UNL     1      44.953   3.333  10.122  0.00  0.00    +0.000 A 
ATOM     20  C   UNL     1      45.240   4.538  10.796  0.00  0.00    +0.000 A 
BRANCH  19  21
ATOM     21  C   UNL     1      45.602   3.003   8.837  0.00  0.00    +0.000 A 
ATOM     22  C   UNL     1      45.844   3.965   7.853  0.00  0.00    +0.000 A 
ATOM     23  N   UNL     1      46.479   3.710   6.681  0.00  0.00    +0.000 NA
ATOM     24  C   UNL     1      46.880   2.433   6.520  0.00  0.00    +0.000 A 
ATOM     25  C   UNL     1      46.653   1.463   7.483  0.00  0.00    +0.000 A 
ATOM     26  N   UNL     1      46.023   1.722   8.656  0.00  0.00    +0.000 NA
ENDBRANCH  19  21
ENDBRANCH  14  15
ENDBRANCH   5  14
TORSDOF 4
ENDMDL
MODEL 4
REMARK VINA RESULT:    -7.109      2.077      2.886
REMARK INTER + INTRA:          -9.317
REMARK INTER:                  -8.657
REMARK INTRA:                  -0.660
REMARK UNBOUND:                -0.546
REMARK  Name = 
REMARK  4 active torsions:
REMARK  status: ('A' for Active; 'I' for Inactive)
REMARK    1  A    between atoms: C_2  and  C_4
REMARK    2  A    between atoms: N_8  and  C_9
REMARK    3  A    between atoms: C_9  and  C_10
REMARK    4  A    between atoms: C_14  and  C_15
REMARK                            x       y       z     vdW  Elec       q    Type
REMARK                         _______ _______ _______ _____ _____    ______ ____
ROOT
ATOM      1  C   UNL     1      46.630   2.435   7.454  0.00  0.00    +0.000 A 
ATOM      2  C   UNL     1      46.068   2.135   8.689  0.00  0.00    +0.000 A 
ATOM      3  C   UNL     1      45.546   3.166   9.467  0.00  0.00    +0.000 A 
ATOM      4  C   UNL     1      45.589   4.476   9.005  0.00  0.00    +0.000 A 
ATOM      5  N   UNL     1      45.063   5.534   9.685  0.00  0.00    +0.000 N 
ATOM      6  N   UNL     1      46.159   4.781   7.820  0.00  0.00    +0.000 NA
ATOM      7  C   UNL     1      46.678   3.765   7.077  0.00  0.00    +0.000 A 
ATOM      8  H   UNL     1      45.188   6.424   9.220  0.00  0.00    +0.000 HD
ENDROOT
BRANCH   1  10
ATOM      9  N   UNL     1      48.188   1.785   5.717  0.00  0.00    +0.000 N 
ATOM     10  C   UNL     1      47.181   1.399   6.560  0.00  0.00    +0.000 C 
ATOM     11  O   UNL     1      46.786   0.242   6.594  0.00  0.00    +0.000 OA
ATOM     12  H   UNL     1      48.631   1.054   5.173  0.00  0.00    +0.000 HD
ATOM     13  H   UNL     1      48.697   2.648   5.841  0.00  0.00    +0.000 HD
ENDBRANCH   1  10
BRANCH   5  14
ATOM     14  C   UNL     1      44.296   5.476  10.904  0.00  0.00    +0.000 C 
BRANCH  14  15
ATOM     15  C   UNL     1      45.193   5.359  12.114  0.00  0.00    +0.000 A 
ATOM     16  C   UNL     1      45.003   4.315  13.028  0.00  0.00    +0.000 A 
ATOM     17  C   UNL     1      45.867   4.154  14.107  0.00  0.00    +0.000 A 
ATOM     18  C   UNL     1      46.950   5.018  14.268  0.00  0.00    +0.000 A 
ATOM     19  C   UNL     1      47.200   6.060  13.356  0.00  0.00    +0.000 A 
ATOM     20  C   UNL     1      46.280   6.236  12.303  0.00  0.00    +0.000 A 
BRANCH  19  21
ATOM     21  C   UNL     1      48.418   6.890  13.453  0.00  0.00    +0.000 A 
ATOM     22  C   UNL     1      48.735   7.866  12.503  0.00  0.00    +0.000 A 
ATOM     23  N   UNL     1      49.819   8.679  12.583  0.00  0.00    +0.000 NA
ATOM     24  C   UNL     1      50.593   8.488  13.670  0.00  0.00    +0.000 A 
ATOM     25  C   UNL     1      50.296   7.530  14.626  0.00  0.00    +0.000 A 
ATOM     26  N   UNL     1      49.209   6.722  14.547  0.00  0.00    +0.000 NA
ENDBRANCH  19  21
ENDBRANCH  14  15
ENDBRANCH   5  14
TORSDOF 4
ENDMDL
MODEL 5
REMARK VINA RESULT:    -7.048      3.384      8.466
REMARK INTER + INTRA:          -9.242
REMARK INTER:                  -8.877
REMARK INTRA:                  -0.365
REMARK UNBOUND:                -0.546
REMARK  Name = 
REMARK  4 active torsions:
REMARK  status: ('A' for Active; 'I' for Inactive)
REMARK    1  A    between atoms: C_2  and  C_4
REMARK    2  A    between atoms: N_8  and  C_9
REMARK    3  A    between atoms: C_9  and  C_10
REMARK    4  A    between atoms: C_14  and  C_15
REMARK                            x       y       z     vdW  Elec       q    Type
REMARK                         _______ _______ _______ _____ _____    ______ ____
ROOT
ATOM      1  C   UNL     1      48.633   4.433  18.213  0.00  0.00    +0.000 A 
ATOM      2  C   UNL     1      48.662   5.540  17.374  0.00  0.00    +0.000 A 
ATOM      3  C   UNL     1      47.926   5.517  16.191  0.00  0.00    +0.000 A 
ATOM      4  C   UNL     1      47.171   4.396  15.863  0.00  0.00    +0.000 A 
ATOM      5  N   UNL     1      46.391   4.310  14.749  0.00  0.00    +0.000 N 
ATOM      6  N   UNL     1      47.160   3.305  16.657  0.00  0.00    +0.000 NA
ATOM      7  C   UNL     1      47.895   3.336  17.803  0.00  0.00    +0.000 A 
ATOM      8  H   UNL     1      45.917   3.423  14.647  0.00  0.00    +0.000 HD
ENDROOT
BRANCH   1  10
ATOM      9  N   UNL     1      48.665   3.952  20.587  0.00  0.00    +0.000 N 
ATOM     10  C   UNL     1      49.363   4.389  19.494  0.00  0.00    +0.000 C 
ATOM     11  O   UNL     1      50.546   4.691  19.572  0.00  0.00    +0.000 OA
ATOM     12  H   UNL     1      49.190   3.830  21.443  0.00  0.00    +0.000 HD
ATOM     13  H   UNL     1      47.782   3.466  20.507  0.00  0.00    +0.000 HD
ENDBRANCH   1  10
BRANCH   5  14
ATOM     14  C   UNL     1      46.127   5.364  13.803  0.00  0.00    +0.000 C 
BRANCH  14  15
ATOM     15  C   UNL     1      45.196   4.900  12.706  0.00  0.00    +0.000 A 
ATOM     16  C   UNL     1      43.819   5.133  12.811  0.00  0.00    +0.000 A 
ATOM     17  C   UNL     1      42.960   4.775  11.777  0.00  0.00    +0.000 A 
ATOM     18  C   UNL     1      43.473   4.206  10.611  0.00  0.00    +0.000 A 
ATOM     19  C   UNL     1      44.852   3.984  10.447  0.00  0.00    +0.000 A 
ATOM     20  C   UNL     1      45.694   4.305  11.531  0.00  0.00    +0.000 A 
BRANCH  19  21
ATOM     21  C   UNL     1      45.407   3.505   9.164  0.00  0.00    +0.000 A 
ATOM     22  C   UNL     1      45.809   4.380   8.150  0.00  0.00    +0.000 A 
ATOM     23  N   UNL     1      46.365   3.980   6.979  0.00  0.00    +0.000 NA
ATOM     24  C   UNL     1      46.518   2.647   6.849  0.00  0.00    +0.000 A 
ATOM     25  C   UNL     1      46.130   1.762   7.842  0.00  0.00    +0.000 A 
ATOM     26  N   UNL     1      45.579   2.164   9.014  0.00  0.00    +0.000 NA
ENDBRANCH  19  21
ENDBRANCH  14  15
ENDBRANCH   5  14
TORSDOF 4
ENDMDL
MODEL 6
REMARK VINA RESULT:    -6.687      2.854      7.212
REMARK INTER + INTRA:          -8.798
REMARK INTER:                  -8.215
REMARK INTRA:                  -0.582
REMARK UNBOUND:                -0.546
REMARK  Name = 
REMARK  4 active torsions:
REMARK  status: ('A' for Active; 'I' for Inactive)
REMARK    1  A    between atoms: C_2  and  C_4
REMARK    2  A    between atoms: N_8  and  C_9
REMARK    3  A    between atoms: C_9  and  C_10
REMARK    4  A    between atoms: C_14  and  C_15
REMARK                            x       y       z     vdW  Elec       q    Type
REMARK                         _______ _______ _______ _____ _____    ______ ____
ROOT
ATOM      1  C   UNL     1      48.234   7.199  13.484  0.00  0.00    +0.000 A 
ATOM      2  C   UNL     1      47.107   6.513  13.921  0.00  0.00    +0.000 A 
ATOM      3  C   UNL     1      45.966   6.502  13.122  0.00  0.00    +0.000 A 
ATOM      4  C   UNL     1      45.964   7.170  11.902  0.00  0.00    +0.000 A 
ATOM      5  N   UNL     1      44.905   7.172  11.044  0.00  0.00    +0.000 N 
ATOM      6  N   UNL     1      47.043   7.864  11.484  0.00  0.00    +0.000 NA
ATOM      7  C   UNL     1      48.146   7.878  12.281  0.00  0.00    +0.000 A 
ATOM      8  H   UNL     1      45.057   7.716  10.206  0.00  0.00    +0.000 HD
ENDROOT
BRANCH   1  10
ATOM      9  N   UNL     1      49.473   6.638  15.488  0.00  0.00    +0.000 N 
ATOM     10  C   UNL     1      49.489   7.238  14.259  0.00  0.00    +0.000 C 
ATOM     11  O   UNL     1      50.506   7.750  13.811  0.00  0.00    +0.000 OA
ATOM     12  H   UNL     1      50.358   6.580  15.977  0.00  0.00    +0.000 HD
ATOM     13  H   UNL     1      48.741   6.002  15.771  0.00  0.00    +0.000 HD
ENDBRANCH   1  10
BRANCH   5  14
ATOM     14  C   UNL     1      43.684   6.418  11.185  0.00  0.00    +0.000 C 
BRANCH  14  15
ATOM     15  C   UNL     1      43.916   4.944  10.948  0.00  0.00    +0.000 A 
ATOM     16  C   UNL     1      43.209   3.994  11.696  0.00  0.00    +0.000 A 
ATOM     17  C   UNL     1      43.360   2.636  11.438  0.00  0.00    +0.000 A 
ATOM     18  C   UNL     1      44.200   2.211  10.407  0.00  0.00    +0.000 A 
ATOM     19  C   UNL     1      44.904   3.130   9.607  0.00  0.00    +0.000 A 
ATOM     20  C   UNL     1      44.776   4.497   9.925  0.00  0.00    +0.000 A 
BRANCH  19  21
ATOM     21  C   UNL     1      45.687   2.687   8.435  0.00  0.00    +0.000 A 
ATOM     22  C   UNL     1      46.037   3.557   7.399  0.00  0.00    +0.000 A 
ATOM     23  N   UNL     1      46.795   3.199   6.331  0.00  0.00    +0.000 NA
ATOM     24  C   UNL     1      47.206   1.916   6.332  0.00  0.00    +0.000 A 
ATOM     25  C   UNL     1      46.874   1.037   7.351  0.00  0.00    +0.000 A 
ATOM     26  N   UNL     1      46.121   1.398   8.420  0.00  0.00    +0.000 NA
ENDBRANCH  19  21
ENDBRANCH  14  15
ENDBRANCH   5  14
TORSDOF 4
ENDMDL
MODEL 7
REMARK VINA RESULT:    -6.580      4.317      8.626
REMARK INTER + INTRA:          -8.665
REMARK INTER:                  -8.058
REMARK INTRA:                  -0.608
REMARK UNBOUND:                -0.546
REMARK  Name = 
REMARK  4 active torsions:
REMARK  status: ('A' for Active; 'I' for Inactive)
REMARK    1  A    between atoms: C_2  and  C_4
REMARK    2  A    between atoms: N_8  and  C_9
REMARK    3  A    between atoms: C_9  and  C_10
REMARK    4  A    between atoms: C_14  and  C_15
REMARK                            x       y       z     vdW  Elec       q    Type
REMARK                         _______ _______ _______ _____ _____    ______ ____
ROOT
ATOM      1  C   UNL     1      52.526   2.340  17.980  0.00  0.00    +0.000 A 
ATOM      2  C   UNL     1      51.938   3.584  18.171  0.00  0.00    +0.000 A 
ATOM      3  C   UNL     1      50.613   3.777  17.784  0.00  0.00    +0.000 A 
ATOM      4  C   UNL     1      49.894   2.730  17.218  0.00  0.00    +0.000 A 
ATOM      5  N   UNL     1      48.584   2.824  16.853  0.00  0.00    +0.000 N 
ATOM      6  N   UNL     1      50.466   1.527  17.002  0.00  0.00    +0.000 NA
ATOM      7  C   UNL     1      51.765   1.357  17.371  0.00  0.00    +0.000 A 
ATOM      8  H   UNL     1      48.211   1.978  16.443  0.00  0.00    +0.000 HD
ENDROOT
BRANCH   1  10
ATOM      9  N   UNL     1      54.904   2.473  17.541  0.00  0.00    +0.000 N 
ATOM     10  C   UNL     1      53.914   2.048  18.384  0.00  0.00    +0.000 C 
ATOM     11  O   UNL     1      54.173   1.485  19.439  0.00  0.00    +0.000 OA
ATOM     12  H   UNL     1      55.857   2.359  17.864  0.00  0.00    +0.000 HD
ATOM     13  H   UNL     1      54.738   3.147  16.807  0.00  0.00    +0.000 HD
ENDBRANCH   1  10
BRANCH   5  14
ATOM     14  C   UNL     1      47.707   3.944  17.084  0.00  0.00    +0.000 C 
BRANCH  14  15
ATOM     15  C   UNL     1      47.503   4.752  15.823  0.00  0.00    +0.000 A 
ATOM     16  C   UNL     1      48.351   5.828  15.535  0.00  0.00    +0.000 A 
ATOM     17  C   UNL     1      48.219   6.534  14.345  0.00  0.00    +0.000 A 
ATOM     18  C   UNL     1      47.254   6.154  13.412  0.00  0.00    +0.000 A 
ATOM     19  C   UNL     1      46.402   5.059  13.642  0.00  0.00    +0.000 A 
ATOM     20  C   UNL     1      46.519   4.394  14.880  0.00  0.00    +0.000 A 
BRANCH  19  21
ATOM     21  C   UNL     1      45.471   4.576  12.601  0.00  0.00    +0.000 A 
ATOM     22  C   UNL     1      45.411   5.151  11.328  0.00  0.00    +0.000 A 
ATOM     23  N   UNL     1      44.604   4.705  10.331  0.00  0.00    +0.000 NA
ATOM     24  C   UNL     1      43.845   3.638  10.651  0.00  0.00    +0.000 A 
ATOM     25  C   UNL     1      43.891   3.050  11.904  0.00  0.00    +0.000 A 
ATOM     26  N   UNL     1      44.702   3.494  12.897  0.00  0.00    +0.000 NA
ENDBRANCH  19  21
ENDBRANCH  14  15
ENDBRANCH   5  14
TORSDOF 4
ENDMDL
MODEL 8
REMARK VINA RESULT:    -6.577      3.196      4.844
REMARK INTER + INTRA:          -8.661
REMARK INTER:                  -8.065
REMARK INTRA:                  -0.596
REMARK UNBOUND:                -0.546
REMARK  Name = 
REMARK  4 active torsions:
REMARK  status: ('A' for Active; 'I' for Inactive)
REMARK    1  A    between atoms: C_2  and  C_4
REMARK    2  A    between atoms: N_8  and  C_9
REMARK    3  A    between atoms: C_9  and  C_10
REMARK    4  A    between atoms: C_14  and  C_15
REMARK                            x       y       z     vdW  Elec       q    Type
REMARK                         _______ _______ _______ _____ _____    ______ ____
ROOT
ATOM      1  C   UNL     1      44.179   4.152  11.435  0.00  0.00    +0.000 A 
ATOM      2  C   UNL     1      44.919   4.995  10.614  0.00  0.00    +0.000 A 
ATOM      3  C   UNL     1      45.264   6.264  11.076  0.00  0.00    +0.000 A 
ATOM      4  C   UNL     1      44.872   6.672  12.346  0.00  0.00    +0.000 A 
ATOM      5  N   UNL     1      45.204   7.878  12.888  0.00  0.00    +0.000 N 
ATOM      6  N   UNL     1      44.128   5.871  13.139  0.00  0.00    +0.000 NA
ATOM      7  C   UNL     1      43.786   4.640  12.669  0.00  0.00    +0.000 A 
ATOM      8  H   UNL     1      44.829   8.029  13.815  0.00  0.00    +0.000 HD
ENDROOT
BRANCH   1  10
ATOM      9  N   UNL     1      44.486   2.237   9.984  0.00  0.00    +0.000 N 
ATOM     10  C   UNL     1      43.796   2.787  11.030  0.00  0.00    +0.000 C 
ATOM     11  O   UNL     1      42.928   2.160  11.622  0.00  0.00    +0.000 OA
ATOM     12  H   UNL     1      44.290   1.267   9.770  0.00  0.00    +0.000 HD
ATOM     13  H   UNL     1      45.358   2.622   9.648  0.00  0.00    +0.000 HD
ENDBRANCH   1  10
BRANCH   5  14
ATOM     14  C   UNL     1      46.084   8.864  12.313  0.00  0.00    +0.000 C 
BRANCH  14  15
ATOM     15  C   UNL     1      47.533   8.539  12.591  0.00  0.00    +0.000 A 
ATOM     16  C   UNL     1      48.542   9.111  11.806  0.00  0.00    +0.000 A 
ATOM     17  C   UNL     1      49.882   8.876  12.096  0.00  0.00    +0.000 A 
ATOM     18  C   UNL     1      50.231   8.089  13.194  0.00  0.00    +0.000 A 
ATOM     19  C   UNL     1      49.252   7.521  14.031  0.00  0.00    +0.000 A 
ATOM     20  C   UNL     1      47.902   7.729  13.683  0.00  0.00    +0.000 A 
BRANCH  19  21
ATOM     21  C   UNL     1      49.621   6.800  15.266  0.00  0.00    +0.000 A 
ATOM     22  C   UNL     1      50.840   7.008  15.917  0.00  0.00    +0.000 A 
ATOM     23  N   UNL     1      51.194   6.400  17.078  0.00  0.00    +0.000 NA
ATOM     24  C   UNL     1      50.269   5.560  17.583  0.00  0.00    +0.000 A 
ATOM     25  C   UNL     1      49.054   5.340  16.956  0.00  0.00    +0.000 A 
ATOM     26  N   UNL     1      48.699   5.953  15.799  0.00  0.00    +0.000 NA
ENDBRANCH  19  21
ENDBRANCH  14  15
ENDBRANCH   5  14
TORSDOF 4
ENDMDL
MODEL 9
REMARK VINA RESULT:    -6.411      2.589      7.411
REMARK INTER + INTRA:          -8.456
REMARK INTER:                  -8.589
REMARK INTRA:                   0.133
REMARK UNBOUND:                -0.546
REMARK  Name = 
REMARK  4 active torsions:
REMARK  status: ('A' for Active; 'I' for Inactive)
REMARK    1  A    between atoms: C_2  and  C_4
REMARK    2  A    between atoms: N_8  and  C_9
REMARK    3  A    between atoms: C_9  and  C_10
REMARK    4  A    between atoms: C_14  and  C_15
REMARK                            x       y       z     vdW  Elec       q    Type
REMARK                         _______ _______ _______ _____ _____    ______ ____
ROOT
ATOM      1  C   UNL     1      47.331   4.745  15.168  0.00  0.00    +0.000 A 
ATOM      2  C   UNL     1      46.076   4.413  14.672  0.00  0.00    +0.000 A 
ATOM      3  C   UNL     1      45.552   5.141  13.606  0.00  0.00    +0.000 A 
ATOM      4  C   UNL     1      46.284   6.183  13.048  0.00  0.00    +0.000 A 
ATOM      5  N   UNL     1      45.863   6.915  11.978  0.00  0.00    +0.000 N 
ATOM      6  N   UNL     1      47.491   6.531  13.542  0.00  0.00    +0.000 NA
ATOM      7  C   UNL     1      47.984   5.821  14.593  0.00  0.00    +0.000 A 
ATOM      8  H   UNL     1      46.505   7.646  11.702  0.00  0.00    +0.000 HD
ENDROOT
BRANCH   1  10
ATOM      9  N   UNL     1      47.721   4.469  17.542  0.00  0.00    +0.000 N 
ATOM     10  C   UNL     1      47.966   4.008  16.277  0.00  0.00    +0.000 C 
ATOM     11  O   UNL     1      48.647   3.012  16.081  0.00  0.00    +0.000 OA
ATOM     12  H   UNL     1      48.077   3.908  18.307  0.00  0.00    +0.000 HD
ATOM     13  H   UNL     1      46.976   5.119  17.748  0.00  0.00    +0.000 HD
ENDBRANCH   1  10
BRANCH   5  14
ATOM     14  C   UNL     1      44.681   6.678  11.188  0.00  0.00    +0.000 C 
BRANCH  14  15
ATOM     15  C   UNL     1      44.549   5.218  10.818  0.00  0.00    +0.000 A 
ATOM     16  C   UNL     1      43.552   4.433  11.410  0.00  0.00    +0.000 A 
ATOM     17  C   UNL     1      43.374   3.108  11.026  0.00  0.00    +0.000 A 
ATOM     18  C   UNL     1      44.173   2.560  10.021  0.00  0.00    +0.000 A 
ATOM     19  C   UNL     1      45.164   3.321   9.374  0.00  0.00    +0.000 A 
ATOM     20  C   UNL     1      45.361   4.644   9.820  0.00  0.00    +0.000 A 
BRANCH  19  21
ATOM     21  C   UNL     1      45.918   2.782   8.224  0.00  0.00    +0.000 A 
ATOM     22  C   UNL     1      46.255   3.567   7.117  0.00  0.00    +0.000 A 
ATOM     23  N   UNL     1      46.986   3.121   6.064  0.00  0.00    +0.000 NA
ATOM     24  C   UNL     1      47.385   1.837   6.155  0.00  0.00    +0.000 A 
ATOM     25  C   UNL     1      47.065   1.041   7.243  0.00  0.00    +0.000 A 
ATOM     26  N   UNL     1      46.339   1.491   8.297  0.00  0.00    +0.000 NA
ENDBRANCH  19  21
ENDBRANCH  14  15
ENDBRANCH   5  14
TORSDOF 4
ENDMDL
