MODEL 1
REMARK VINA RESULT:    -7.614      0.000      0.000
REMARK INTER + INTRA:         -10.542
REMARK INTER:                  -9.840
REMARK INTRA:                  -0.702
REMARK UNBOUND:                -0.702
REMARK  Name = 
REMARK  5 active torsions:
REMARK  status: ('A' for Active; 'I' for Inactive)
REMARK    1  A    between atoms: C_2  and  C_17
REMARK    2  A    between atoms: N_3  and  C_4
REMARK    3  A    between atoms: C_4  and  C_5
REMARK    4  A    between atoms: C_8  and  C_9
REMARK    5  A    between atoms: C_9  and  C_10
REMARK                            x       y       z     vdW  Elec       q    Type
REMARK                         _______ _______ _______ _____ _____    ______ ____
ROOT
ATOM      1  O   UNL     1      46.768   4.023  14.572  0.00  0.00    +0.000 OA
ATOM      2  C   UNL     1      46.787   5.191  14.202  0.00  0.00    +0.000 C 
ATOM      3  N   UNL     1      45.715   5.789  13.587  0.00  0.00    +0.000 N 
ATOM      4  H   UNL     1      45.845   6.681  13.119  0.00  0.00    +0.000 HD
ENDROOT
BRANCH   2   5
ATOM      5  C   UNL     1      47.950   6.059  14.438  0.00  0.00    +0.000 A 
ATOM      6  C   UNL     1      48.475   6.819  13.404  0.00  0.00    +0.000 A 
ATOM      7  S   UNL     1      49.849   7.724  13.856  0.00  0.00    +0.000 S 
ATOM      8  C   UNL     1      49.757   7.173  15.466  0.00  0.00    +0.000 A 
ATOM      9  N   UNL     1      50.644   7.589  16.403  0.00  0.00    +0.000 NA
ATOM     10  C   UNL     1      50.428   7.124  17.590  0.00  0.00    +0.000 A 
ATOM     11  N   UNL     1      49.405   6.279  17.919  0.00  0.00    +0.000 N 
ATOM     12  C   UNL     1      48.501   5.802  17.000  0.00  0.00    +0.000 A 
ATOM     13  O   UNL     1      47.623   5.011  17.321  0.00  0.00    +0.000 OA
ATOM     14  C   UNL     1      48.695   6.306  15.649  0.00  0.00    +0.000 A 
ATOM     15  H   UNL     1      49.291   5.941  18.866  0.00  0.00    +0.000 HD
ENDBRANCH   2   5
BRANCH   3  16
ATOM     16  C   UNL     1      44.566   5.026  13.179  0.00  0.00    +0.000 C 
BRANCH  16  17
ATOM     17  C   UNL     1      44.709   4.524  11.763  0.00  0.00    +0.000 A 
ATOM     18  C   UNL     1      45.037   5.405  10.725  0.00  0.00    +0.000 A 
ATOM     19  C   UNL     1      45.246   4.933   9.424  0.00  0.00    +0.000 A 
ATOM     20  C   UNL     1      45.115   3.570   9.130  0.00  0.00    +0.000 A 
ATOM     21  C   UNL     1      44.706   2.703  10.153  0.00  0.00    +0.000 A 
ATOM     22  C   UNL     1      44.502   3.174  11.455  0.00  0.00    +0.000 A 
BRANCH  20  23
ATOM     23  C   UNL     1      45.422   3.037   7.746  0.00  0.00    +0.000 C 
BRANCH  23  24
ATOM     24  C   UNL     1      46.906   3.156   7.340  0.00  0.00    +0.000 C 
ATOM     25  C   UNL     1      47.060   3.711   5.922  0.00  0.00    +0.000 C 
ATOM     26  C   UNL     1      47.351   2.499   5.061  0.00  0.00    +0.000 C 
ATOM     27  N   UNL     1      48.131   1.610   5.918  0.00  0.00    +0.000 NA
ATOM     28  C   UNL     1      47.649   1.816   7.292  0.00  0.00    +0.000 C 
ATOM     29  H   UNL     1      49.114   1.876   5.871  0.00  0.00    +0.000 HD
ENDBRANCH  23  24
ENDBRANCH  20  23
ENDBRANCH  16  17
ENDBRANCH   3  16
TORSDOF 5
ENDMDL
MODEL 2
REMARK VINA RESULT:    -7.392      1.749      2.298
REMARK INTER + INTRA:         -10.254
REMARK INTER:                  -9.529
REMARK INTRA:                  -0.725
REMARK UNBOUND:                -0.702
REMARK  Name = 
REMARK  5 active torsions:
REMARK  status: ('A' for Active; 'I' for Inactive)
REMARK    1  A    between atoms: C_2  and  C_17
REMARK    2  A    between atoms: N_3  and  C_4
REMARK    3  A    between atoms: C_4  and  C_5
REMARK    4  A    between atoms: C_8  and  C_9
REMARK    5  A    between atoms: C_9  and  C_10
REMARK                            x       y       z     vdW  Elec       q    Type
REMARK                         _______ _______ _______ _____ _____    ______ ____
ROOT
ATOM      1  O   UNL     1      48.399   7.196  12.859  0.00  0.00    +0.000 OA
ATOM      2  C   UNL     1      47.743   6.769  13.802  0.00  0.00    +0.000 C 
ATOM      3  N   UNL     1      46.384   6.584  13.733  0.00  0.00    +0.000 N 
ATOM      4  H   UNL     1      45.861   6.427  14.589  0.00  0.00    +0.000 HD
ENDROOT
BRANCH   2   5
ATOM      5  C   UNL     1      48.376   6.372  15.068  0.00  0.00    +0.000 A 
ATOM      6  C   UNL     1      49.339   7.181  15.651  0.00  0.00    +0.000 A 
ATOM      7  S   UNL     1      49.991   6.533  17.089  0.00  0.00    +0.000 S 
ATOM      8  C   UNL     1      48.969   5.173  17.010  0.00  0.00    +0.000 A 
ATOM      9  N   UNL     1      49.001   4.213  17.968  0.00  0.00    +0.000 NA
ATOM     10  C   UNL     1      48.140   3.262  17.803  0.00  0.00    +0.000 A 
ATOM     11  N   UNL     1      47.255   3.187  16.765  0.00  0.00    +0.000 N 
ATOM     12  C   UNL     1      47.204   4.115  15.753  0.00  0.00    +0.000 A 
ATOM     13  O   UNL     1      46.427   3.993  14.814  0.00  0.00    +0.000 OA
ATOM     14  C   UNL     1      48.147   5.214  15.899  0.00  0.00    +0.000 A 
ATOM     15  H   UNL     1      46.608   2.412  16.685  0.00  0.00    +0.000 HD
ENDBRANCH   2   5
BRANCH   3  16
ATOM     16  C   UNL     1      45.623   7.051  12.606  0.00  0.00    +0.000 C 
BRANCH  16  17
ATOM     17  C   UNL     1      45.450   5.970  11.567  0.00  0.00    +0.000 A 
ATOM     18  C   UNL     1      45.819   6.198  10.235  0.00  0.00    +0.000 A 
ATOM     19  C   UNL     1      45.734   5.175   9.284  0.00  0.00    +0.000 A 
ATOM     20  C   UNL     1      45.260   3.906   9.641  0.00  0.00    +0.000 A 
ATOM     21  C   UNL     1      44.814   3.706  10.954  0.00  0.00    +0.000 A 
ATOM     22  C   UNL     1      44.904   4.727  11.907  0.00  0.00    +0.000 A 
BRANCH  20  23
ATOM     23  C   UNL     1      45.244   2.770   8.640  0.00  0.00    +0.000 C 
BRANCH  23  24
ATOM     24  C   UNL     1      46.645   2.319   8.174  0.00  0.00    +0.000 C 
ATOM     25  C   UNL     1      47.158   3.179   7.016  0.00  0.00    +0.000 C 
ATOM     26  C   UNL     1      46.930   2.335   5.779  0.00  0.00    +0.000 C 
ATOM     27  N   UNL     1      47.137   0.958   6.220  0.00  0.00    +0.000 NA
ATOM     28  C   UNL     1      46.688   0.891   7.619  0.00  0.00    +0.000 C 
ATOM     29  H   UNL     1      48.132   0.740   6.183  0.00  0.00    +0.000 HD
ENDBRANCH  23  24
ENDBRANCH  20  23
ENDBRANCH  16  17
ENDBRANCH   3  16
TORSDOF 5
ENDMDL
MODEL 3
REMARK VINA RESULT:    -7.243      4.248      9.165
REMARK INTER + INTRA:         -10.062
REMARK INTER:                  -9.285
REMARK INTRA:                  -0.778
REMARK UNBOUND:                -0.702
REMARK  Name = 
REMARK  5 active torsions:
REMARK  status: ('A' for Active; 'I' for Inactive)
REMARK    1  A    between atoms: C_2  and  C_17
REMARK    2  A    between atoms: N_3  and  C_4
REMARK    3  A    between atoms: C_4  and  C_5
REMARK    4  A    between atoms: C_8  and  C_9
REMARK    5  A    between atoms: C_9  and  C_10
REMARK                            x       y       z     vdW  Elec       q    Type
REMARK                         _______ _______ _______ _____ _____    ______ ____
ROOT
ATOM      1  O   UNL     1      47.163   3.202  13.982  0.00  0.00    +0.000 OA
ATOM      2  C   UNL     1      46.716   4.258  14.412  0.00  0.00    +0.000 C 
ATOM      3  N   UNL     1      46.753   4.588  15.745  0.00  0.00    +0.000 N 
ATOM      4  H   UNL     1      46.195   5.368  16.079  0.00  0.00    +0.000 HD
ENDROOT
BRANCH   2   5
ATOM      5  C   UNL     1      46.150   5.280  13.520  0.00  0.00    +0.000 A 
ATOM      6  C   UNL     1      46.887   6.409  13.195  0.00  0.00    +0.000 A 
ATOM      7  S   UNL     1      46.048   7.501  12.188  0.00  0.00    +0.000 S 
ATOM      8  C   UNL     1      44.688   6.477  12.108  0.00  0.00    +0.000 A 
ATOM      9  N   UNL     1      43.597   6.813  11.377  0.00  0.00    +0.000 NA
ATOM     10  C   UNL     1      42.660   5.923  11.372  0.00  0.00    +0.000 A 
ATOM     11  N   UNL     1      42.718   4.730  12.036  0.00  0.00    +0.000 N 
ATOM     12  C   UNL     1      43.786   4.357  12.816  0.00  0.00    +0.000 A 
ATOM     13  O   UNL     1      43.787   3.298  13.433  0.00  0.00    +0.000 OA
ATOM     14  C   UNL     1      44.875   5.322  12.845  0.00  0.00    +0.000 A 
ATOM     15  H   UNL     1      41.948   4.074  12.001  0.00  0.00    +0.000 HD
ENDBRANCH   2   5
BRANCH   3  16
ATOM     16  C   UNL     1      47.158   3.632  16.740  0.00  0.00    +0.000 C 
BRANCH  16  17
ATOM     17  C   UNL     1      48.643   3.692  16.996  0.00  0.00    +0.000 A 
ATOM     18  C   UNL     1      49.292   4.927  17.133  0.00  0.00    +0.000 A 
ATOM     19  C   UNL     1      50.654   4.988  17.448  0.00  0.00    +0.000 A 
ATOM     20  C   UNL     1      51.402   3.816  17.613  0.00  0.00    +0.000 A 
ATOM     21  C   UNL     1      50.770   2.584  17.393  0.00  0.00    +0.000 A 
ATOM     22  C   UNL     1      49.406   2.523  17.084  0.00  0.00    +0.000 A 
BRANCH  20  23
ATOM     23  C   UNL     1      52.856   3.870  18.035  0.00  0.00    +0.000 C 
BRANCH  23  24
ATOM     24  C   UNL     1      53.292   2.703  18.947  0.00  0.00    +0.000 C 
ATOM     25  C   UNL     1      53.882   3.208  20.266  0.00  0.00    +0.000 C 
ATOM     26  C   UNL     1      55.382   3.084  20.090  0.00  0.00    +0.000 C 
ATOM     27  N   UNL     1      55.565   1.899  19.257  0.00  0.00    +0.000 NA
ATOM     28  C   UNL     1      54.406   1.832  18.356  0.00  0.00    +0.000 C 
ATOM     29  H   UNL     1      55.569   1.070  19.851  0.00  0.00    +0.000 HD
ENDBRANCH  23  24
ENDBRANCH  20  23
ENDBRANCH  16  17
ENDBRANCH   3  16
TORSDOF 5
ENDMDL
MODEL 4
REMARK VINA RESULT:    -7.123      1.678      2.238
REMARK INTER + INTRA:          -9.907
REMARK INTER:                  -9.463
REMARK INTRA:                  -0.444
REMARK UNBOUND:                -0.702
REMARK  Name = 
REMARK  5 active torsions:
REMARK  status: ('A' for Active; 'I' for Inactive)
REMARK    1  A    between atoms: C_2  and  C_17
REMARK    2  A    between atoms: N_3  and  C_4
REMARK    3  A    between atoms: C_4  and  C_5
REMARK    4  A    between atoms: C_8  and  C_9
REMARK    5  A    between atoms: C_9  and  C_10
REMARK                            x       y       z     vdW  Elec       q    Type
REMARK                         _______ _______ _______ _____ _____    ______ ____
ROOT
ATOM      1  O   UNL     1      47.361   6.199  13.629  0.00  0.00    +0.000 OA
ATOM      2  C   UNL     1      46.866   5.310  14.311  0.00  0.00    +0.000 C 
ATOM      3  N   UNL     1      45.632   4.771  14.040  0.00  0.00    +0.000 N 
ATOM      4  H   UNL     1      45.179   4.192  14.740  0.00  0.00    +0.000 HD
ENDROOT
BRANCH   2   5
ATOM      5  C   UNL     1      47.584   4.713  15.446  0.00  0.00    +0.000 A 
ATOM      6  C   UNL     1      47.533   3.345  15.664  0.00  0.00    +0.000 A 
ATOM      7  S   UNL     1      48.388   2.845  17.054  0.00  0.00    +0.000 S 
ATOM      8  C   UNL     1      48.902   4.437  17.382  0.00  0.00    +0.000 A 
ATOM      9  N   UNL     1      49.700   4.713  18.444  0.00  0.00    +0.000 NA
ATOM     10  C   UNL     1      50.048   5.954  18.546  0.00  0.00    +0.000 A 
ATOM     11  N   UNL     1      49.665   6.941  17.681  0.00  0.00    +0.000 N 
ATOM     12  C   UNL     1      48.832   6.719  16.610  0.00  0.00    +0.000 A 
ATOM     13  O   UNL     1      48.474   7.636  15.881  0.00  0.00    +0.000 OA
ATOM     14  C   UNL     1      48.422   5.333  16.445  0.00  0.00    +0.000 A 
ATOM     15  H   UNL     1      49.964   7.898  17.817  0.00  0.00    +0.000 HD
ENDBRANCH   2   5
BRANCH   3  16
ATOM     16  C   UNL     1      44.768   5.346  13.044  0.00  0.00    +0.000 C 
BRANCH  16  17
ATOM     17  C   UNL     1      45.053   4.785  11.673  0.00  0.00    +0.000 A 
ATOM     18  C   UNL     1      44.861   3.423  11.407  0.00  0.00    +0.000 A 
ATOM     19  C   UNL     1      45.049   2.912  10.118  0.00  0.00    +0.000 A 
ATOM     20  C   UNL     1      45.451   3.749   9.070  0.00  0.00    +0.000 A 
ATOM     21  C   UNL     1      45.722   5.094   9.357  0.00  0.00    +0.000 A 
ATOM     22  C   UNL     1      45.529   5.607  10.644  0.00  0.00    +0.000 A 
BRANCH  20  23
ATOM     23  C   UNL     1      45.574   3.223   7.655  0.00  0.00    +0.000 C 
BRANCH  23  24
ATOM     24  C   UNL     1      46.992   3.348   7.057  0.00  0.00    +0.000 C 
ATOM     25  C   UNL     1      46.948   3.641   5.556  0.00  0.00    +0.000 C 
ATOM     26  C   UNL     1      47.236   2.309   4.893  0.00  0.00    +0.000 C 
ATOM     27  N   UNL     1      48.170   1.637   5.792  0.00  0.00    +0.000 NA
ATOM     28  C   UNL     1      47.826   2.064   7.157  0.00  0.00    +0.000 C 
ATOM     29  H   UNL     1      49.119   1.944   5.581  0.00  0.00    +0.000 HD
ENDBRANCH  23  24
ENDBRANCH  20  23
ENDBRANCH  16  17
ENDBRANCH   3  16
TORSDOF 5
ENDMDL
MODEL 5
REMARK VINA RESULT:    -7.049      4.104      8.615
REMARK INTER + INTRA:          -9.811
REMARK INTER:                  -9.078
REMARK INTRA:                  -0.733
REMARK UNBOUND:                -0.702
REMARK  Name = 
REMARK  5 active torsions:
REMARK  status: ('A' for Active; 'I' for Inactive)
REMARK    1  A    between atoms: C_2  and  C_17
REMARK    2  A    between atoms: N_3  and  C_4
REMARK    3  A    between atoms: C_4  and  C_5
REMARK    4  A    between atoms: C_8  and  C_9
REMARK    5  A    between atoms: C_9  and  C_10
REMARK                            x       y       z     vdW  Elec       q    Type
REMARK                         _______ _______ _______ _____ _____    ______ ____
ROOT
ATOM      1  O   UNL     1      49.486   6.996  14.292  0.00  0.00    +0.000 OA
ATOM      2  C   UNL     1      48.370   6.578  14.577  0.00  0.00    +0.000 C 
ATOM      3  N   UNL     1      47.976   6.348  15.872  0.00  0.00    +0.000 N 
ATOM      4  H   UNL     1      47.130   5.815  16.047  0.00  0.00    +0.000 HD
ENDROOT
BRANCH   2   5
ATOM      5  C   UNL     1      47.347   6.338  13.550  0.00  0.00    +0.000 A 
ATOM      6  C   UNL     1      46.900   7.381  12.752  0.00  0.00    +0.000 A 
ATOM      7  S   UNL     1      45.680   6.921  11.651  0.00  0.00    +0.000 S 
ATOM      8  C   UNL     1      45.745   5.297  12.166  0.00  0.00    +0.000 A 
ATOM      9  N   UNL     1      44.954   4.350  11.604  0.00  0.00    +0.000 NA
ATOM     10  C   UNL     1      45.141   3.155  12.061  0.00  0.00    +0.000 A 
ATOM     11  N   UNL     1      46.046   2.828  13.033  0.00  0.00    +0.000 N 
ATOM     12  C   UNL     1      46.846   3.755  13.656  0.00  0.00    +0.000 A 
ATOM     13  O   UNL     1      47.615   3.433  14.553  0.00  0.00    +0.000 OA
ATOM     14  C   UNL     1      46.682   5.115  13.167  0.00  0.00    +0.000 A 
ATOM     15  H   UNL     1      46.141   1.873  13.356  0.00  0.00    +0.000 HD
ENDBRANCH   2   5
BRANCH   3  16
ATOM     16  C   UNL     1      48.913   6.416  16.962  0.00  0.00    +0.000 C 
BRANCH  16  17
ATOM     17  C   UNL     1      49.614   5.097  17.173  0.00  0.00    +0.000 A 
ATOM     18  C   UNL     1      48.879   3.909  17.271  0.00  0.00    +0.000 A 
ATOM     19  C   UNL     1      49.527   2.674  17.389  0.00  0.00    +0.000 A 
ATOM     20  C   UNL     1      50.925   2.603  17.430  0.00  0.00    +0.000 A 
ATOM     21  C   UNL     1      51.655   3.800  17.414  0.00  0.00    +0.000 A 
ATOM     22  C   UNL     1      51.007   5.034  17.291  0.00  0.00    +0.000 A 
BRANCH  20  23
ATOM     23  C   UNL     1      51.638   1.267  17.472  0.00  0.00    +0.000 C 
BRANCH  23  24
ATOM     24  C   UNL     1      53.178   1.375  17.507  0.00  0.00    +0.000 C 
ATOM     25  C   UNL     1      53.845   0.077  17.046  0.00  0.00    +0.000 C 
ATOM     26  C   UNL     1      54.278  -0.610  18.325  0.00  0.00    +0.000 C 
ATOM     27  N   UNL     1      54.639   0.477  19.231  0.00  0.00    +0.000 NA
ATOM     28  C   UNL     1      53.755   1.607  18.908  0.00  0.00    +0.000 C 
ATOM     29  H   UNL     1      55.604   0.754  19.055  0.00  0.00    +0.000 HD
ENDBRANCH  23  24
ENDBRANCH  20  23
ENDBRANCH  16  17
ENDBRANCH   3  16
TORSDOF 5
ENDMDL
MODEL 6
REMARK VINA RESULT:    -6.902      2.045      2.710
REMARK INTER + INTRA:          -9.621
REMARK INTER:                  -8.877
REMARK INTRA:                  -0.744
REMARK UNBOUND:                -0.702
REMARK  Name = 
REMARK  5 active torsions:
REMARK  status: ('A' for Active; 'I' for Inactive)
REMARK    1  A    between atoms: C_2  and  C_17
REMARK    2  A    between atoms: N_3  and  C_4
REMARK    3  A    between atoms: C_4  and  C_5
REMARK    4  A    between atoms: C_8  and  C_9
REMARK    5  A    between atoms: C_9  and  C_10
REMARK                            x       y       z     vdW  Elec       q    Type
REMARK                         _______ _______ _______ _____ _____    ______ ____
ROOT
ATOM      1  O   UNL     1      46.465   8.021  13.167  0.00  0.00    +0.000 OA
ATOM      2  C   UNL     1      47.041   7.063  13.668  0.00  0.00    +0.000 C 
ATOM      3  N   UNL     1      46.520   5.793  13.645  0.00  0.00    +0.000 N 
ATOM      4  H   UNL     1      46.925   5.079  14.243  0.00  0.00    +0.000 HD
ENDROOT
BRANCH   2   5
ATOM      5  C   UNL     1      48.366   7.196  14.291  0.00  0.00    +0.000 A 
ATOM      6  C   UNL     1      48.563   6.800  15.605  0.00  0.00    +0.000 A 
ATOM      7  S   UNL     1      50.151   7.073  16.167  0.00  0.00    +0.000 S 
ATOM      8  C   UNL     1      50.646   7.681  14.653  0.00  0.00    +0.000 A 
ATOM      9  N   UNL     1      51.923   8.085  14.441  0.00  0.00    +0.000 NA
ATOM     10  C   UNL     1      52.167   8.481  13.235  0.00  0.00    +0.000 A 
ATOM     11  N   UNL     1      51.245   8.511  12.226  0.00  0.00    +0.000 N 
ATOM     12  C   UNL     1      49.932   8.144  12.397  0.00  0.00    +0.000 A 
ATOM     13  O   UNL     1      49.122   8.225  11.482  0.00  0.00    +0.000 OA
ATOM     14  C   UNL     1      49.609   7.678  13.737  0.00  0.00    +0.000 A 
ATOM     15  H   UNL     1      51.494   8.840  11.301  0.00  0.00    +0.000 HD
ENDBRANCH   2   5
BRANCH   3  16
ATOM     16  C   UNL     1      45.180   5.544  13.187  0.00  0.00    +0.000 C 
BRANCH  16  17
ATOM     17  C   UNL     1      45.169   4.952  11.799  0.00  0.00    +0.000 A 
ATOM     18  C   UNL     1      45.548   5.725  10.694  0.00  0.00    +0.000 A 
ATOM     19  C   UNL     1      45.615   5.160   9.415  0.00  0.00    +0.000 A 
ATOM     20  C   UNL     1      45.287   3.813   9.211  0.00  0.00    +0.000 A 
ATOM     21  C   UNL     1      44.830   3.065  10.305  0.00  0.00    +0.000 A 
ATOM     22  C   UNL     1      44.768   3.629  11.584  0.00  0.00    +0.000 A 
BRANCH  20  23
ATOM     23  C   UNL     1      45.437   3.171   7.848  0.00  0.00    +0.000 C 
BRANCH  23  24
ATOM     24  C   UNL     1      46.889   3.139   7.323  0.00  0.00    +0.000 C 
ATOM     25  C   UNL     1      46.977   3.637   5.878  0.00  0.00    +0.000 C 
ATOM     26  C   UNL     1      47.085   2.379   5.041  0.00  0.00    +0.000 C 
ATOM     27  N   UNL     1      47.848   1.445   5.865  0.00  0.00    +0.000 NA
ATOM     28  C   UNL     1      47.500   1.734   7.264  0.00  0.00    +0.000 C 
ATOM     29  H   UNL     1      48.844   1.617   5.732  0.00  0.00    +0.000 HD
ENDBRANCH  23  24
ENDBRANCH  20  23
ENDBRANCH  16  17
ENDBRANCH   3  16
TORSDOF 5
ENDMDL
MODEL 7
REMARK VINA RESULT:    -6.693      3.242      4.654
REMARK INTER + INTRA:          -9.351
REMARK INTER:                  -8.511
REMARK INTRA:                  -0.840
REMARK UNBOUND:                -0.702
REMARK  Name = 
REMARK  5 active torsions:
REMARK  status: ('A' for Active; 'I' for Inactive)
REMARK    1  A    between atoms: C_2  and  C_17
REMARK    2  A    between atoms: N_3  and  C_4
REMARK    3  A    between atoms: C_4  and  C_5
REMARK    4  A    between atoms: C_8  and  C_9
REMARK    5  A    between atoms: C_9  and  C_10
REMARK                            x       y       z     vdW  Elec       q    Type
REMARK                         _______ _______ _______ _____ _____    ______ ____
ROOT
ATOM      1  O   UNL     1      48.561   8.627  15.474  0.00  0.00    +0.000 OA
ATOM      2  C   UNL     1      48.872   7.464  15.245  0.00  0.00    +0.000 C 
ATOM      3  N   UNL     1      49.013   6.975  13.970  0.00  0.00    +0.000 N 
ATOM      4  H   UNL     1      49.068   5.971  13.826  0.00  0.00    +0.000 HD
ENDROOT
BRANCH   2   5
ATOM      5  C   UNL     1      49.171   6.515  16.326  0.00  0.00    +0.000 A 
ATOM      6  C   UNL     1      50.150   6.809  17.263  0.00  0.00    +0.000 A 
ATOM      7  S   UNL     1      50.386   5.568  18.412  0.00  0.00    +0.000 S 
ATOM      8  C   UNL     1      49.149   4.617  17.726  0.00  0.00    +0.000 A 
ATOM      9  N   UNL     1      48.816   3.412  18.253  0.00  0.00    +0.000 NA
ATOM     10  C   UNL     1      47.832   2.820  17.658  0.00  0.00    +0.000 A 
ATOM     11  N   UNL     1      47.156   3.328  16.584  0.00  0.00    +0.000 N 
ATOM     12  C   UNL     1      47.475   4.527  15.994  0.00  0.00    +0.000 A 
ATOM     13  O   UNL     1      46.876   4.931  15.005  0.00  0.00    +0.000 OA
ATOM     14  C   UNL     1      48.571   5.238  16.635  0.00  0.00    +0.000 A 
ATOM     15  H   UNL     1      46.396   2.814  16.155  0.00  0.00    +0.000 HD
ENDBRANCH   2   5
BRANCH   3  16
ATOM     16  C   UNL     1      48.627   7.754  12.824  0.00  0.00    +0.000 C 
BRANCH  16  17
ATOM     17  C   UNL     1      47.247   7.385  12.341  0.00  0.00    +0.000 A 
ATOM     18  C   UNL     1      47.081   6.588  11.201  0.00  0.00    +0.000 A 
ATOM     19  C   UNL     1      45.806   6.177  10.793  0.00  0.00    +0.000 A 
ATOM     20  C   UNL     1      44.668   6.572  11.507  0.00  0.00    +0.000 A 
ATOM     21  C   UNL     1      44.831   7.437  12.598  0.00  0.00    +0.000 A 
ATOM     22  C   UNL     1      46.105   7.842  13.009  0.00  0.00    +0.000 A 
BRANCH  20  23
ATOM     23  C   UNL     1      43.293   6.065  11.125  0.00  0.00    +0.000 C 
BRANCH  23  24
ATOM     24  C   UNL     1      43.025   4.600  11.533  0.00  0.00    +0.000 C 
ATOM     25  C   UNL     1      43.612   4.282  12.910  0.00  0.00    +0.000 C 
ATOM     26  C   UNL     1      44.895   3.530  12.618  0.00  0.00    +0.000 C 
ATOM     27  N   UNL     1      44.613   2.764  11.407  0.00  0.00    +0.000 NA
ATOM     28  C   UNL     1      43.676   3.566  10.607  0.00  0.00    +0.000 C 
ATOM     29  H   UNL     1      44.160   1.887  11.663  0.00  0.00    +0.000 HD
ENDBRANCH  23  24
ENDBRANCH  20  23
ENDBRANCH  16  17
ENDBRANCH   3  16
TORSDOF 5
ENDMDL
MODEL 8
REMARK VINA RESULT:    -6.665      4.255      7.606
REMARK INTER + INTRA:          -9.314
REMARK INTER:                  -8.416
REMARK INTRA:                  -0.898
REMARK UNBOUND:                -0.702
REMARK  Name = 
REMARK  5 active torsions:
REMARK  status: ('A' for Active; 'I' for Inactive)
REMARK    1  A    between atoms: C_2  and  C_17
REMARK    2  A    between atoms: N_3  and  C_4
REMARK    3  A    between atoms: C_4  and  C_5
REMARK    4  A    between atoms: C_8  and  C_9
REMARK    5  A    between atoms: C_9  and  C_10
REMARK                            x       y       z     vdW  Elec       q    Type
REMARK                         _______ _______ _______ _____ _____    ______ ____
ROOT
ATOM      1  O   UNL     1      44.151   7.559  11.288  0.00  0.00    +0.000 OA
ATOM      2  C   UNL     1      44.771   6.620  11.772  0.00  0.00    +0.000 C 
ATOM      3  N   UNL     1      45.782   6.795  12.685  0.00  0.00    +0.000 N 
ATOM      4  H   UNL     1      46.397   6.016  12.900  0.00  0.00    +0.000 HD
ENDROOT
BRANCH   2   5
ATOM      5  C   UNL     1      44.443   5.225  11.446  0.00  0.00    +0.000 A 
ATOM      6  C   UNL     1      43.629   4.485  12.290  0.00  0.00    +0.000 A 
ATOM      7  S   UNL     1      43.398   2.875  11.772  0.00  0.00    +0.000 S 
ATOM      8  C   UNL     1      44.336   3.128  10.372  0.00  0.00    +0.000 A 
ATOM      9  N   UNL     1      44.528   2.138   9.466  0.00  0.00    +0.000 NA
ATOM     10  C   UNL     1      45.223   2.483   8.432  0.00  0.00    +0.000 A 
ATOM     11  N   UNL     1      45.744   3.731   8.228  0.00  0.00    +0.000 N 
ATOM     12  C   UNL     1      45.606   4.758   9.130  0.00  0.00    +0.000 A 
ATOM     13  O   UNL     1      46.123   5.852   8.936  0.00  0.00    +0.000 OA
ATOM     14  C   UNL     1      44.820   4.422  10.307  0.00  0.00    +0.000 A 
ATOM     15  H   UNL     1      46.288   3.941   7.400  0.00  0.00    +0.000 HD
ENDBRANCH   2   5
BRANCH   3  16
ATOM     16  C   UNL     1      46.292   8.104  12.993  0.00  0.00    +0.000 C 
BRANCH  16  17
ATOM     17  C   UNL     1      47.700   8.285  12.482  0.00  0.00    +0.000 A 
ATOM     18  C   UNL     1      48.593   7.206  12.462  0.00  0.00    +0.000 A 
ATOM     19  C   UNL     1      49.875   7.348  11.916  0.00  0.00    +0.000 A 
ATOM     20  C   UNL     1      50.297   8.578  11.396  0.00  0.00    +0.000 A 
ATOM     21  C   UNL     1      49.430   9.676  11.493  0.00  0.00    +0.000 A 
ATOM     22  C   UNL     1      48.147   9.532  12.033  0.00  0.00    +0.000 A 
BRANCH  20  23
ATOM     23  C   UNL     1      51.649   8.721  10.728  0.00  0.00    +0.000 C 
BRANCH  23  24
ATOM     24  C   UNL     1      52.340   7.377  10.411  0.00  0.00    +0.000 C 
ATOM     25  C   UNL     1      53.795   7.366  10.883  0.00  0.00    +0.000 C 
ATOM     26  C   UNL     1      54.611   7.608   9.630  0.00  0.00    +0.000 C 
ATOM     27  N   UNL     1      53.861   6.951   8.562  0.00  0.00    +0.000 NA
ATOM     28  C   UNL     1      52.438   7.066   8.913  0.00  0.00    +0.000 C 
ATOM     29  H   UNL     1      54.114   5.963   8.534  0.00  0.00    +0.000 HD
ENDBRANCH  23  24
ENDBRANCH  20  23
ENDBRANCH  16  17
ENDBRANCH   3  16
TORSDOF 5
ENDMDL
MODEL 9
REMARK VINA RESULT:    -6.543      3.347      9.078
REMARK INTER + INTRA:          -9.158
REMARK INTER:                  -8.337
REMARK INTRA:                  -0.821
REMARK UNBOUND:                -0.702
REMARK  Name = 
REMARK  5 active torsions:
REMARK  status: ('A' for Active; 'I' for Inactive)
REMARK    1  A    between atoms: C_2  and  C_17
REMARK    2  A    between atoms: N_3  and  C_4
REMARK    3  A    between atoms: C_4  and  C_5
REMARK    4  A    between atoms: C_8  and  C_9
REMARK    5  A    between atoms: C_9  and  C_10
REMARK                            x       y       z     vdW  Elec       q    Type
REMARK                         _______ _______ _______ _____ _____    ______ ____
ROOT
ATOM      1  O   UNL     1      45.457   7.873  11.761  0.00  0.00    +0.000 OA
ATOM      2  C   UNL     1      46.163   6.911  11.483  0.00  0.00    +0.000 C 
ATOM      3  N   UNL     1      47.492   6.847  11.823  0.00  0.00    +0.000 N 
ATOM      4  H   UNL     1      48.080   6.135  11.399  0.00  0.00    +0.000 HD
ENDROOT
BRANCH   2   5
ATOM      5  C   UNL     1      45.623   5.723  10.808  0.00  0.00    +0.000 A 
ATOM      6  C   UNL     1      45.874   5.511   9.460  0.00  0.00    +0.000 A 
ATOM      7  S   UNL     1      45.126   4.107   8.842  0.00  0.00    +0.000 S 
ATOM      8  C   UNL     1      44.483   3.705  10.368  0.00  0.00    +0.000 A 
ATOM      9  N   UNL     1      43.741   2.584  10.545  0.00  0.00    +0.000 NA
ATOM     10  C   UNL     1      43.356   2.382  11.763  0.00  0.00    +0.000 A 
ATOM     11  N   UNL     1      43.646   3.204  12.816  0.00  0.00    +0.000 N 
ATOM     12  C   UNL     1      44.366   4.367  12.683  0.00  0.00    +0.000 A 
ATOM     13  O   UNL     1      44.570   5.103  13.641  0.00  0.00    +0.000 OA
ATOM     14  C   UNL     1      44.833   4.634  11.331  0.00  0.00    +0.000 A 
ATOM     15  H   UNL     1      43.310   2.997  13.748  0.00  0.00    +0.000 HD
ENDBRANCH   2   5
BRANCH   3  16
ATOM     16  C   UNL     1      48.180   7.987  12.368  0.00  0.00    +0.000 C 
BRANCH  16  17
ATOM     17  C   UNL     1      48.299   7.897  13.869  0.00  0.00    +0.000 A 
ATOM     18  C   UNL     1      48.564   6.669  14.489  0.00  0.00    +0.000 A 
ATOM     19  C   UNL     1      48.754   6.593  15.874  0.00  0.00    +0.000 A 
ATOM     20  C   UNL     1      48.663   7.741  16.671  0.00  0.00    +0.000 A 
ATOM     21  C   UNL     1      48.316   8.953  16.058  0.00  0.00    +0.000 A 
ATOM     22  C   UNL     1      48.132   9.030  14.673  0.00  0.00    +0.000 A 
BRANCH  20  23
ATOM     23  C   UNL     1      48.949   7.684  18.157  0.00  0.00    +0.000 C 
BRANCH  23  24
ATOM     24  C   UNL     1      47.697   7.464  19.033  0.00  0.00    +0.000 C 
ATOM     25  C   UNL     1      47.984   7.745  20.509  0.00  0.00    +0.000 C 
ATOM     26  C   UNL     1      48.155   6.377  21.138  0.00  0.00    +0.000 C 
ATOM     27  N   UNL     1      47.234   5.511  20.406  0.00  0.00    +0.000 NA
ATOM     28  C   UNL     1      47.179   6.021  19.028  0.00  0.00    +0.000 C 
ATOM     29  H   UNL     1      46.305   5.583  20.821  0.00  0.00    +0.000 HD
ENDBRANCH  23  24
ENDBRANCH  20  23
ENDBRANCH  16  17
ENDBRANCH   3  16
TORSDOF 5
ENDMDL
