MODEL 1
REMARK VINA RESULT:    -7.779      0.000      0.000
REMARK INTER + INTRA:         -10.889
REMARK INTER:                 -10.280
REMARK INTRA:                  -0.609
REMARK UNBOUND:                -0.609
REMARK  Name = 
REMARK  6 active torsions:
REMARK  status: ('A' for Active; 'I' for Inactive)
REMARK    1  A    between atoms: N_1  and  C_2
REMARK    2  A    between atoms: C_2  and  C_3
REMARK    3  A    between atoms: C_7  and  O_8
REMARK    4  A    between atoms: O_8  and  C_9
REMARK    5  A    between atoms: C_9  and  C_10
REMARK    6  A    between atoms: C_13  and  C_14
REMARK                            x       y       z     vdW  Elec       q    Type
REMARK                         _______ _______ _______ _____ _____    ______ ____
ROOT
ATOM      1  C   UNL     1      43.772   4.829  10.013  0.00  0.00    +0.000 C 
ENDROOT
BRANCH   1   2
ATOM      2  C   UNL     1      44.657   3.849   9.292  0.00  0.00    +0.000 A 
ATOM      3  C   UNL     1      45.572   4.271   8.321  0.00  0.00    +0.000 A 
ATOM      4  C   UNL     1      46.366   3.335   7.664  0.00  0.00    +0.000 A 
ATOM      5  C   UNL     1      46.215   1.997   8.002  0.00  0.00    +0.000 A 
ATOM      6  N   UNL     1      45.331   1.544   8.936  0.00  0.00    +0.000 NA
ATOM      7  C   UNL     1      44.580   2.483   9.555  0.00  0.00    +0.000 A 
BRANCH   5   8
ATOM      8  C   UNL     1      47.060   0.959   7.329  0.00  0.00    +0.000 C 
ATOM      9  N   UNL     1      46.758  -0.336   7.648  0.00  0.00    +0.000 N 
ATOM     10  O   UNL     1      47.961   1.240   6.549  0.00  0.00    +0.000 OA
ATOM     11  H   UNL     1      46.014  -0.524   8.311  0.00  0.00    +0.000 HD
ATOM     12  H   UNL     1      47.297  -1.090   7.250  0.00  0.00    +0.000 HD
ENDBRANCH   5   8
ENDBRANCH   1   2
BRANCH   1  13
ATOM     13  O   UNL     1      43.968   4.682  11.419  0.00  0.00    +0.000 OA
BRANCH  13  18
ATOM     14  C   UNL     1      46.697   5.169  13.784  0.00  0.00    +0.000 A 
ATOM     15  C   UNL     1      47.376   6.257  13.220  0.00  0.00    +0.000 A 
ATOM     16  C   UNL     1      46.917   6.847  12.044  0.00  0.00    +0.000 A 
ATOM     17  C   UNL     1      45.777   6.352  11.407  0.00  0.00    +0.000 A 
ATOM     18  C   UNL     1      45.089   5.264  11.947  0.00  0.00    +0.000 A 
ATOM     19  C   UNL     1      45.550   4.683  13.135  0.00  0.00    +0.000 A 
BRANCH  14  20
ATOM     20  C   UNL     1      47.213   4.508  15.037  0.00  0.00    +0.000 C 
BRANCH  20  21
ATOM     21  N   UNL     1      47.578   3.114  14.805  0.00  0.00    +0.000 NA
ATOM     22  H   UNL     1      47.072   2.526  15.462  0.00  0.00    +0.000 HD
ATOM     23  H   UNL     1      48.568   2.998  15.017  0.00  0.00    +0.000 HD
ENDBRANCH  20  21
ENDBRANCH  14  20
ENDBRANCH  13  18
ENDBRANCH   1  13
TORSDOF 6
ENDMDL
MODEL 2
REMARK VINA RESULT:    -7.510      1.683      2.178
REMARK INTER + INTRA:         -10.533
REMARK INTER:                  -9.895
REMARK INTRA:                  -0.639
REMARK UNBOUND:                -0.609
REMARK  Name = 
REMARK  6 active torsions:
REMARK  status: ('A' for Active; 'I' for Inactive)
REMARK    1  A    between atoms: N_1  and  C_2
REMARK    2  A    between atoms: C_2  and  C_3
REMARK    3  A    between atoms: C_7  and  O_8
REMARK    4  A    between atoms: O_8  and  C_9
REMARK    5  A    between atoms: C_9  and  C_10
REMARK    6  A    between atoms: C_13  and  C_14
REMARK                            x       y       z     vdW  Elec       q    Type
REMARK                         _______ _______ _______ _____ _____    ______ ____
ROOT
ATOM      1  C   UNL     1      43.766   4.555  10.284  0.00  0.00    +0.000 C 
ENDROOT
BRANCH   1   2
ATOM      2  C   UNL     1      44.715   3.784   9.407  0.00  0.00    +0.000 A 
ATOM      3  C   UNL     1      45.520   4.429   8.460  0.00  0.00    +0.000 A 
ATOM      4  C   UNL     1      46.377   3.683   7.657  0.00  0.00    +0.000 A 
ATOM      5  C   UNL     1      46.398   2.305   7.826  0.00  0.00    +0.000 A 
ATOM      6  N   UNL     1      45.627   1.638   8.730  0.00  0.00    +0.000 NA
ATOM      7  C   UNL     1      44.810   2.397   9.495  0.00  0.00    +0.000 A 
BRANCH   5   8
ATOM      8  C   UNL     1      47.318   1.467   6.990  0.00  0.00    +0.000 C 
ATOM      9  N   UNL     1      48.409   2.122   6.488  0.00  0.00    +0.000 N 
ATOM     10  O   UNL     1      47.115   0.281   6.765  0.00  0.00    +0.000 OA
ATOM     11  H   UNL     1      48.530   3.110   6.687  0.00  0.00    +0.000 HD
ATOM     12  H   UNL     1      49.063   1.629   5.900  0.00  0.00    +0.000 HD
ENDBRANCH   5   8
ENDBRANCH   1   2
BRANCH   1  13
ATOM     13  O   UNL     1      43.947   4.140  11.638  0.00  0.00    +0.000 OA
BRANCH  13  18
ATOM     14  C   UNL     1      46.179   6.744  12.868  0.00  0.00    +0.000 A 
ATOM     15  C   UNL     1      47.117   5.999  13.595  0.00  0.00    +0.000 A 
ATOM     16  C   UNL     1      47.016   4.611  13.671  0.00  0.00    +0.000 A 
ATOM     17  C   UNL     1      45.969   3.947  13.028  0.00  0.00    +0.000 A 
ATOM     18  C   UNL     1      45.020   4.669  12.304  0.00  0.00    +0.000 A 
ATOM     19  C   UNL     1      45.134   6.063  12.224  0.00  0.00    +0.000 A 
BRANCH  14  20
ATOM     20  C   UNL     1      46.269   8.248  12.815  0.00  0.00    +0.000 C 
BRANCH  20  21
ATOM     21  N   UNL     1      46.732   8.809  14.081  0.00  0.00    +0.000 NA
ATOM     22  H   UNL     1      47.711   8.567  14.211  0.00  0.00    +0.000 HD
ATOM     23  H   UNL     1      46.221   8.361  14.841  0.00  0.00    +0.000 HD
ENDBRANCH  20  21
ENDBRANCH  14  20
ENDBRANCH  13  18
ENDBRANCH   1  13
TORSDOF 6
ENDMDL
MODEL 3
REMARK VINA RESULT:    -7.380      1.724      6.115
REMARK INTER + INTRA:         -10.362
REMARK INTER:                  -9.893
REMARK INTRA:                  -0.469
REMARK UNBOUND:                -0.609
REMARK  Name = 
REMARK  6 active torsions:
REMARK  status: ('A' for Active; 'I' for Inactive)
REMARK    1  A    between atoms: N_1  and  C_2
REMARK    2  A    between atoms: C_2  and  C_3
REMARK    3  A    between atoms: C_7  and  O_8
REMARK    4  A    between atoms: O_8  and  C_9
REMARK    5  A    between atoms: C_9  and  C_10
REMARK    6  A    between atoms: C_13  and  C_14
REMARK                            x       y       z     vdW  Elec       q    Type
REMARK                         _______ _______ _______ _____ _____    ______ ____
ROOT
ATOM      1  C   UNL     1      43.799   4.324  10.476  0.00  0.00    +0.000 C 
ENDROOT
BRANCH   1   2
ATOM      2  C   UNL     1      44.713   4.424  11.667  0.00  0.00    +0.000 A 
ATOM      3  C   UNL     1      45.148   5.664  12.150  0.00  0.00    +0.000 A 
ATOM      4  C   UNL     1      46.004   5.718  13.245  0.00  0.00    +0.000 A 
ATOM      5  C   UNL     1      46.404   4.521  13.824  0.00  0.00    +0.000 A 
ATOM      6  N   UNL     1      46.011   3.294  13.380  0.00  0.00    +0.000 NA
ATOM      7  C   UNL     1      45.175   3.282  12.316  0.00  0.00    +0.000 A 
BRANCH   5   8
ATOM      8  C   UNL     1      47.314   4.538  15.014  0.00  0.00    +0.000 C 
ATOM      9  N   UNL     1      47.174   3.480  15.870  0.00  0.00    +0.000 N 
ATOM     10  O   UNL     1      48.128   5.430  15.216  0.00  0.00    +0.000 OA
ATOM     11  H   UNL     1      46.477   2.770  15.672  0.00  0.00    +0.000 HD
ATOM     12  H   UNL     1      47.739   3.431  16.704  0.00  0.00    +0.000 HD
ENDBRANCH   5   8
ENDBRANCH   1   2
BRANCH   1  13
ATOM     13  O   UNL     1      44.104   3.128   9.758  0.00  0.00    +0.000 OA
BRANCH  13  18
ATOM     14  C   UNL     1      46.684   1.893   7.500  0.00  0.00    +0.000 A 
ATOM     15  C   UNL     1      47.190   3.084   6.961  0.00  0.00    +0.000 A 
ATOM     16  C   UNL     1      46.676   4.317   7.360  0.00  0.00    +0.000 A 
ATOM     17  C   UNL     1      45.642   4.378   8.297  0.00  0.00    +0.000 A 
ATOM     18  C   UNL     1      45.119   3.205   8.841  0.00  0.00    +0.000 A 
ATOM     19  C   UNL     1      45.647   1.970   8.443  0.00  0.00    +0.000 A 
BRANCH  14  20
ATOM     20  C   UNL     1      47.216   0.559   7.043  0.00  0.00    +0.000 C 
BRANCH  20  21
ATOM     21  N   UNL     1      46.751  -0.531   7.895  0.00  0.00    +0.000 NA
ATOM     22  H   UNL     1      45.734  -0.528   7.911  0.00  0.00    +0.000 HD
ATOM     23  H   UNL     1      47.055  -0.350   8.850  0.00  0.00    +0.000 HD
ENDBRANCH  20  21
ENDBRANCH  14  20
ENDBRANCH  13  18
ENDBRANCH   1  13
TORSDOF 6
ENDMDL
MODEL 4
REMARK VINA RESULT:    -7.133      1.698      2.089
REMARK INTER + INTRA:         -10.035
REMARK INTER:                  -9.457
REMARK INTRA:                  -0.578
REMARK UNBOUND:                -0.609
REMARK  Name = 
REMARK  6 active torsions:
REMARK  status: ('A' for Active; 'I' for Inactive)
REMARK    1  A    between atoms: N_1  and  C_2
REMARK    2  A    between atoms: C_2  and  C_3
REMARK    3  A    between atoms: C_7  and  O_8
REMARK    4  A    between atoms: O_8  and  C_9
REMARK    5  A    between atoms: C_9  and  C_10
REMARK    6  A    between atoms: C_13  and  C_14
REMARK                            x       y       z     vdW  Elec       q    Type
REMARK                         _______ _______ _______ _____ _____    ______ ____
ROOT
ATOM      1  C   UNL     1      43.783   4.640  10.246  0.00  0.00    +0.000 C 
ENDROOT
BRANCH   1   2
ATOM      2  C   UNL     1      44.717   3.864   9.357  0.00  0.00    +0.000 A 
ATOM      3  C   UNL     1      44.805   2.470   9.433  0.00  0.00    +0.000 A 
ATOM      4  C   UNL     1      45.690   1.786   8.605  0.00  0.00    +0.000 A 
ATOM      5  C   UNL     1      46.466   2.526   7.723  0.00  0.00    +0.000 A 
ATOM      6  N   UNL     1      46.416   3.885   7.623  0.00  0.00    +0.000 NA
ATOM      7  C   UNL     1      45.542   4.513   8.441  0.00  0.00    +0.000 A 
BRANCH   5   8
ATOM      8  C   UNL     1      47.421   1.827   6.804  0.00  0.00    +0.000 C 
ATOM      9  N   UNL     1      48.481   2.581   6.381  0.00  0.00    +0.000 N 
ATOM     10  O   UNL     1      47.271   0.664   6.450  0.00  0.00    +0.000 OA
ATOM     11  H   UNL     1      48.558   3.545   6.686  0.00  0.00    +0.000 HD
ATOM     12  H   UNL     1      49.155   2.185   5.744  0.00  0.00    +0.000 HD
ENDBRANCH   5   8
ENDBRANCH   1   2
BRANCH   1  13
ATOM     13  O   UNL     1      44.392   4.803  11.527  0.00  0.00    +0.000 OA
BRANCH  13  18
ATOM     14  C   UNL     1      47.163   6.965  12.489  0.00  0.00    +0.000 A 
ATOM     15  C   UNL     1      46.628   8.240  12.261  0.00  0.00    +0.000 A 
ATOM     16  C   UNL     1      45.324   8.387  11.791  0.00  0.00    +0.000 A 
ATOM     17  C   UNL     1      44.538   7.261  11.533  0.00  0.00    +0.000 A 
ATOM     18  C   UNL     1      45.054   5.982  11.747  0.00  0.00    +0.000 A 
ATOM     19  C   UNL     1      46.361   5.842  12.229  0.00  0.00    +0.000 A 
BRANCH  14  20
ATOM     20  C   UNL     1      48.585   6.805  12.964  0.00  0.00    +0.000 C 
BRANCH  20  21
ATOM     21  N   UNL     1      48.650   6.203  14.292  0.00  0.00    +0.000 NA
ATOM     22  H   UNL     1      47.971   5.448  14.347  0.00  0.00    +0.000 HD
ATOM     23  H   UNL     1      48.363   6.900  14.979  0.00  0.00    +0.000 HD
ENDBRANCH  20  21
ENDBRANCH  14  20
ENDBRANCH  13  18
ENDBRANCH   1  13
TORSDOF 6
ENDMDL
MODEL 5
REMARK VINA RESULT:    -7.086      2.228      6.362
REMARK INTER + INTRA:          -9.973
REMARK INTER:                  -9.299
REMARK INTRA:                  -0.674
REMARK UNBOUND:                -0.609
REMARK  Name = 
REMARK  6 active torsions:
REMARK  status: ('A' for Active; 'I' for Inactive)
REMARK    1  A    between atoms: N_1  and  C_2
REMARK    2  A    between atoms: C_2  and  C_3
REMARK    3  A    between atoms: C_7  and  O_8
REMARK    4  A    between atoms: O_8  and  C_9
REMARK    5  A    between atoms: C_9  and  C_10
REMARK    6  A    between atoms: C_13  and  C_14
REMARK                            x       y       z     vdW  Elec       q    Type
REMARK                         _______ _______ _______ _____ _____    ______ ____
ROOT
ATOM      1  C   UNL     1      43.817   4.464  10.365  0.00  0.00    +0.000 C 
ENDROOT
BRANCH   1   2
ATOM      2  C   UNL     1      44.970   5.038  11.143  0.00  0.00    +0.000 A 
ATOM      3  C   UNL     1      45.583   6.236  10.759  0.00  0.00    +0.000 A 
ATOM      4  C   UNL     1      46.656   6.731  11.495  0.00  0.00    +0.000 A 
ATOM      5  C   UNL     1      47.084   6.004  12.597  0.00  0.00    +0.000 A 
ATOM      6  N   UNL     1      46.520   4.831  13.000  0.00  0.00    +0.000 NA
ATOM      7  C   UNL     1      45.478   4.384  12.263  0.00  0.00    +0.000 A 
BRANCH   5   8
ATOM      8  C   UNL     1      48.227   6.511  13.424  0.00  0.00    +0.000 C 
ATOM      9  N   UNL     1      49.380   6.765  12.732  0.00  0.00    +0.000 N 
ATOM     10  O   UNL     1      48.147   6.685  14.633  0.00  0.00    +0.000 OA
ATOM     11  H   UNL     1      49.408   6.592  11.732  0.00  0.00    +0.000 HD
ATOM     12  H   UNL     1      50.198   7.090  13.223  0.00  0.00    +0.000 HD
ENDBRANCH   5   8
ENDBRANCH   1   2
BRANCH   1  13
ATOM     13  O   UNL     1      44.166   4.427   8.981  0.00  0.00    +0.000 OA
BRANCH  13  18
ATOM     14  C   UNL     1      46.742   2.691   7.078  0.00  0.00    +0.000 A 
ATOM     15  C   UNL     1      46.629   1.382   7.566  0.00  0.00    +0.000 A 
ATOM     16  C   UNL     1      45.676   1.066   8.533  0.00  0.00    +0.000 A 
ATOM     17  C   UNL     1      44.828   2.057   9.035  0.00  0.00    +0.000 A 
ATOM     18  C   UNL     1      44.929   3.368   8.568  0.00  0.00    +0.000 A 
ATOM     19  C   UNL     1      45.881   3.676   7.588  0.00  0.00    +0.000 A 
BRANCH  14  20
ATOM     20  C   UNL     1      47.796   3.040   6.057  0.00  0.00    +0.000 C 
BRANCH  20  21
ATOM     21  N   UNL     1      48.576   1.872   5.662  0.00  0.00    +0.000 NA
ATOM     22  H   UNL     1      48.587   1.205   6.430  0.00  0.00    +0.000 HD
ATOM     23  H   UNL     1      49.543   2.160   5.517  0.00  0.00    +0.000 HD
ENDBRANCH  20  21
ENDBRANCH  14  20
ENDBRANCH  13  18
ENDBRANCH   1  13
TORSDOF 6
ENDMDL
MODEL 6
REMARK VINA RESULT:    -6.748      2.102      6.380
REMARK INTER + INTRA:          -9.526
REMARK INTER:                  -9.022
REMARK INTRA:                  -0.504
REMARK UNBOUND:                -0.609
REMARK  Name = 
REMARK  6 active torsions:
REMARK  status: ('A' for Active; 'I' for Inactive)
REMARK    1  A    between atoms: N_1  and  C_2
REMARK    2  A    between atoms: C_2  and  C_3
REMARK    3  A    between atoms: C_7  and  O_8
REMARK    4  A    between atoms: O_8  and  C_9
REMARK    5  A    between atoms: C_9  and  C_10
REMARK    6  A    between atoms: C_13  and  C_14
REMARK                            x       y       z     vdW  Elec       q    Type
REMARK                         _______ _______ _______ _____ _____    ______ ____
ROOT
ATOM      1  C   UNL     1      44.950   5.871  10.571  0.00  0.00    +0.000 C 
ENDROOT
BRANCH   1   2
ATOM      2  C   UNL     1      45.645   5.560  11.869  0.00  0.00    +0.000 A 
ATOM      3  C   UNL     1      46.870   6.151  12.201  0.00  0.00    +0.000 A 
ATOM      4  C   UNL     1      47.490   5.829  13.404  0.00  0.00    +0.000 A 
ATOM      5  C   UNL     1      46.861   4.918  14.242  0.00  0.00    +0.000 A 
ATOM      6  N   UNL     1      45.674   4.315  13.954  0.00  0.00    +0.000 NA
ATOM      7  C   UNL     1      45.099   4.656  12.777  0.00  0.00    +0.000 A 
BRANCH   5   8
ATOM      8  C   UNL     1      47.490   4.556  15.553  0.00  0.00    +0.000 C 
ATOM      9  N   UNL     1      46.823   3.606  16.276  0.00  0.00    +0.000 N 
ATOM     10  O   UNL     1      48.524   5.070  15.958  0.00  0.00    +0.000 OA
ATOM     11  H   UNL     1      45.961   3.216  15.910  0.00  0.00    +0.000 HD
ATOM     12  H   UNL     1      47.175   3.324  17.179  0.00  0.00    +0.000 HD
ENDBRANCH   5   8
ENDBRANCH   1   2
BRANCH   1  13
ATOM     13  O   UNL     1      44.118   4.767  10.216  0.00  0.00    +0.000 OA
BRANCH  13  18
ATOM     14  C   UNL     1      46.225   3.287   7.637  0.00  0.00    +0.000 A 
ATOM     15  C   UNL     1      46.038   1.916   7.863  0.00  0.00    +0.000 A 
ATOM     16  C   UNL     1      45.191   1.474   8.879  0.00  0.00    +0.000 A 
ATOM     17  C   UNL     1      44.526   2.396   9.691  0.00  0.00    +0.000 A 
ATOM     18  C   UNL     1      44.704   3.765   9.488  0.00  0.00    +0.000 A 
ATOM     19  C   UNL     1      45.548   4.202   8.459  0.00  0.00    +0.000 A 
BRANCH  14  20
ATOM     20  C   UNL     1      47.167   3.764   6.562  0.00  0.00    +0.000 C 
BRANCH  20  21
ATOM     21  N   UNL     1      48.296   2.855   6.386  0.00  0.00    +0.000 NA
ATOM     22  H   UNL     1      48.484   2.750   5.392  0.00  0.00    +0.000 HD
ATOM     23  H   UNL     1      48.027   1.933   6.728  0.00  0.00    +0.000 HD
ENDBRANCH  20  21
ENDBRANCH  14  20
ENDBRANCH  13  18
ENDBRANCH   1  13
TORSDOF 6
ENDMDL
MODEL 7
REMARK VINA RESULT:    -6.163      4.254      7.572
REMARK INTER + INTRA:          -8.754
REMARK INTER:                  -8.333
REMARK INTRA:                  -0.421
REMARK UNBOUND:                -0.609
REMARK  Name = 
REMARK  6 active torsions:
REMARK  status: ('A' for Active; 'I' for Inactive)
REMARK    1  A    between atoms: N_1  and  C_2
REMARK    2  A    between atoms: C_2  and  C_3
REMARK    3  A    between atoms: C_7  and  O_8
REMARK    4  A    between atoms: O_8  and  C_9
REMARK    5  A    between atoms: C_9  and  C_10
REMARK    6  A    between atoms: C_13  and  C_14
REMARK                            x       y       z     vdW  Elec       q    Type
REMARK                         _______ _______ _______ _____ _____    ______ ____
ROOT
ATOM      1  C   UNL     1      47.026   4.362  16.132  0.00  0.00    +0.000 C 
ENDROOT
BRANCH   1   2
ATOM      2  C   UNL     1      48.294   3.671  16.555  0.00  0.00    +0.000 A 
ATOM      3  C   UNL     1      49.224   4.301  17.390  0.00  0.00    +0.000 A 
ATOM      4  C   UNL     1      50.392   3.636  17.750  0.00  0.00    +0.000 A 
ATOM      5  C   UNL     1      50.595   2.355  17.256  0.00  0.00    +0.000 A 
ATOM      6  N   UNL     1      49.720   1.710  16.435  0.00  0.00    +0.000 NA
ATOM      7  C   UNL     1      48.594   2.385  16.110  0.00  0.00    +0.000 A 
BRANCH   5   8
ATOM      8  C   UNL     1      51.835   1.601  17.631  0.00  0.00    +0.000 C 
ATOM      9  N   UNL     1      51.631   0.312  18.042  0.00  0.00    +0.000 N 
ATOM     10  O   UNL     1      52.954   2.094  17.579  0.00  0.00    +0.000 OA
ATOM     11  H   UNL     1      50.684  -0.052  18.084  0.00  0.00    +0.000 HD
ATOM     12  H   UNL     1      52.415  -0.253  18.330  0.00  0.00    +0.000 HD
ENDBRANCH   5   8
ENDBRANCH   1   2
BRANCH   1  13
ATOM     13  O   UNL     1      46.636   3.870  14.850  0.00  0.00    +0.000 OA
BRANCH  13  18
ATOM     14  C   UNL     1      44.789   5.694  12.294  0.00  0.00    +0.000 A 
ATOM     15  C   UNL     1      45.742   6.625  11.858  0.00  0.00    +0.000 A 
ATOM     16  C   UNL     1      47.021   6.642  12.412  0.00  0.00    +0.000 A 
ATOM     17  C   UNL     1      47.364   5.735  13.417  0.00  0.00    +0.000 A 
ATOM     18  C   UNL     1      46.428   4.804  13.870  0.00  0.00    +0.000 A 
ATOM     19  C   UNL     1      45.148   4.786  13.302  0.00  0.00    +0.000 A 
BRANCH  14  20
ATOM     20  C   UNL     1      43.395   5.699  11.720  0.00  0.00    +0.000 C 
BRANCH  20  21
ATOM     21  N   UNL     1      43.386   5.312  10.312  0.00  0.00    +0.000 NA
ATOM     22  H   UNL     1      43.560   4.312  10.243  0.00  0.00    +0.000 HD
ATOM     23  H   UNL     1      44.164   5.773   9.843  0.00  0.00    +0.000 HD
ENDBRANCH  20  21
ENDBRANCH  14  20
ENDBRANCH  13  18
ENDBRANCH   1  13
TORSDOF 6
ENDMDL
MODEL 8
REMARK VINA RESULT:    -5.933      2.982      6.862
REMARK INTER + INTRA:          -8.450
REMARK INTER:                  -8.056
REMARK INTRA:                  -0.394
REMARK UNBOUND:                -0.609
REMARK  Name = 
REMARK  6 active torsions:
REMARK  status: ('A' for Active; 'I' for Inactive)
REMARK    1  A    between atoms: N_1  and  C_2
REMARK    2  A    between atoms: C_2  and  C_3
REMARK    3  A    between atoms: C_7  and  O_8
REMARK    4  A    between atoms: O_8  and  C_9
REMARK    5  A    between atoms: C_9  and  C_10
REMARK    6  A    between atoms: C_13  and  C_14
REMARK                            x       y       z     vdW  Elec       q    Type
REMARK                         _______ _______ _______ _____ _____    ______ ____
ROOT
ATOM      1  C   UNL     1      47.418   6.416  12.653  0.00  0.00    +0.000 C 
ENDROOT
BRANCH   1   2
ATOM      2  C   UNL     1      47.570   5.673  13.952  0.00  0.00    +0.000 A 
ATOM      3  C   UNL     1      48.204   6.257  15.056  0.00  0.00    +0.000 A 
ATOM      4  C   UNL     1      48.339   5.534  16.238  0.00  0.00    +0.000 A 
ATOM      5  C   UNL     1      47.836   4.241  16.276  0.00  0.00    +0.000 A 
ATOM      6  N   UNL     1      47.219   3.634  15.223  0.00  0.00    +0.000 NA
ATOM      7  C   UNL     1      47.103   4.369  14.093  0.00  0.00    +0.000 A 
BRANCH   5   8
ATOM      8  C   UNL     1      47.949   3.436  17.534  0.00  0.00    +0.000 C 
ATOM      9  N   UNL     1      46.883   2.621  17.803  0.00  0.00    +0.000 N 
ATOM     10  O   UNL     1      48.920   3.497  18.277  0.00  0.00    +0.000 OA
ATOM     11  H   UNL     1      46.092   2.612  17.168  0.00  0.00    +0.000 HD
ATOM     12  H   UNL     1      46.878   2.062  18.642  0.00  0.00    +0.000 HD
ENDBRANCH   5   8
ENDBRANCH   1   2
BRANCH   1  13
ATOM     13  O   UNL     1      46.107   6.978  12.593  0.00  0.00    +0.000 OA
BRANCH  13  18
ATOM     14  C   UNL     1      44.352   4.713  10.342  0.00  0.00    +0.000 A 
ATOM     15  C   UNL     1      43.201   4.405  11.082  0.00  0.00    +0.000 A 
ATOM     16  C   UNL     1      42.998   4.966  12.342  0.00  0.00    +0.000 A 
ATOM     17  C   UNL     1      43.946   5.835  12.886  0.00  0.00    +0.000 A 
ATOM     18  C   UNL     1      45.102   6.149  12.170  0.00  0.00    +0.000 A 
ATOM     19  C   UNL     1      45.295   5.590  10.900  0.00  0.00    +0.000 A 
BRANCH  14  20
ATOM     20  C   UNL     1      44.588   4.079   8.995  0.00  0.00    +0.000 C 
BRANCH  20  21
ATOM     21  N   UNL     1      45.607   4.792   8.231  0.00  0.00    +0.000 NA
ATOM     22  H   UNL     1      45.999   5.530   8.811  0.00  0.00    +0.000 HD
ATOM     23  H   UNL     1      45.157   5.254   7.442  0.00  0.00    +0.000 HD
ENDBRANCH  20  21
ENDBRANCH  14  20
ENDBRANCH  13  18
ENDBRANCH   1  13
TORSDOF 6
ENDMDL
MODEL 9
REMARK VINA RESULT:    -5.614      3.440      7.973
REMARK INTER + INTRA:          -8.027
REMARK INTER:                  -7.657
REMARK INTRA:                  -0.370
REMARK UNBOUND:                -0.609
REMARK  Name = 
REMARK  6 active torsions:
REMARK  status: ('A' for Active; 'I' for Inactive)
REMARK    1  A    between atoms: N_1  and  C_2
REMARK    2  A    between atoms: C_2  and  C_3
REMARK    3  A    between atoms: C_7  and  O_8
REMARK    4  A    between atoms: O_8  and  C_9
REMARK    5  A    between atoms: C_9  and  C_10
REMARK    6  A    between atoms: C_13  and  C_14
REMARK                            x       y       z     vdW  Elec       q    Type
REMARK                         _______ _______ _______ _____ _____    ______ ____
ROOT
ATOM      1  C   UNL     1      46.954   4.972  14.115  0.00  0.00    +0.000 C 
ENDROOT
BRANCH   1   2
ATOM      2  C   UNL     1      47.537   4.774  15.488  0.00  0.00    +0.000 A 
ATOM      3  C   UNL     1      47.293   3.608  16.223  0.00  0.00    +0.000 A 
ATOM      4  C   UNL     1      47.838   3.465  17.496  0.00  0.00    +0.000 A 
ATOM      5  C   UNL     1      48.613   4.503  17.996  0.00  0.00    +0.000 A 
ATOM      6  N   UNL     1      48.868   5.657  17.317  0.00  0.00    +0.000 NA
ATOM      7  C   UNL     1      48.325   5.757  16.082  0.00  0.00    +0.000 A 
BRANCH   5   8
ATOM      8  C   UNL     1      49.229   4.382  19.357  0.00  0.00    +0.000 C 
ATOM      9  N   UNL     1      48.437   3.795  20.305  0.00  0.00    +0.000 N 
ATOM     10  O   UNL     1      50.358   4.779  19.612  0.00  0.00    +0.000 OA
ATOM     11  H   UNL     1      47.502   3.494  20.054  0.00  0.00    +0.000 HD
ATOM     12  H   UNL     1      48.776   3.696  21.250  0.00  0.00    +0.000 HD
ENDBRANCH   5   8
ENDBRANCH   1   2
BRANCH   1  13
ATOM     13  O   UNL     1      45.800   4.143  13.980  0.00  0.00    +0.000 OA
BRANCH  13  18
ATOM     14  C   UNL     1      44.440   3.984  10.603  0.00  0.00    +0.000 A 
ATOM     15  C   UNL     1      43.348   4.858  10.690  0.00  0.00    +0.000 A 
ATOM     16  C   UNL     1      43.063   5.520  11.883  0.00  0.00    +0.000 A 
ATOM     17  C   UNL     1      43.861   5.311  13.011  0.00  0.00    +0.000 A 
ATOM     18  C   UNL     1      44.948   4.439  12.948  0.00  0.00    +0.000 A 
ATOM     19  C   UNL     1      45.235   3.785  11.743  0.00  0.00    +0.000 A 
BRANCH  14  20
ATOM     20  C   UNL     1      44.726   3.241   9.323  0.00  0.00    +0.000 C 
BRANCH  20  21
ATOM     21  N   UNL     1      44.570   1.799   9.485  0.00  0.00    +0.000 NA
ATOM     22  H   UNL     1      44.091   1.424   8.670  0.00  0.00    +0.000 HD
ATOM     23  H   UNL     1      43.960   1.626  10.283  0.00  0.00    +0.000 HD
ENDBRANCH  20  21
ENDBRANCH  14  20
ENDBRANCH  13  18
ENDBRANCH   1  13
TORSDOF 6
ENDMDL
