MODEL 1
REMARK VINA RESULT:    -8.203      0.000      0.000
REMARK INTER + INTRA:         -11.406
REMARK INTER:                 -11.080
REMARK INTRA:                  -0.325
REMARK UNBOUND:                -0.325
REMARK  Name = 
REMARK  6 active torsions:
REMARK  status: ('A' for Active; 'I' for Inactive)
REMARK    1  A    between atoms: C_2  and  C_3
REMARK    2  A    between atoms: C_7  and  C_8
REMARK    3  A    between atoms: C_8  and  C_9
REMARK    4  A    between atoms: C_13  and  C_14
REMARK    5  A    between atoms: C_18  and  O_19
REMARK    6  A    between atoms: O_19  and  C_20
REMARK                            x       y       z     vdW  Elec       q    Type
REMARK                         _______ _______ _______ _____ _____    ______ ____
ROOT
ATOM      1  C   UNL     1      47.144   7.402  12.893  0.00  0.00    +0.000 A 
ATOM      2  C   UNL     1      46.259   8.485  12.960  0.00  0.00    +0.000 A 
ATOM      3  C   UNL     1      45.100   8.504  12.188  0.00  0.00    +0.000 A 
ATOM      4  C   UNL     1      44.788   7.417  11.368  0.00  0.00    +0.000 A 
ATOM      5  C   UNL     1      45.596   6.269  11.336  0.00  0.00    +0.000 A 
ATOM      6  C   UNL     1      46.756   6.281  12.128  0.00  0.00    +0.000 A 
ENDROOT
BRANCH   5   7
ATOM      7  C   UNL     1      45.288   5.129  10.452  0.00  0.00    +0.000 A 
ATOM      8  C   UNL     1      44.528   4.041  10.888  0.00  0.00    +0.000 A 
ATOM      9  N   UNL     1      44.197   2.962  10.129  0.00  0.00    +0.000 NA
ATOM     10  C   UNL     1      44.643   2.960   8.860  0.00  0.00    +0.000 A 
ATOM     11  C   UNL     1      45.424   3.970   8.310  0.00  0.00    +0.000 A 
ATOM     12  C   UNL     1      45.720   5.071   9.119  0.00  0.00    +0.000 A 
BRANCH  11  13
ATOM     13  O   UNL     1      45.918   4.008   7.043  0.00  0.00    +0.000 OA
BRANCH  13  14
ATOM     14  C   UNL     1      46.622   2.843   6.633  0.00  0.00    +0.000 C 
ATOM     15  F   UNL     1      46.828   2.906   5.294  0.00  0.00    +0.000 F 
ATOM     16  F   UNL     1      47.843   2.884   7.219  0.00  0.00    +0.000 F 
ENDBRANCH  13  14
ENDBRANCH  11  13
ENDBRANCH   5   7
BRANCH   1  17
ATOM     17  C   UNL     1      48.571   7.482  13.436  0.00  0.00    +0.000 C 
ATOM     18  C   UNL     1      49.608   7.353  12.306  0.00  0.00    +0.000 C 
ATOM     19  C   UNL     1      49.482   8.644  13.042  0.00  0.00    +0.000 C 
BRANCH  17  24
ATOM     20  C   UNL     1      48.327   5.200  16.376  0.00  0.00    +0.000 A 
ATOM     21  C   UNL     1      49.429   5.562  17.129  0.00  0.00    +0.000 A 
ATOM     22  N   UNL     1      50.278   6.542  16.736  0.00  0.00    +0.000 NA
ATOM     23  C   UNL     1      49.969   7.135  15.553  0.00  0.00    +0.000 A 
ATOM     24  C   UNL     1      48.862   6.792  14.769  0.00  0.00    +0.000 A 
ATOM     25  N   UNL     1      48.025   5.804  15.198  0.00  0.00    +0.000 NA
BRANCH  20  27
ATOM     26  N   UNL     1      46.722   3.329  17.175  0.00  0.00    +0.000 NA
ATOM     27  C   UNL     1      47.449   4.155  16.806  0.00  0.00    +0.000 C 
ENDBRANCH  20  27
ENDBRANCH  17  24
ENDBRANCH   1  17
TORSDOF 6
ENDMDL
MODEL 2
REMARK VINA RESULT:    -7.209      4.127      7.547
REMARK INTER + INTRA:         -10.064
REMARK INTER:                  -9.845
REMARK INTRA:                  -0.219
REMARK UNBOUND:                -0.325
REMARK  Name = 
REMARK  6 active torsions:
REMARK  status: ('A' for Active; 'I' for Inactive)
REMARK    1  A    between atoms: C_2  and  C_3
REMARK    2  A    between atoms: C_7  and  C_8
REMARK    3  A    between atoms: C_8  and  C_9
REMARK    4  A    between atoms: C_13  and  C_14
REMARK    5  A    between atoms: C_18  and  O_19
REMARK    6  A    between atoms: O_19  and  C_20
REMARK                            x       y       z     vdW  Elec       q    Type
REMARK                         _______ _______ _______ _____ _____    ______ ____
ROOT
ATOM      1  C   UNL     1      45.348   4.742  12.180  0.00  0.00    +0.000 A 
ATOM      2  C   UNL     1      46.253   4.196  13.100  0.00  0.00    +0.000 A 
ATOM      3  C   UNL     1      47.197   5.002  13.731  0.00  0.00    +0.000 A 
ATOM      4  C   UNL     1      47.221   6.376  13.484  0.00  0.00    +0.000 A 
ATOM      5  C   UNL     1      46.276   6.985  12.643  0.00  0.00    +0.000 A 
ATOM      6  C   UNL     1      45.337   6.145  12.023  0.00  0.00    +0.000 A 
ENDROOT
BRANCH   5   7
ATOM      7  C   UNL     1      46.312   8.431  12.355  0.00  0.00    +0.000 A 
ATOM      8  C   UNL     1      47.457   9.199  12.576  0.00  0.00    +0.000 A 
ATOM      9  N   UNL     1      47.569  10.532  12.327  0.00  0.00    +0.000 NA
ATOM     10  C   UNL     1      46.479  11.142  11.826  0.00  0.00    +0.000 A 
ATOM     11  C   UNL     1      45.273  10.497  11.579  0.00  0.00    +0.000 A 
ATOM     12  C   UNL     1      45.212   9.123  11.828  0.00  0.00    +0.000 A 
BRANCH  11  13
ATOM     13  O   UNL     1      44.137  11.068  11.094  0.00  0.00    +0.000 OA
BRANCH  13  14
ATOM     14  C   UNL     1      42.999  10.217  11.061  0.00  0.00    +0.000 C 
ATOM     15  F   UNL     1      41.962  10.852  11.663  0.00  0.00    +0.000 F 
ATOM     16  F   UNL     1      42.656  10.054   9.761  0.00  0.00    +0.000 F 
ENDBRANCH  13  14
ENDBRANCH  11  13
ENDBRANCH   5   7
BRANCH   1  17
ATOM     17  C   UNL     1      44.543   3.872  11.216  0.00  0.00    +0.000 C 
ATOM     18  C   UNL     1      43.849   2.714  11.954  0.00  0.00    +0.000 C 
ATOM     19  C   UNL     1      43.022   3.790  11.337  0.00  0.00    +0.000 C 
BRANCH  17  24
ATOM     20  C   UNL     1      46.033   2.109   8.286  0.00  0.00    +0.000 A 
ATOM     21  C   UNL     1      46.187   3.131   7.368  0.00  0.00    +0.000 A 
ATOM     22  N   UNL     1      45.834   4.408   7.647  0.00  0.00    +0.000 NA
ATOM     23  C   UNL     1      45.316   4.607   8.888  0.00  0.00    +0.000 A 
ATOM     24  C   UNL     1      45.147   3.594   9.838  0.00  0.00    +0.000 A 
ATOM     25  N   UNL     1      45.520   2.320   9.525  0.00  0.00    +0.000 NA
BRANCH  20  27
ATOM     26  N   UNL     1      46.737  -0.315   7.698  0.00  0.00    +0.000 NA
ATOM     27  C   UNL     1      46.405   0.764   7.966  0.00  0.00    +0.000 C 
ENDBRANCH  20  27
ENDBRANCH  17  24
ENDBRANCH   1  17
TORSDOF 6
ENDMDL
MODEL 3
REMARK VINA RESULT:    -7.113      3.720      7.351
REMARK INTER + INTRA:          -9.934
REMARK INTER:                  -9.739
REMARK INTRA:                  -0.195
REMARK UNBOUND:                -0.325
REMARK  Name = 
REMARK  6 active torsions:
REMARK  status: ('A' for Active; 'I' for Inactive)
REMARK    1  A    between atoms: C_2  and  C_3
REMARK    2  A    between atoms: C_7  and  C_8
REMARK    3  A    between atoms: C_8  and  C_9
REMARK    4  A    between atoms: C_13  and  C_14
REMARK    5  A    between atoms: C_18  and  O_19
REMARK    6  A    between atoms: O_19  and  C_20
REMARK                            x       y       z     vdW  Elec       q    Type
REMARK                         _______ _______ _______ _____ _____    ______ ____
ROOT
ATOM      1  C   UNL     1      45.420   4.482  12.147  0.00  0.00    +0.000 A 
ATOM      2  C   UNL     1      45.903   3.678  13.188  0.00  0.00    +0.000 A 
ATOM      3  C   UNL     1      46.949   4.114  13.996  0.00  0.00    +0.000 A 
ATOM      4  C   UNL     1      47.501   5.382  13.801  0.00  0.00    +0.000 A 
ATOM      5  C   UNL     1      46.992   6.261  12.832  0.00  0.00    +0.000 A 
ATOM      6  C   UNL     1      45.935   5.791  12.035  0.00  0.00    +0.000 A 
ENDROOT
BRANCH   5   7
ATOM      7  C   UNL     1      47.588   7.590  12.601  0.00  0.00    +0.000 A 
ATOM      8  C   UNL     1      46.987   8.760  13.070  0.00  0.00    +0.000 A 
ATOM      9  N   UNL     1      47.481  10.017  12.905  0.00  0.00    +0.000 NA
ATOM     10  C   UNL     1      48.643  10.122  12.235  0.00  0.00    +0.000 A 
ATOM     11  C   UNL     1      49.331   9.039  11.699  0.00  0.00    +0.000 A 
ATOM     12  C   UNL     1      48.799   7.765  11.914  0.00  0.00    +0.000 A 
BRANCH  11  13
ATOM     13  O   UNL     1      50.495   9.091  10.997  0.00  0.00    +0.000 OA
BRANCH  13  14
ATOM     14  C   UNL     1      51.303   7.924  11.080  0.00  0.00    +0.000 C 
ATOM     15  F   UNL     1      51.965   7.767   9.907  0.00  0.00    +0.000 F 
ATOM     16  F   UNL     1      52.241   8.152  12.030  0.00  0.00    +0.000 F 
ENDBRANCH  13  14
ENDBRANCH  11  13
ENDBRANCH   5   7
BRANCH   1  17
ATOM     17  C   UNL     1      44.534   3.925  11.033  0.00  0.00    +0.000 C 
ATOM     18  C   UNL     1      43.504   2.924  11.585  0.00  0.00    +0.000 C 
ATOM     19  C   UNL     1      43.036   4.221  11.018  0.00  0.00    +0.000 C 
BRANCH  17  24
ATOM     20  C   UNL     1      46.106   2.092   8.190  0.00  0.00    +0.000 A 
ATOM     21  C   UNL     1      46.338   3.102   7.274  0.00  0.00    +0.000 A 
ATOM     22  N   UNL     1      46.013   4.392   7.527  0.00  0.00    +0.000 NA
ATOM     23  C   UNL     1      45.442   4.617   8.741  0.00  0.00    +0.000 A 
ATOM     24  C   UNL     1      45.195   3.618   9.688  0.00  0.00    +0.000 A 
ATOM     25  N   UNL     1      45.541   2.330   9.401  0.00  0.00    +0.000 NA
BRANCH  20  27
ATOM     26  N   UNL     1      46.729  -0.359   7.626  0.00  0.00    +0.000 NA
ATOM     27  C   UNL     1      46.449   0.734   7.897  0.00  0.00    +0.000 C 
ENDBRANCH  20  27
ENDBRANCH  17  24
ENDBRANCH   1  17
TORSDOF 6
ENDMDL
MODEL 4
REMARK VINA RESULT:    -7.082      3.721      7.628
REMARK INTER + INTRA:          -9.891
REMARK INTER:                  -9.542
REMARK INTRA:                  -0.349
REMARK UNBOUND:                -0.325
REMARK  Name = 
REMARK  6 active torsions:
REMARK  status: ('A' for Active; 'I' for Inactive)
REMARK    1  A    between atoms: C_2  and  C_3
REMARK    2  A    between atoms: C_7  and  C_8
REMARK    3  A    between atoms: C_8  and  C_9
REMARK    4  A    between atoms: C_13  and  C_14
REMARK    5  A    between atoms: C_18  and  O_19
REMARK    6  A    between atoms: O_19  and  C_20
REMARK                            x       y       z     vdW  Elec       q    Type
REMARK                         _______ _______ _______ _____ _____    ______ ____
ROOT
ATOM      1  C   UNL     1      44.780   6.573  11.814  0.00  0.00    +0.000 A 
ATOM      2  C   UNL     1      44.552   7.887  11.383  0.00  0.00    +0.000 A 
ATOM      3  C   UNL     1      45.344   8.933  11.850  0.00  0.00    +0.000 A 
ATOM      4  C   UNL     1      46.404   8.674  12.721  0.00  0.00    +0.000 A 
ATOM      5  C   UNL     1      46.730   7.364  13.109  0.00  0.00    +0.000 A 
ATOM      6  C   UNL     1      45.913   6.331  12.619  0.00  0.00    +0.000 A 
ENDROOT
BRANCH   5   7
ATOM      7  C   UNL     1      47.829   7.086  14.051  0.00  0.00    +0.000 A 
ATOM      8  C   UNL     1      48.970   7.888  14.111  0.00  0.00    +0.000 A 
ATOM      9  N   UNL     1      50.019   7.700  14.958  0.00  0.00    +0.000 NA
ATOM     10  C   UNL     1      49.931   6.653  15.799  0.00  0.00    +0.000 A 
ATOM     11  C   UNL     1      48.860   5.767  15.825  0.00  0.00    +0.000 A 
ATOM     12  C   UNL     1      47.795   6.013  14.954  0.00  0.00    +0.000 A 
BRANCH  11  13
ATOM     13  O   UNL     1      48.730   4.683  16.637  0.00  0.00    +0.000 OA
BRANCH  13  14
ATOM     14  C   UNL     1      47.706   3.769  16.266  0.00  0.00    +0.000 C 
ATOM     15  F   UNL     1      48.239   2.524  16.192  0.00  0.00    +0.000 F 
ATOM     16  F   UNL     1      46.802   3.748  17.275  0.00  0.00    +0.000 F 
ENDBRANCH  13  14
ENDBRANCH  11  13
ENDBRANCH   5   7
BRANCH   1  17
ATOM     17  C   UNL     1      43.748   5.462  11.616  0.00  0.00    +0.000 C 
ATOM     18  C   UNL     1      43.035   5.120  12.937  0.00  0.00    +0.000 C 
ATOM     19  C   UNL     1      42.261   5.745  11.825  0.00  0.00    +0.000 C 
BRANCH  17  24
ATOM     20  C   UNL     1      45.190   3.538   8.766  0.00  0.00    +0.000 A 
ATOM     21  C   UNL     1      44.769   2.248   9.030  0.00  0.00    +0.000 A 
ATOM     22  N   UNL     1      44.011   1.947  10.112  0.00  0.00    +0.000 NA
ATOM     23  C   UNL     1      43.701   3.001  10.913  0.00  0.00    +0.000 A 
ATOM     24  C   UNL     1      44.112   4.316  10.672  0.00  0.00    +0.000 A 
ATOM     25  N   UNL     1      44.869   4.584   9.570  0.00  0.00    +0.000 NA
BRANCH  20  27
ATOM     26  N   UNL     1      46.670   4.041   6.698  0.00  0.00    +0.000 NA
ATOM     27  C   UNL     1      45.998   3.832   7.622  0.00  0.00    +0.000 C 
ENDBRANCH  20  27
ENDBRANCH  17  24
ENDBRANCH   1  17
TORSDOF 6
ENDMDL
MODEL 5
REMARK VINA RESULT:    -6.866      3.807      7.204
REMARK INTER + INTRA:          -9.600
REMARK INTER:                  -9.206
REMARK INTRA:                  -0.395
REMARK UNBOUND:                -0.325
REMARK  Name = 
REMARK  6 active torsions:
REMARK  status: ('A' for Active; 'I' for Inactive)
REMARK    1  A    between atoms: C_2  and  C_3
REMARK    2  A    between atoms: C_7  and  C_8
REMARK    3  A    between atoms: C_8  and  C_9
REMARK    4  A    between atoms: C_13  and  C_14
REMARK    5  A    between atoms: C_18  and  O_19
REMARK    6  A    between atoms: O_19  and  C_20
REMARK                            x       y       z     vdW  Elec       q    Type
REMARK                         _______ _______ _______ _____ _____    ______ ____
ROOT
ATOM      1  C   UNL     1      45.398   5.665  12.517  0.00  0.00    +0.000 A 
ATOM      2  C   UNL     1      45.773   4.861  13.601  0.00  0.00    +0.000 A 
ATOM      3  C   UNL     1      47.024   5.007  14.193  0.00  0.00    +0.000 A 
ATOM      4  C   UNL     1      47.904   5.991  13.737  0.00  0.00    +0.000 A 
ATOM      5  C   UNL     1      47.539   6.882  12.715  0.00  0.00    +0.000 A 
ATOM      6  C   UNL     1      46.269   6.709  12.140  0.00  0.00    +0.000 A 
ENDROOT
BRANCH   5   7
ATOM      7  C   UNL     1      48.473   7.905  12.209  0.00  0.00    +0.000 A 
ATOM      8  C   UNL     1      48.093   9.239  12.053  0.00  0.00    +0.000 A 
ATOM      9  N   UNL     1      48.899  10.238  11.602  0.00  0.00    +0.000 NA
ATOM     10  C   UNL     1      50.162   9.894  11.287  0.00  0.00    +0.000 A 
ATOM     11  C   UNL     1      50.659   8.599  11.377  0.00  0.00    +0.000 A 
ATOM     12  C   UNL     1      49.802   7.610  11.868  0.00  0.00    +0.000 A 
BRANCH  11  13
ATOM     13  O   UNL     1      51.916   8.194  11.053  0.00  0.00    +0.000 OA
BRANCH  13  14
ATOM     14  C   UNL     1      51.999   7.312   9.940  0.00  0.00    +0.000 C 
ATOM     15  F   UNL     1      52.623   7.953   8.921  0.00  0.00    +0.000 F 
ATOM     16  F   UNL     1      52.800   6.282  10.303  0.00  0.00    +0.000 F 
ENDBRANCH  13  14
ENDBRANCH  11  13
ENDBRANCH   5   7
BRANCH   1  17
ATOM     17  C   UNL     1      44.207   5.321  11.622  0.00  0.00    +0.000 C 
ATOM     18  C   UNL     1      42.882   5.397  12.401  0.00  0.00    +0.000 C 
ATOM     19  C   UNL     1      43.148   6.377  11.308  0.00  0.00    +0.000 C 
BRANCH  17  24
ATOM     20  C   UNL     1      45.265   3.400   8.606  0.00  0.00    +0.000 A 
ATOM     21  C   UNL     1      44.714   2.153   8.836  0.00  0.00    +0.000 A 
ATOM     22  N   UNL     1      43.986   1.882   9.945  0.00  0.00    +0.000 NA
ATOM     23  C   UNL     1      43.842   2.920  10.811  0.00  0.00    +0.000 A 
ATOM     24  C   UNL     1      44.387   4.192  10.606  0.00  0.00    +0.000 A 
ATOM     25  N   UNL     1      45.110   4.431   9.474  0.00  0.00    +0.000 NA
BRANCH  20  27
ATOM     26  N   UNL     1      46.643   3.892   6.467  0.00  0.00    +0.000 NA
ATOM     27  C   UNL     1      46.039   3.661   7.431  0.00  0.00    +0.000 C 
ENDBRANCH  20  27
ENDBRANCH  17  24
ENDBRANCH   1  17
TORSDOF 6
ENDMDL
MODEL 6
REMARK VINA RESULT:    -6.846      4.290      8.159
REMARK INTER + INTRA:          -9.573
REMARK INTER:                  -9.373
REMARK INTRA:                  -0.200
REMARK UNBOUND:                -0.325
REMARK  Name = 
REMARK  6 active torsions:
REMARK  status: ('A' for Active; 'I' for Inactive)
REMARK    1  A    between atoms: C_2  and  C_3
REMARK    2  A    between atoms: C_7  and  C_8
REMARK    3  A    between atoms: C_8  and  C_9
REMARK    4  A    between atoms: C_13  and  C_14
REMARK    5  A    between atoms: C_18  and  O_19
REMARK    6  A    between atoms: O_19  and  C_20
REMARK                            x       y       z     vdW  Elec       q    Type
REMARK                         _______ _______ _______ _____ _____    ______ ____
ROOT
ATOM      1  C   UNL     1      46.189   5.858  12.337  0.00  0.00    +0.000 A 
ATOM      2  C   UNL     1      47.065   6.890  11.976  0.00  0.00    +0.000 A 
ATOM      3  C   UNL     1      48.097   7.275  12.828  0.00  0.00    +0.000 A 
ATOM      4  C   UNL     1      48.294   6.603  14.036  0.00  0.00    +0.000 A 
ATOM      5  C   UNL     1      47.501   5.504  14.400  0.00  0.00    +0.000 A 
ATOM      6  C   UNL     1      46.470   5.139  13.519  0.00  0.00    +0.000 A 
ENDROOT
BRANCH   5   7
ATOM      7  C   UNL     1      47.686   4.808  15.687  0.00  0.00    +0.000 A 
ATOM      8  C   UNL     1      46.741   3.905  16.180  0.00  0.00    +0.000 A 
ATOM      9  N   UNL     1      46.846   3.220  17.351  0.00  0.00    +0.000 NA
ATOM     10  C   UNL     1      47.957   3.441  18.078  0.00  0.00    +0.000 A 
ATOM     11  C   UNL     1      48.962   4.328  17.710  0.00  0.00    +0.000 A 
ATOM     12  C   UNL     1      48.823   4.992  16.488  0.00  0.00    +0.000 A 
BRANCH  11  13
ATOM     13  O   UNL     1      50.092   4.604  18.416  0.00  0.00    +0.000 OA
BRANCH  13  14
ATOM     14  C   UNL     1      51.302   4.163  17.815  0.00  0.00    +0.000 C 
ATOM     15  F   UNL     1      52.267   4.109  18.766  0.00  0.00    +0.000 F 
ATOM     16  F   UNL     1      51.101   2.893  17.390  0.00  0.00    +0.000 F 
ENDBRANCH  13  14
ENDBRANCH  11  13
ENDBRANCH   5   7
BRANCH   1  17
ATOM     17  C   UNL     1      44.857   5.634  11.621  0.00  0.00    +0.000 C 
ATOM     18  C   UNL     1      43.666   5.885  12.563  0.00  0.00    +0.000 C 
ATOM     19  C   UNL     1      43.891   6.798  11.407  0.00  0.00    +0.000 C 
BRANCH  17  24
ATOM     20  C   UNL     1      45.316   3.506   8.593  0.00  0.00    +0.000 A 
ATOM     21  C   UNL     1      44.619   2.358   8.924  0.00  0.00    +0.000 A 
ATOM     22  N   UNL     1      43.977   2.224  10.109  0.00  0.00    +0.000 NA
ATOM     23  C   UNL     1      44.072   3.293  10.943  0.00  0.00    +0.000 A 
ATOM     24  C   UNL     1      44.769   4.467  10.637  0.00  0.00    +0.000 A 
ATOM     25  N   UNL     1      45.399   4.570   9.432  0.00  0.00    +0.000 NA
BRANCH  20  27
ATOM     26  N   UNL     1      46.541   3.685   6.316  0.00  0.00    +0.000 NA
ATOM     27  C   UNL     1      45.995   3.623   7.339  0.00  0.00    +0.000 C 
ENDBRANCH  20  27
ENDBRANCH  17  24
ENDBRANCH   1  17
TORSDOF 6
ENDMDL
MODEL 7
REMARK VINA RESULT:    -6.821      1.713      2.532
REMARK INTER + INTRA:          -9.538
REMARK INTER:                  -9.458
REMARK INTRA:                  -0.080
REMARK UNBOUND:                -0.325
REMARK  Name = 
REMARK  6 active torsions:
REMARK  status: ('A' for Active; 'I' for Inactive)
REMARK    1  A    between atoms: C_2  and  C_3
REMARK    2  A    between atoms: C_7  and  C_8
REMARK    3  A    between atoms: C_8  and  C_9
REMARK    4  A    between atoms: C_13  and  C_14
REMARK    5  A    between atoms: C_18  and  O_19
REMARK    6  A    between atoms: O_19  and  C_20
REMARK                            x       y       z     vdW  Elec       q    Type
REMARK                         _______ _______ _______ _____ _____    ______ ____
ROOT
ATOM      1  C   UNL     1      48.417   7.852  13.906  0.00  0.00    +0.000 A 
ATOM      2  C   UNL     1      49.322   8.158  12.881  0.00  0.00    +0.000 A 
ATOM      3  C   UNL     1      49.069   7.763  11.570  0.00  0.00    +0.000 A 
ATOM      4  C   UNL     1      47.884   7.093  11.257  0.00  0.00    +0.000 A 
ATOM      5  C   UNL     1      46.904   6.845  12.231  0.00  0.00    +0.000 A 
ATOM      6  C   UNL     1      47.189   7.258  13.544  0.00  0.00    +0.000 A 
ENDROOT
BRANCH   5   7
ATOM      7  C   UNL     1      45.664   6.113  11.915  0.00  0.00    +0.000 A 
ATOM      8  C   UNL     1      44.650   5.935  12.858  0.00  0.00    +0.000 A 
ATOM      9  N   UNL     1      43.478   5.282  12.637  0.00  0.00    +0.000 NA
ATOM     10  C   UNL     1      43.296   4.774  11.404  0.00  0.00    +0.000 A 
ATOM     11  C   UNL     1      44.235   4.864  10.382  0.00  0.00    +0.000 A 
ATOM     12  C   UNL     1      45.415   5.565  10.648  0.00  0.00    +0.000 A 
BRANCH  11  13
ATOM     13  O   UNL     1      44.112   4.353   9.128  0.00  0.00    +0.000 OA
BRANCH  13  14
ATOM     14  C   UNL     1      44.964   3.253   8.837  0.00  0.00    +0.000 C 
ATOM     15  F   UNL     1      44.261   2.103   8.992  0.00  0.00    +0.000 F 
ATOM     16  F   UNL     1      45.294   3.336   7.526  0.00  0.00    +0.000 F 
ENDBRANCH  13  14
ENDBRANCH  11  13
ENDBRANCH   5   7
BRANCH   1  17
ATOM     17  C   UNL     1      48.799   7.947  15.383  0.00  0.00    +0.000 C 
ATOM     18  C   UNL     1      49.626   9.213  15.666  0.00  0.00    +0.000 C 
ATOM     19  C   UNL     1      48.259   9.086  16.247  0.00  0.00    +0.000 C 
BRANCH  17  24
ATOM     20  C   UNL     1      48.595   4.601  17.017  0.00  0.00    +0.000 A 
ATOM     21  C   UNL     1      49.914   4.346  17.345  0.00  0.00    +0.000 A 
ATOM     22  N   UNL     1      50.906   5.225  17.068  0.00  0.00    +0.000 NA
ATOM     23  C   UNL     1      50.511   6.367  16.444  0.00  0.00    +0.000 A 
ATOM     24  C   UNL     1      49.185   6.653  16.100  0.00  0.00    +0.000 A 
ATOM     25  N   UNL     1      48.211   5.747  16.399  0.00  0.00    +0.000 NA
BRANCH  20  27
ATOM     26  N   UNL     1      46.733   2.869  17.520  0.00  0.00    +0.000 NA
ATOM     27  C   UNL     1      47.564   3.653  17.311  0.00  0.00    +0.000 C 
ENDBRANCH  20  27
ENDBRANCH  17  24
ENDBRANCH   1  17
TORSDOF 6
ENDMDL
MODEL 8
REMARK VINA RESULT:    -6.796      4.065      7.558
REMARK INTER + INTRA:          -9.506
REMARK INTER:                  -8.972
REMARK INTRA:                  -0.533
REMARK UNBOUND:                -0.325
REMARK  Name = 
REMARK  6 active torsions:
REMARK  status: ('A' for Active; 'I' for Inactive)
REMARK    1  A    between atoms: C_2  and  C_3
REMARK    2  A    between atoms: C_7  and  C_8
REMARK    3  A    between atoms: C_8  and  C_9
REMARK    4  A    between atoms: C_13  and  C_14
REMARK    5  A    between atoms: C_18  and  O_19
REMARK    6  A    between atoms: O_19  and  C_20
REMARK                            x       y       z     vdW  Elec       q    Type
REMARK                         _______ _______ _______ _____ _____    ______ ____
ROOT
ATOM      1  C   UNL     1      47.020   6.872  12.369  0.00  0.00    +0.000 A 
ATOM      2  C   UNL     1      47.973   7.472  11.535  0.00  0.00    +0.000 A 
ATOM      3  C   UNL     1      49.233   7.806  12.023  0.00  0.00    +0.000 A 
ATOM      4  C   UNL     1      49.575   7.504  13.343  0.00  0.00    +0.000 A 
ATOM      5  C   UNL     1      48.688   6.821  14.191  0.00  0.00    +0.000 A 
ATOM      6  C   UNL     1      47.425   6.497  13.668  0.00  0.00    +0.000 A 
ENDROOT
BRANCH   5   7
ATOM      7  C   UNL     1      49.031   6.524  15.594  0.00  0.00    +0.000 A 
ATOM      8  C   UNL     1      49.780   7.408  16.374  0.00  0.00    +0.000 A 
ATOM      9  N   UNL     1      50.126   7.208  17.674  0.00  0.00    +0.000 NA
ATOM     10  C   UNL     1      49.703   6.063  18.239  0.00  0.00    +0.000 A 
ATOM     11  C   UNL     1      48.969   5.091  17.568  0.00  0.00    +0.000 A 
ATOM     12  C   UNL     1      48.616   5.350  16.240  0.00  0.00    +0.000 A 
BRANCH  11  13
ATOM     13  O   UNL     1      48.535   3.909  18.082  0.00  0.00    +0.000 OA
BRANCH  13  14
ATOM     14  C   UNL     1      47.930   3.028  17.145  0.00  0.00    +0.000 C 
ATOM     15  F   UNL     1      48.820   2.056  16.823  0.00  0.00    +0.000 F 
ATOM     16  F   UNL     1      46.897   2.419  17.776  0.00  0.00    +0.000 F 
ENDBRANCH  13  14
ENDBRANCH  11  13
ENDBRANCH   5   7
BRANCH   1  17
ATOM     17  C   UNL     1      45.539   6.808  11.997  0.00  0.00    +0.000 C 
ATOM     18  C   UNL     1      44.759   7.992  12.596  0.00  0.00    +0.000 C 
ATOM     19  C   UNL     1      44.917   7.891  11.117  0.00  0.00    +0.000 C 
BRANCH  17  24
ATOM     20  C   UNL     1      44.446   3.405  10.931  0.00  0.00    +0.000 A 
ATOM     21  C   UNL     1      43.694   2.979  12.011  0.00  0.00    +0.000 A 
ATOM     22  N   UNL     1      43.503   3.755  13.104  0.00  0.00    +0.000 NA
ATOM     23  C   UNL     1      44.104   4.974  13.062  0.00  0.00    +0.000 A 
ATOM     24  C   UNL     1      44.870   5.432  11.985  0.00  0.00    +0.000 A 
ATOM     25  N   UNL     1      45.037   4.627  10.897  0.00  0.00    +0.000 NA
BRANCH  20  27
ATOM     26  N   UNL     1      44.798   1.910   8.844  0.00  0.00    +0.000 NA
ATOM     27  C   UNL     1      44.643   2.565   9.790  0.00  0.00    +0.000 C 
ENDBRANCH  20  27
ENDBRANCH  17  24
ENDBRANCH   1  17
TORSDOF 6
ENDMDL
MODEL 9
REMARK VINA RESULT:    -6.720      1.997      3.091
REMARK INTER + INTRA:          -9.403
REMARK INTER:                  -9.269
REMARK INTRA:                  -0.133
REMARK UNBOUND:                -0.325
REMARK  Name = 
REMARK  6 active torsions:
REMARK  status: ('A' for Active; 'I' for Inactive)
REMARK    1  A    between atoms: C_2  and  C_3
REMARK    2  A    between atoms: C_7  and  C_8
REMARK    3  A    between atoms: C_8  and  C_9
REMARK    4  A    between atoms: C_13  and  C_14
REMARK    5  A    between atoms: C_18  and  O_19
REMARK    6  A    between atoms: O_19  and  C_20
REMARK                            x       y       z     vdW  Elec       q    Type
REMARK                         _______ _______ _______ _____ _____    ______ ____
ROOT
ATOM      1  C   UNL     1      49.014   7.376  14.614  0.00  0.00    +0.000 A 
ATOM      2  C   UNL     1      49.521   8.247  13.640  0.00  0.00    +0.000 A 
ATOM      3  C   UNL     1      49.054   8.196  12.330  0.00  0.00    +0.000 A 
ATOM      4  C   UNL     1      48.040   7.300  11.983  0.00  0.00    +0.000 A 
ATOM      5  C   UNL     1      47.435   6.472  12.942  0.00  0.00    +0.000 A 
ATOM      6  C   UNL     1      47.928   6.550  14.255  0.00  0.00    +0.000 A 
ENDROOT
BRANCH   5   7
ATOM      7  C   UNL     1      46.383   5.505  12.578  0.00  0.00    +0.000 A 
ATOM      8  C   UNL     1      45.884   4.578  13.495  0.00  0.00    +0.000 A 
ATOM      9  N   UNL     1      44.911   3.663  13.236  0.00  0.00    +0.000 NA
ATOM     10  C   UNL     1      44.398   3.668  11.991  0.00  0.00    +0.000 A 
ATOM     11  C   UNL     1      44.822   4.524  10.981  0.00  0.00    +0.000 A 
ATOM     12  C   UNL     1      45.807   5.463  11.300  0.00  0.00    +0.000 A 
BRANCH  11  13
ATOM     13  O   UNL     1      44.354   4.557   9.704  0.00  0.00    +0.000 OA
BRANCH  13  14
ATOM     14  C   UNL     1      45.190   3.934   8.738  0.00  0.00    +0.000 C 
ATOM     15  F   UNL     1      45.637   2.756   9.243  0.00  0.00    +0.000 F 
ATOM     16  F   UNL     1      44.414   3.632   7.670  0.00  0.00    +0.000 F 
ENDBRANCH  13  14
ENDBRANCH  11  13
ENDBRANCH   5   7
BRANCH   1  17
ATOM     17  C   UNL     1      49.720   7.151  15.951  0.00  0.00    +0.000 C 
ATOM     18  C   UNL     1      51.234   7.398  15.833  0.00  0.00    +0.000 C 
ATOM     19  C   UNL     1      50.405   8.314  16.667  0.00  0.00    +0.000 C 
BRANCH  17  24
ATOM     20  C   UNL     1      49.378   3.754  17.452  0.00  0.00    +0.000 A 
ATOM     21  C   UNL     1      48.389   3.942  18.399  0.00  0.00    +0.000 A 
ATOM     22  N   UNL     1      47.795   5.144  18.589  0.00  0.00    +0.000 NA
ATOM     23  C   UNL     1      48.243   6.145  17.785  0.00  0.00    +0.000 A 
ATOM     24  C   UNL     1      49.241   5.985  16.818  0.00  0.00    +0.000 A 
ATOM     25  N   UNL     1      49.814   4.759  16.650  0.00  0.00    +0.000 NA
BRANCH  20  27
ATOM     26  N   UNL     1      50.523   1.454  17.109  0.00  0.00    +0.000 NA
ATOM     27  C   UNL     1      50.000   2.477  17.275  0.00  0.00    +0.000 C 
ENDBRANCH  20  27
ENDBRANCH  17  24
ENDBRANCH   1  17
TORSDOF 6
ENDMDL
