MODEL 1
REMARK VINA RESULT:    -8.826      0.000      0.000
REMARK INTER + INTRA:         -12.813
REMARK INTER:                 -11.921
REMARK INTRA:                  -0.892
REMARK UNBOUND:                -0.892
REMARK  Name = 
REMARK  6 active torsions:
REMARK  status: ('A' for Active; 'I' for Inactive)
REMARK    1  A    between atoms: C_2  and  C_4
REMARK    2  A    between atoms: C_7  and  N_8
REMARK    3  A    between atoms: N_8  and  C_9
REMARK    4  A    between atoms: C_9  and  C_10
REMARK    5  A    between atoms: C_10  and  C_13
REMARK    6  A    between atoms: C_17  and  C_18
REMARK                            x       y       z     vdW  Elec       q    Type
REMARK                         _______ _______ _______ _____ _____    ______ ____
ROOT
ATOM      1  C   UNL     1      43.404   5.517  12.202  0.00  0.00    +0.000 C 
ATOM      2  F   UNL     1      42.963   6.703  11.692  0.00  0.00    +0.000 F 
ATOM      3  F   UNL     1      42.582   5.249  13.264  0.00  0.00    +0.000 F 
ENDROOT
BRANCH   1   4
ATOM      4  C   UNL     1      44.867   5.571  12.603  0.00  0.00    +0.000 A 
ATOM      5  C   UNL     1      45.651   6.673  12.237  0.00  0.00    +0.000 A 
ATOM      6  C   UNL     1      46.958   6.791  12.701  0.00  0.00    +0.000 A 
ATOM      7  C   UNL     1      47.494   5.808  13.532  0.00  0.00    +0.000 A 
ATOM      8  C   UNL     1      46.751   4.677  13.889  0.00  0.00    +0.000 A 
ATOM      9  C   UNL     1      45.433   4.568  13.417  0.00  0.00    +0.000 A 
BRANCH   8  10
ATOM     10  C   UNL     1      47.288   3.659  14.809  0.00  0.00    +0.000 C 
ATOM     11  C   UNL     1      47.582   3.802  16.110  0.00  0.00    +0.000 C 
ATOM     12  C   UNL     1      48.056   2.860  17.189  0.00  0.00    +0.000 C 
ATOM     13  N   UNL     1      48.458   4.068  17.931  0.00  0.00    +0.000 NA
ATOM     14  C   UNL     1      47.581   4.925  17.114  0.00  0.00    +0.000 C 
ATOM     15  H   UNL     1      49.442   4.290  17.785  0.00  0.00    +0.000 HD
ENDBRANCH   8  10
ENDBRANCH   1   4
BRANCH   1  16
ATOM     16  C   UNL     1      43.202   4.400  11.142  0.00  0.00    +0.000 C 
BRANCH  16  17
ATOM     17  N   UNL     1      43.752   4.737   9.809  0.00  0.00    +0.000 N 
ATOM     18  H   UNL     1      43.024   5.058   9.167  0.00  0.00    +0.000 HD
BRANCH  17  22
ATOM     19  C   UNL     1      46.263   1.969   7.967  0.00  0.00    +0.000 A 
ATOM     20  C   UNL     1      46.378   3.297   7.589  0.00  0.00    +0.000 A 
ATOM     21  C   UNL     1      45.560   4.239   8.216  0.00  0.00    +0.000 A 
ATOM     22  C   UNL     1      44.665   3.857   9.216  0.00  0.00    +0.000 A 
ATOM     23  C   UNL     1      44.615   2.483   9.492  0.00  0.00    +0.000 A 
ATOM     24  N   UNL     1      45.390   1.530   8.914  0.00  0.00    +0.000 NA
BRANCH  19  26
ATOM     25  N   UNL     1      46.845  -0.362   7.633  0.00  0.00    +0.000 N 
ATOM     26  C   UNL     1      47.112   0.936   7.293  0.00  0.00    +0.000 C 
ATOM     27  O   UNL     1      47.984   1.223   6.482  0.00  0.00    +0.000 OA
ATOM     28  H   UNL     1      47.354  -1.109   7.184  0.00  0.00    +0.000 HD
ATOM     29  H   UNL     1      46.085  -0.565   8.273  0.00  0.00    +0.000 HD
ENDBRANCH  19  26
ENDBRANCH  17  22
ENDBRANCH  16  17
ENDBRANCH   1  16
TORSDOF 6
ENDMDL
MODEL 2
REMARK VINA RESULT:    -8.571      2.643      7.304
REMARK INTER + INTRA:         -12.470
REMARK INTER:                 -11.772
REMARK INTRA:                  -0.698
REMARK UNBOUND:                -0.892
REMARK  Name = 
REMARK  6 active torsions:
REMARK  status: ('A' for Active; 'I' for Inactive)
REMARK    1  A    between atoms: C_2  and  C_4
REMARK    2  A    between atoms: C_7  and  N_8
REMARK    3  A    between atoms: N_8  and  C_9
REMARK    4  A    between atoms: C_9  and  C_10
REMARK    5  A    between atoms: C_10  and  C_13
REMARK    6  A    between atoms: C_17  and  C_18
REMARK                            x       y       z     vdW  Elec       q    Type
REMARK                         _______ _______ _______ _____ _____    ______ ____
ROOT
ATOM      1  C   UNL     1      44.365   6.204  11.238  0.00  0.00    +0.000 C 
ATOM      2  F   UNL     1      43.062   6.600  11.163  0.00  0.00    +0.000 F 
ATOM      3  F   UNL     1      45.093   7.245  10.726  0.00  0.00    +0.000 F 
ENDROOT
BRANCH   1   4
ATOM      4  C   UNL     1      44.616   4.904  10.496  0.00  0.00    +0.000 A 
ATOM      5  C   UNL     1      44.086   3.704  10.991  0.00  0.00    +0.000 A 
ATOM      6  C   UNL     1      44.207   2.528  10.258  0.00  0.00    +0.000 A 
ATOM      7  C   UNL     1      44.859   2.538   9.025  0.00  0.00    +0.000 A 
ATOM      8  C   UNL     1      45.430   3.710   8.518  0.00  0.00    +0.000 A 
ATOM      9  C   UNL     1      45.303   4.892   9.264  0.00  0.00    +0.000 A 
BRANCH   8  10
ATOM     10  C   UNL     1      46.076   3.744   7.193  0.00  0.00    +0.000 C 
ATOM     11  C   UNL     1      46.888   2.824   6.652  0.00  0.00    +0.000 C 
ATOM     12  C   UNL     1      47.556   2.674   5.308  0.00  0.00    +0.000 C 
ATOM     13  N   UNL     1      48.453   1.711   5.971  0.00  0.00    +0.000 NA
ATOM     14  C   UNL     1      47.513   1.525   7.090  0.00  0.00    +0.000 C 
ATOM     15  H   UNL     1      49.319   2.152   6.277  0.00  0.00    +0.000 HD
ENDBRANCH   8  10
ENDBRANCH   1   4
BRANCH   1  16
ATOM     16  C   UNL     1      44.761   6.029  12.730  0.00  0.00    +0.000 C 
BRANCH  16  17
ATOM     17  N   UNL     1      46.221   6.091  12.970  0.00  0.00    +0.000 N 
ATOM     18  H   UNL     1      46.751   6.085  12.097  0.00  0.00    +0.000 HD
BRANCH  17  22
ATOM     19  C   UNL     1      48.024   3.541  15.729  0.00  0.00    +0.000 A 
ATOM     20  C   UNL     1      48.041   4.900  15.999  0.00  0.00    +0.000 A 
ATOM     21  C   UNL     1      47.417   5.764  15.096  0.00  0.00    +0.000 A 
ATOM     22  C   UNL     1      46.774   5.270  13.960  0.00  0.00    +0.000 A 
ATOM     23  C   UNL     1      46.849   3.882  13.776  0.00  0.00    +0.000 A 
ATOM     24  N   UNL     1      47.438   3.001  14.626  0.00  0.00    +0.000 NA
BRANCH  19  26
ATOM     25  N   UNL     1      48.488   2.829  18.000  0.00  0.00    +0.000 N 
ATOM     26  C   UNL     1      48.704   2.596  16.670  0.00  0.00    +0.000 C 
ATOM     27  O   UNL     1      49.401   1.665  16.284  0.00  0.00    +0.000 OA
ATOM     28  H   UNL     1      48.885   2.204  18.686  0.00  0.00    +0.000 HD
ATOM     29  H   UNL     1      47.868   3.580  18.282  0.00  0.00    +0.000 HD
ENDBRANCH  19  26
ENDBRANCH  17  22
ENDBRANCH  16  17
ENDBRANCH   1  16
TORSDOF 6
ENDMDL
MODEL 3
REMARK VINA RESULT:    -8.490      2.226      3.470
REMARK INTER + INTRA:         -12.360
REMARK INTER:                 -11.580
REMARK INTRA:                  -0.780
REMARK UNBOUND:                -0.892
REMARK  Name = 
REMARK  6 active torsions:
REMARK  status: ('A' for Active; 'I' for Inactive)
REMARK    1  A    between atoms: C_2  and  C_4
REMARK    2  A    between atoms: C_7  and  N_8
REMARK    3  A    between atoms: N_8  and  C_9
REMARK    4  A    between atoms: C_9  and  C_10
REMARK    5  A    between atoms: C_10  and  C_13
REMARK    6  A    between atoms: C_17  and  C_18
REMARK                            x       y       z     vdW  Elec       q    Type
REMARK                         _______ _______ _______ _____ _____    ______ ____
ROOT
ATOM      1  C   UNL     1      43.274   5.001  12.568  0.00  0.00    +0.000 C 
ATOM      2  F   UNL     1      42.532   6.111  12.290  0.00  0.00    +0.000 F 
ATOM      3  F   UNL     1      42.631   4.384  13.607  0.00  0.00    +0.000 F 
ENDROOT
BRANCH   1   4
ATOM      4  C   UNL     1      44.716   5.341  12.901  0.00  0.00    +0.000 A 
ATOM      5  C   UNL     1      45.578   4.340  13.370  0.00  0.00    +0.000 A 
ATOM      6  C   UNL     1      46.929   4.611  13.564  0.00  0.00    +0.000 A 
ATOM      7  C   UNL     1      47.432   5.883  13.293  0.00  0.00    +0.000 A 
ATOM      8  C   UNL     1      46.593   6.915  12.857  0.00  0.00    +0.000 A 
ATOM      9  C   UNL     1      45.231   6.632  12.663  0.00  0.00    +0.000 A 
BRANCH   8  10
ATOM     10  C   UNL     1      47.121   8.248  12.517  0.00  0.00    +0.000 C 
ATOM     11  C   UNL     1      48.293   8.543  11.935  0.00  0.00    +0.000 C 
ATOM     12  C   UNL     1      48.937   9.821  11.459  0.00  0.00    +0.000 C 
ATOM     13  N   UNL     1      50.207   9.075  11.483  0.00  0.00    +0.000 NA
ATOM     14  C   UNL     1      49.508   7.779  11.474  0.00  0.00    +0.000 C 
ATOM     15  H   UNL     1      50.715   9.222  12.354  0.00  0.00    +0.000 HD
ENDBRANCH   8  10
ENDBRANCH   1   4
BRANCH   1  16
ATOM     16  C   UNL     1      43.241   4.045  11.344  0.00  0.00    +0.000 C 
BRANCH  16  17
ATOM     17  N   UNL     1      43.780   4.647  10.103  0.00  0.00    +0.000 N 
ATOM     18  H   UNL     1      43.043   5.053   9.525  0.00  0.00    +0.000 HD
BRANCH  17  22
ATOM     19  C   UNL     1      46.409   2.359   7.819  0.00  0.00    +0.000 A 
ATOM     20  C   UNL     1      46.412   3.732   7.626  0.00  0.00    +0.000 A 
ATOM     21  C   UNL     1      45.555   4.513   8.403  0.00  0.00    +0.000 A 
ATOM     22  C   UNL     1      44.730   3.930   9.367  0.00  0.00    +0.000 A 
ATOM     23  C   UNL     1      44.791   2.531   9.449  0.00  0.00    +0.000 A 
ATOM     24  N   UNL     1      45.610   1.729   8.721  0.00  0.00    +0.000 NA
BRANCH  19  26
ATOM     25  N   UNL     1      48.362   2.136   6.398  0.00  0.00    +0.000 N 
ATOM     26  C   UNL     1      47.303   1.497   6.983  0.00  0.00    +0.000 C 
ATOM     27  O   UNL     1      47.114   0.296   6.833  0.00  0.00    +0.000 OA
ATOM     28  H   UNL     1      49.026   1.604   5.855  0.00  0.00    +0.000 HD
ATOM     29  H   UNL     1      48.515   3.121   6.581  0.00  0.00    +0.000 HD
ENDBRANCH  19  26
ENDBRANCH  17  22
ENDBRANCH  16  17
ENDBRANCH   1  16
TORSDOF 6
ENDMDL
MODEL 4
REMARK VINA RESULT:    -8.452      2.630      4.237
REMARK INTER + INTRA:         -12.308
REMARK INTER:                 -11.622
REMARK INTRA:                  -0.686
REMARK UNBOUND:                -0.892
REMARK  Name = 
REMARK  6 active torsions:
REMARK  status: ('A' for Active; 'I' for Inactive)
REMARK    1  A    between atoms: C_2  and  C_4
REMARK    2  A    between atoms: C_7  and  N_8
REMARK    3  A    between atoms: N_8  and  C_9
REMARK    4  A    between atoms: C_9  and  C_10
REMARK    5  A    between atoms: C_10  and  C_13
REMARK    6  A    between atoms: C_17  and  C_18
REMARK                            x       y       z     vdW  Elec       q    Type
REMARK                         _______ _______ _______ _____ _____    ______ ____
ROOT
ATOM      1  C   UNL     1      43.339   4.461  12.713  0.00  0.00    +0.000 C 
ATOM      2  F   UNL     1      42.289   5.323  12.591  0.00  0.00    +0.000 F 
ATOM      3  F   UNL     1      43.019   3.644  13.764  0.00  0.00    +0.000 F 
ENDROOT
BRANCH   1   4
ATOM      4  C   UNL     1      44.657   5.185  12.925  0.00  0.00    +0.000 A 
ATOM      5  C   UNL     1      45.831   4.449  13.133  0.00  0.00    +0.000 A 
ATOM      6  C   UNL     1      47.061   5.096  13.207  0.00  0.00    +0.000 A 
ATOM      7  C   UNL     1      47.129   6.483  13.076  0.00  0.00    +0.000 A 
ATOM      8  C   UNL     1      45.973   7.251  12.903  0.00  0.00    +0.000 A 
ATOM      9  C   UNL     1      44.737   6.590  12.828  0.00  0.00    +0.000 A 
BRANCH   8  10
ATOM     10  C   UNL     1      46.037   8.711  12.711  0.00  0.00    +0.000 C 
ATOM     11  C   UNL     1      45.235   9.475  11.955  0.00  0.00    +0.000 C 
ATOM     12  C   UNL     1      45.119  10.960  11.715  0.00  0.00    +0.000 C 
ATOM     13  N   UNL     1      44.361  10.607  10.503  0.00  0.00    +0.000 NA
ATOM     14  C   UNL     1      44.086   9.250  11.006  0.00  0.00    +0.000 C 
ATOM     15  H   UNL     1      44.957  10.587   9.677  0.00  0.00    +0.000 HD
ENDBRANCH   8  10
ENDBRANCH   1   4
BRANCH   1  16
ATOM     16  C   UNL     1      43.433   3.585  11.434  0.00  0.00    +0.000 C 
BRANCH  16  17
ATOM     17  N   UNL     1      43.791   4.348  10.216  0.00  0.00    +0.000 N 
ATOM     18  H   UNL     1      42.974   4.781   9.784  0.00  0.00    +0.000 HD
BRANCH  17  22
ATOM     19  C   UNL     1      46.579   2.760   7.557  0.00  0.00    +0.000 A 
ATOM     20  C   UNL     1      45.887   1.877   8.370  0.00  0.00    +0.000 A 
ATOM     21  C   UNL     1      44.931   2.393   9.248  0.00  0.00    +0.000 A 
ATOM     22  C   UNL     1      44.663   3.763   9.289  0.00  0.00    +0.000 A 
ATOM     23  C   UNL     1      45.447   4.559   8.443  0.00  0.00    +0.000 A 
ATOM     24  N   UNL     1      46.384   4.106   7.570  0.00  0.00    +0.000 NA
BRANCH  19  26
ATOM     25  N   UNL     1      47.801   2.950   5.470  0.00  0.00    +0.000 N 
ATOM     26  C   UNL     1      47.625   2.234   6.623  0.00  0.00    +0.000 C 
ATOM     27  O   UNL     1      48.291   1.236   6.870  0.00  0.00    +0.000 OA
ATOM     28  H   UNL     1      48.519   2.672   4.818  0.00  0.00    +0.000 HD
ATOM     29  H   UNL     1      47.266   3.797   5.321  0.00  0.00    +0.000 HD
ENDBRANCH  19  26
ENDBRANCH  17  22
ENDBRANCH  16  17
ENDBRANCH   1  16
TORSDOF 6
ENDMDL
MODEL 5
REMARK VINA RESULT:    -7.960      3.460      7.675
REMARK INTER + INTRA:         -11.644
REMARK INTER:                 -10.848
REMARK INTRA:                  -0.796
REMARK UNBOUND:                -0.892
REMARK  Name = 
REMARK  6 active torsions:
REMARK  status: ('A' for Active; 'I' for Inactive)
REMARK    1  A    between atoms: C_2  and  C_4
REMARK    2  A    between atoms: C_7  and  N_8
REMARK    3  A    between atoms: N_8  and  C_9
REMARK    4  A    between atoms: C_9  and  C_10
REMARK    5  A    between atoms: C_10  and  C_13
REMARK    6  A    between atoms: C_17  and  C_18
REMARK                            x       y       z     vdW  Elec       q    Type
REMARK                         _______ _______ _______ _____ _____    ______ ____
ROOT
ATOM      1  C   UNL     1      44.691   6.128  11.388  0.00  0.00    +0.000 C 
ATOM      2  F   UNL     1      43.416   6.607  11.464  0.00  0.00    +0.000 F 
ATOM      3  F   UNL     1      45.430   7.143  10.843  0.00  0.00    +0.000 F 
ENDROOT
BRANCH   1   4
ATOM      4  C   UNL     1      44.778   4.849  10.574  0.00  0.00    +0.000 A 
ATOM      5  C   UNL     1      44.129   3.691  11.023  0.00  0.00    +0.000 A 
ATOM      6  C   UNL     1      44.100   2.549  10.228  0.00  0.00    +0.000 A 
ATOM      7  C   UNL     1      44.722   2.552   8.980  0.00  0.00    +0.000 A 
ATOM      8  C   UNL     1      45.409   3.680   8.516  0.00  0.00    +0.000 A 
ATOM      9  C   UNL     1      45.431   4.827   9.324  0.00  0.00    +0.000 A 
BRANCH   8  10
ATOM     10  C   UNL     1      46.024   3.713   7.177  0.00  0.00    +0.000 C 
ATOM     11  C   UNL     1      46.867   2.820   6.639  0.00  0.00    +0.000 C 
ATOM     12  C   UNL     1      47.514   2.669   5.285  0.00  0.00    +0.000 C 
ATOM     13  N   UNL     1      48.469   1.766   5.949  0.00  0.00    +0.000 NA
ATOM     14  C   UNL     1      47.563   1.562   7.092  0.00  0.00    +0.000 C 
ATOM     15  H   UNL     1      49.320   2.254   6.226  0.00  0.00    +0.000 HD
ENDBRANCH   8  10
ENDBRANCH   1   4
BRANCH   1  16
ATOM     16  C   UNL     1      45.223   5.861  12.823  0.00  0.00    +0.000 C 
BRANCH  16  17
ATOM     17  N   UNL     1      46.586   5.283  12.855  0.00  0.00    +0.000 N 
ATOM     18  H   UNL     1      46.602   4.370  13.311  0.00  0.00    +0.000 HD
BRANCH  17  22
ATOM     19  C   UNL     1      49.900   7.515  14.037  0.00  0.00    +0.000 A 
ATOM     20  C   UNL     1      49.463   7.651  12.729  0.00  0.00    +0.000 A 
ATOM     21  C   UNL     1      48.338   6.929  12.327  0.00  0.00    +0.000 A 
ATOM     22  C   UNL     1      47.656   6.106  13.225  0.00  0.00    +0.000 A 
ATOM     23  C   UNL     1      48.209   6.024  14.511  0.00  0.00    +0.000 A 
ATOM     24  N   UNL     1      49.297   6.709  14.951  0.00  0.00    +0.000 NA
BRANCH  19  26
ATOM     25  N   UNL     1      52.311   7.624  14.283  0.00  0.00    +0.000 N 
ATOM     26  C   UNL     1      51.117   8.261  14.488  0.00  0.00    +0.000 C 
ATOM     27  O   UNL     1      51.061   9.374  14.997  0.00  0.00    +0.000 OA
ATOM     28  H   UNL     1      53.172   8.091  14.527  0.00  0.00    +0.000 HD
ATOM     29  H   UNL     1      52.324   6.725  13.817  0.00  0.00    +0.000 HD
ENDBRANCH  19  26
ENDBRANCH  17  22
ENDBRANCH  16  17
ENDBRANCH   1  16
TORSDOF 6
ENDMDL
MODEL 6
REMARK VINA RESULT:    -7.600      2.699      3.438
REMARK INTER + INTRA:         -11.158
REMARK INTER:                 -10.377
REMARK INTRA:                  -0.781
REMARK UNBOUND:                -0.892
REMARK  Name = 
REMARK  6 active torsions:
REMARK  status: ('A' for Active; 'I' for Inactive)
REMARK    1  A    between atoms: C_2  and  C_4
REMARK    2  A    between atoms: C_7  and  N_8
REMARK    3  A    between atoms: N_8  and  C_9
REMARK    4  A    between atoms: C_9  and  C_10
REMARK    5  A    between atoms: C_10  and  C_13
REMARK    6  A    between atoms: C_17  and  C_18
REMARK                            x       y       z     vdW  Elec       q    Type
REMARK                         _______ _______ _______ _____ _____    ______ ____
ROOT
ATOM      1  C   UNL     1      44.956   5.462  12.080  0.00  0.00    +0.000 C 
ATOM      2  F   UNL     1      44.327   5.270  13.275  0.00  0.00    +0.000 F 
ATOM      3  F   UNL     1      45.880   4.455  11.987  0.00  0.00    +0.000 F 
ENDROOT
BRANCH   1   4
ATOM      4  C   UNL     1      45.591   6.838  11.977  0.00  0.00    +0.000 A 
ATOM      5  C   UNL     1      44.779   7.980  11.951  0.00  0.00    +0.000 A 
ATOM      6  C   UNL     1      45.351   9.248  11.980  0.00  0.00    +0.000 A 
ATOM      7  C   UNL     1      46.738   9.388  12.031  0.00  0.00    +0.000 A 
ATOM      8  C   UNL     1      47.578   8.269  12.023  0.00  0.00    +0.000 A 
ATOM      9  C   UNL     1      46.992   6.994  11.995  0.00  0.00    +0.000 A 
BRANCH   8  10
ATOM     10  C   UNL     1      49.042   8.402  12.130  0.00  0.00    +0.000 C 
ATOM     11  C   UNL     1      49.812   8.158  13.201  0.00  0.00    +0.000 C 
ATOM     12  C   UNL     1      51.300   8.171  13.450  0.00  0.00    +0.000 C 
ATOM     13  N   UNL     1      50.961   8.244  14.882  0.00  0.00    +0.000 NA
ATOM     14  C   UNL     1      49.592   7.758  14.638  0.00  0.00    +0.000 C 
ATOM     15  H   UNL     1      50.964   9.205  15.221  0.00  0.00    +0.000 HD
ENDBRANCH   8  10
ENDBRANCH   1   4
BRANCH   1  16
ATOM     16  C   UNL     1      43.930   5.282  10.928  0.00  0.00    +0.000 C 
BRANCH  16  17
ATOM     17  N   UNL     1      43.798   3.882  10.462  0.00  0.00    +0.000 N 
ATOM     18  H   UNL     1      43.731   3.226  11.241  0.00  0.00    +0.000 HD
BRANCH  17  22
ATOM     19  C   UNL     1      46.467   2.734   7.475  0.00  0.00    +0.000 A 
ATOM     20  C   UNL     1      46.011   1.756   8.344  0.00  0.00    +0.000 A 
ATOM     21  C   UNL     1      45.097   2.122   9.334  0.00  0.00    +0.000 A 
ATOM     22  C   UNL     1      44.635   3.436   9.432  0.00  0.00    +0.000 A 
ATOM     23  C   UNL     1      45.190   4.342   8.518  0.00  0.00    +0.000 A 
ATOM     24  N   UNL     1      46.077   4.036   7.536  0.00  0.00    +0.000 NA
BRANCH  19  26
ATOM     25  N   UNL     1      47.409   3.118   5.273  0.00  0.00    +0.000 N 
ATOM     26  C   UNL     1      47.465   2.373   6.419  0.00  0.00    +0.000 C 
ATOM     27  O   UNL     1      48.289   1.477   6.565  0.00  0.00    +0.000 OA
ATOM     28  H   UNL     1      48.082   2.952   4.539  0.00  0.00    +0.000 HD
ATOM     29  H   UNL     1      46.746   3.881   5.205  0.00  0.00    +0.000 HD
ENDBRANCH  19  26
ENDBRANCH  17  22
ENDBRANCH  16  17
ENDBRANCH   1  16
TORSDOF 6
ENDMDL
MODEL 7
REMARK VINA RESULT:    -6.971      4.026      7.376
REMARK INTER + INTRA:         -10.309
REMARK INTER:                  -9.091
REMARK INTRA:                  -1.217
REMARK UNBOUND:                -0.892
REMARK  Name = 
REMARK  6 active torsions:
REMARK  status: ('A' for Active; 'I' for Inactive)
REMARK    1  A    between atoms: C_2  and  C_4
REMARK    2  A    between atoms: C_7  and  N_8
REMARK    3  A    between atoms: N_8  and  C_9
REMARK    4  A    between atoms: C_9  and  C_10
REMARK    5  A    between atoms: C_10  and  C_13
REMARK    6  A    between atoms: C_17  and  C_18
REMARK                            x       y       z     vdW  Elec       q    Type
REMARK                         _______ _______ _______ _____ _____    ______ ____
ROOT
ATOM      1  C   UNL     1      49.044   8.186  12.059  0.00  0.00    +0.000 C 
ATOM      2  F   UNL     1      49.313   9.518  12.185  0.00  0.00    +0.000 F 
ATOM      3  F   UNL     1      49.682   7.792  10.913  0.00  0.00    +0.000 F 
ENDROOT
BRANCH   1   4
ATOM      4  C   UNL     1      47.553   7.901  12.018  0.00  0.00    +0.000 A 
ATOM      5  C   UNL     1      46.640   8.911  12.350  0.00  0.00    +0.000 A 
ATOM      6  C   UNL     1      45.273   8.699  12.200  0.00  0.00    +0.000 A 
ATOM      7  C   UNL     1      44.805   7.476  11.720  0.00  0.00    +0.000 A 
ATOM      8  C   UNL     1      45.687   6.434  11.412  0.00  0.00    +0.000 A 
ATOM      9  C   UNL     1      47.065   6.658  11.566  0.00  0.00    +0.000 A 
BRANCH   8  10
ATOM     10  C   UNL     1      45.209   5.157  10.854  0.00  0.00    +0.000 C 
ATOM     11  C   UNL     1      44.470   4.220  11.466  0.00  0.00    +0.000 C 
ATOM     12  C   UNL     1      43.846   2.920  11.023  0.00  0.00    +0.000 C 
ATOM     13  N   UNL     1      43.754   2.588  12.456  0.00  0.00    +0.000 NA
ATOM     14  C   UNL     1      43.907   4.000  12.847  0.00  0.00    +0.000 C 
ATOM     15  H   UNL     1      44.546   2.026  12.764  0.00  0.00    +0.000 HD
ENDBRANCH   8  10
ENDBRANCH   1   4
BRANCH   1  16
ATOM     16  C   UNL     1      49.681   7.422  13.252  0.00  0.00    +0.000 C 
BRANCH  16  17
ATOM     17  N   UNL     1      48.953   7.599  14.530  0.00  0.00    +0.000 N 
ATOM     18  H   UNL     1      49.346   8.357  15.090  0.00  0.00    +0.000 HD
BRANCH  17  22
ATOM     19  C   UNL     1      47.911   4.381  16.963  0.00  0.00    +0.000 A 
ATOM     20  C   UNL     1      47.351   4.441  15.697  0.00  0.00    +0.000 A 
ATOM     21  C   UNL     1      47.711   5.500  14.861  0.00  0.00    +0.000 A 
ATOM     22  C   UNL     1      48.630   6.463  15.282  0.00  0.00    +0.000 A 
ATOM     23  C   UNL     1      49.106   6.315  16.592  0.00  0.00    +0.000 A 
ATOM     24  N   UNL     1      48.790   5.302  17.441  0.00  0.00    +0.000 NA
BRANCH  19  26
ATOM     25  N   UNL     1      48.273   3.158  19.026  0.00  0.00    +0.000 N 
ATOM     26  C   UNL     1      47.525   3.267  17.886  0.00  0.00    +0.000 C 
ATOM     27  O   UNL     1      46.595   2.505  17.651  0.00  0.00    +0.000 OA
ATOM     28  H   UNL     1      48.037   2.454  19.710  0.00  0.00    +0.000 HD
ATOM     29  H   UNL     1      49.004   3.834  19.211  0.00  0.00    +0.000 HD
ENDBRANCH  19  26
ENDBRANCH  17  22
ENDBRANCH  16  17
ENDBRANCH   1  16
TORSDOF 6
ENDMDL
MODEL 8
REMARK VINA RESULT:    -6.901      3.300      6.870
REMARK INTER + INTRA:         -10.213
REMARK INTER:                  -9.283
REMARK INTRA:                  -0.930
REMARK UNBOUND:                -0.892
REMARK  Name = 
REMARK  6 active torsions:
REMARK  status: ('A' for Active; 'I' for Inactive)
REMARK    1  A    between atoms: C_2  and  C_4
REMARK    2  A    between atoms: C_7  and  N_8
REMARK    3  A    between atoms: N_8  and  C_9
REMARK    4  A    between atoms: C_9  and  C_10
REMARK    5  A    between atoms: C_10  and  C_13
REMARK    6  A    between atoms: C_17  and  C_18
REMARK                            x       y       z     vdW  Elec       q    Type
REMARK                         _______ _______ _______ _____ _____    ______ ____
ROOT
ATOM      1  C   UNL     1      44.322   4.361  12.891  0.00  0.00    +0.000 C 
ATOM      2  F   UNL     1      43.493   3.387  13.368  0.00  0.00    +0.000 F 
ATOM      3  F   UNL     1      43.761   5.544  13.289  0.00  0.00    +0.000 F 
ENDROOT
BRANCH   1   4
ATOM      4  C   UNL     1      44.498   4.282  11.385  0.00  0.00    +0.000 A 
ATOM      5  C   UNL     1      44.464   5.454  10.617  0.00  0.00    +0.000 A 
ATOM      6  C   UNL     1      44.744   5.408   9.255  0.00  0.00    +0.000 A 
ATOM      7  C   UNL     1      45.057   4.193   8.647  0.00  0.00    +0.000 A 
ATOM      8  C   UNL     1      45.065   2.999   9.377  0.00  0.00    +0.000 A 
ATOM      9  C   UNL     1      44.783   3.055  10.751  0.00  0.00    +0.000 A 
BRANCH   8  10
ATOM     10  C   UNL     1      45.445   1.717   8.758  0.00  0.00    +0.000 C 
ATOM     11  C   UNL     1      46.468   1.481   7.923  0.00  0.00    +0.000 C 
ATOM     12  C   UNL     1      47.029   0.240   7.274  0.00  0.00    +0.000 C 
ATOM     13  N   UNL     1      47.697   1.152   6.331  0.00  0.00    +0.000 NA
ATOM     14  C   UNL     1      47.536   2.298   7.243  0.00  0.00    +0.000 C 
ATOM     15  H   UNL     1      47.156   1.274   5.476  0.00  0.00    +0.000 HD
ENDBRANCH   8  10
ENDBRANCH   1   4
BRANCH   1  16
ATOM     16  C   UNL     1      45.710   4.231  13.578  0.00  0.00    +0.000 C 
BRANCH  16  17
ATOM     17  N   UNL     1      46.172   5.479  14.227  0.00  0.00    +0.000 N 
ATOM     18  H   UNL     1      45.390   6.060  14.535  0.00  0.00    +0.000 HD
BRANCH  17  22
ATOM     19  C   UNL     1      49.397   7.449  12.471  0.00  0.00    +0.000 A 
ATOM     20  C   UNL     1      48.247   7.291  11.714  0.00  0.00    +0.000 A 
ATOM     21  C   UNL     1      47.149   6.655  12.299  0.00  0.00    +0.000 A 
ATOM     22  C   UNL     1      47.200   6.210  13.621  0.00  0.00    +0.000 A 
ATOM     23  C   UNL     1      48.426   6.397  14.276  0.00  0.00    +0.000 A 
ATOM     24  N   UNL     1      49.518   7.012  13.753  0.00  0.00    +0.000 NA
BRANCH  19  26
ATOM     25  N   UNL     1      51.350   7.314  11.040  0.00  0.00    +0.000 N 
ATOM     26  C   UNL     1      50.595   8.107  11.860  0.00  0.00    +0.000 C 
ATOM     27  O   UNL     1      50.883   9.280  12.066  0.00  0.00    +0.000 OA
ATOM     28  H   UNL     1      52.148   7.709  10.564  0.00  0.00    +0.000 HD
ATOM     29  H   UNL     1      51.056   6.362  10.855  0.00  0.00    +0.000 HD
ENDBRANCH  19  26
ENDBRANCH  17  22
ENDBRANCH  16  17
ENDBRANCH   1  16
TORSDOF 6
ENDMDL
MODEL 9
REMARK VINA RESULT:    -6.462      3.686      5.290
REMARK INTER + INTRA:          -9.621
REMARK INTER:                  -8.294
REMARK INTRA:                  -1.327
REMARK UNBOUND:                -0.892
REMARK  Name = 
REMARK  6 active torsions:
REMARK  status: ('A' for Active; 'I' for Inactive)
REMARK    1  A    between atoms: C_2  and  C_4
REMARK    2  A    between atoms: C_7  and  N_8
REMARK    3  A    between atoms: N_8  and  C_9
REMARK    4  A    between atoms: C_9  and  C_10
REMARK    5  A    between atoms: C_10  and  C_13
REMARK    6  A    between atoms: C_17  and  C_18
REMARK                            x       y       z     vdW  Elec       q    Type
REMARK                         _______ _______ _______ _____ _____    ______ ____
ROOT
ATOM      1  C   UNL     1      49.773   8.507  13.429  0.00  0.00    +0.000 C 
ATOM      2  F   UNL     1      51.121   8.526  13.221  0.00  0.00    +0.000 F 
ATOM      3  F   UNL     1      49.321   9.727  12.999  0.00  0.00    +0.000 F 
ENDROOT
BRANCH   1   4
ATOM      4  C   UNL     1      49.418   8.238  14.880  0.00  0.00    +0.000 A 
ATOM      5  C   UNL     1      48.821   9.245  15.651  0.00  0.00    +0.000 A 
ATOM      6  C   UNL     1      48.381   8.973  16.943  0.00  0.00    +0.000 A 
ATOM      7  C   UNL     1      48.535   7.694  17.477  0.00  0.00    +0.000 A 
ATOM      8  C   UNL     1      49.157   6.674  16.748  0.00  0.00    +0.000 A 
ATOM      9  C   UNL     1      49.597   6.958  15.445  0.00  0.00    +0.000 A 
BRANCH   8  10
ATOM     10  C   UNL     1      49.277   5.306  17.281  0.00  0.00    +0.000 C 
ATOM     11  C   UNL     1      48.360   4.328  17.245  0.00  0.00    +0.000 C 
ATOM     12  C   UNL     1      48.353   2.879  17.668  0.00  0.00    +0.000 C 
ATOM     13  N   UNL     1      46.883   2.975  17.622  0.00  0.00    +0.000 NA
ATOM     14  C   UNL     1      46.935   4.181  16.778  0.00  0.00    +0.000 C 
ATOM     15  H   UNL     1      46.490   3.176  18.541  0.00  0.00    +0.000 HD
ENDBRANCH   8  10
ENDBRANCH   1   4
BRANCH   1  16
ATOM     16  C   UNL     1      49.134   7.413  12.531  0.00  0.00    +0.000 C 
BRANCH  16  17
ATOM     17  N   UNL     1      47.703   7.651  12.230  0.00  0.00    +0.000 N 
ATOM     18  H   UNL     1      47.342   8.470  12.721  0.00  0.00    +0.000 HD
BRANCH  17  22
ATOM     19  C   UNL     1      45.190   4.333  12.047  0.00  0.00    +0.000 A 
ATOM     20  C   UNL     1      45.977   4.485  13.178  0.00  0.00    +0.000 A 
ATOM     21  C   UNL     1      46.805   5.607  13.264  0.00  0.00    +0.000 A 
ATOM     22  C   UNL     1      46.824   6.562  12.246  0.00  0.00    +0.000 A 
ATOM     23  C   UNL     1      46.009   6.285  11.140  0.00  0.00    +0.000 A 
ATOM     24  N   UNL     1      45.184   5.213  11.010  0.00  0.00    +0.000 NA
BRANCH  19  26
ATOM     25  N   UNL     1      44.302   2.529  10.690  0.00  0.00    +0.000 N 
ATOM     26  C   UNL     1      44.310   3.128  11.921  0.00  0.00    +0.000 C 
ATOM     27  O   UNL     1      43.646   2.692  12.853  0.00  0.00    +0.000 OA
ATOM     28  H   UNL     1      43.761   1.688  10.551  0.00  0.00    +0.000 HD
ATOM     29  H   UNL     1      44.899   2.889   9.955  0.00  0.00    +0.000 HD
ENDBRANCH  19  26
ENDBRANCH  17  22
ENDBRANCH  16  17
ENDBRANCH   1  16
TORSDOF 6
ENDMDL
