MODEL 1
REMARK VINA RESULT:    -7.510      0.000      0.000
REMARK INTER + INTRA:          -9.738
REMARK INTER:                  -9.486
REMARK INTRA:                  -0.252
REMARK UNBOUND:                -0.252
REMARK  Name = 
REMARK  5 active torsions:
REMARK  status: ('A' for Active; 'I' for Inactive)
REMARK    1  A    between atoms: N_1  and  C_2
REMARK    2  A    between atoms: C_2  and  C_3
REMARK    3  A    between atoms: C_6  and  C_7
REMARK    4  A    between atoms: C_7  and  N_8
REMARK    5  A    between atoms: C_13  and  C_14
REMARK                            x       y       z     vdW  Elec       q    Type
REMARK                         _______ _______ _______ _____ _____    ______ ____
ROOT
ATOM      1  N   UNL     1      44.139   4.339  10.408  0.00  0.00    +0.000 N 
ATOM      2  C   UNL     1      43.643   3.184  10.954  0.00  0.00    +0.000 A 
ATOM      3  C   UNL     1      44.187   2.122  10.268  0.00  0.00    +0.000 A 
ATOM      4  C   UNL     1      45.066   2.648   9.283  0.00  0.00    +0.000 A 
ATOM      5  C   UNL     1      45.855   2.061   8.267  0.00  0.00    +0.000 A 
ATOM      6  C   UNL     1      46.634   2.876   7.432  0.00  0.00    +0.000 A 
ATOM      7  C   UNL     1      46.676   4.256   7.656  0.00  0.00    +0.000 A 
ATOM      8  C   UNL     1      45.922   4.855   8.670  0.00  0.00    +0.000 A 
ATOM      9  C   UNL     1      45.084   4.035   9.446  0.00  0.00    +0.000 A 
ENDROOT
BRANCH   6  10
ATOM     10  C   UNL     1      47.416   2.346   6.277  0.00  0.00    +0.000 C 
ATOM     11  N   UNL     1      47.309   2.970   5.066  0.00  0.00    +0.000 N 
ATOM     12  O   UNL     1      48.159   1.378   6.395  0.00  0.00    +0.000 OA
ATOM     13  H   UNL     1      46.746   3.782   4.874  0.00  0.00    +0.000 HD
ATOM     14  H   UNL     1      47.878   2.598   4.317  0.00  0.00    +0.000 HD
ENDBRANCH   6  10
BRANCH   1  15
ATOM     15  C   UNL     1      43.711   5.674  10.799  0.00  0.00    +0.000 C 
BRANCH  15  19
ATOM     16  C   UNL     1      47.040   7.101  13.242  0.00  0.00    +0.000 C 
ATOM     17  C   UNL     1      45.929   8.113  12.940  0.00  0.00    +0.000 C 
ATOM     18  C   UNL     1      44.974   7.634  11.851  0.00  0.00    +0.000 C 
ATOM     19  C   UNL     1      44.395   6.224  12.077  0.00  0.00    +0.000 C 
ATOM     20  C   UNL     1      45.468   5.221  12.539  0.00  0.00    +0.000 C 
ATOM     21  C   UNL     1      46.384   5.768  13.633  0.00  0.00    +0.000 C 
BRANCH  16  22
ATOM     22  C   UNL     1      48.042   6.908  12.083  0.00  0.00    +0.000 C 
BRANCH  22  23
ATOM     23  N   UNL     1      49.383   6.584  12.555  0.00  0.00    +0.000 NA
ATOM     24  H   UNL     1      49.592   7.138  13.386  0.00  0.00    +0.000 HD
ATOM     25  H   UNL     1      50.069   6.858  11.854  0.00  0.00    +0.000 HD
ENDBRANCH  22  23
ENDBRANCH  16  22
ENDBRANCH  15  19
ENDBRANCH   1  15
TORSDOF 5
ENDMDL
MODEL 2
REMARK VINA RESULT:    -6.194      4.922      8.561
REMARK INTER + INTRA:          -8.076
REMARK INTER:                  -7.715
REMARK INTRA:                  -0.361
REMARK UNBOUND:                -0.252
REMARK  Name = 
REMARK  5 active torsions:
REMARK  status: ('A' for Active; 'I' for Inactive)
REMARK    1  A    between atoms: N_1  and  C_2
REMARK    2  A    between atoms: C_2  and  C_3
REMARK    3  A    between atoms: C_6  and  C_7
REMARK    4  A    between atoms: C_7  and  N_8
REMARK    5  A    between atoms: C_13  and  C_14
REMARK                            x       y       z     vdW  Elec       q    Type
REMARK                         _______ _______ _______ _____ _____    ______ ____
ROOT
ATOM      1  N   UNL     1      47.504   5.081  14.804  0.00  0.00    +0.000 N 
ATOM      2  C   UNL     1      48.079   6.285  14.489  0.00  0.00    +0.000 A 
ATOM      3  C   UNL     1      48.782   6.721  15.589  0.00  0.00    +0.000 A 
ATOM      4  C   UNL     1      48.650   5.736  16.605  0.00  0.00    +0.000 A 
ATOM      5  C   UNL     1      49.098   5.650  17.943  0.00  0.00    +0.000 A 
ATOM      6  C   UNL     1      48.791   4.513  18.709  0.00  0.00    +0.000 A 
ATOM      7  C   UNL     1      48.104   3.447  18.119  0.00  0.00    +0.000 A 
ATOM      8  C   UNL     1      47.671   3.502  16.791  0.00  0.00    +0.000 A 
ATOM      9  C   UNL     1      47.915   4.679  16.061  0.00  0.00    +0.000 A 
ENDROOT
BRANCH   6  10
ATOM     10  C   UNL     1      49.142   4.387  20.154  0.00  0.00    +0.000 C 
ATOM     11  N   UNL     1      50.457   4.439  20.520  0.00  0.00    +0.000 N 
ATOM     12  O   UNL     1      48.278   4.255  21.015  0.00  0.00    +0.000 OA
ATOM     13  H   UNL     1      51.234   4.568  19.893  0.00  0.00    +0.000 HD
ATOM     14  H   UNL     1      50.651   4.380  21.511  0.00  0.00    +0.000 HD
ENDBRANCH   6  10
BRANCH   1  15
ATOM     15  C   UNL     1      46.593   4.359  13.928  0.00  0.00    +0.000 C 
BRANCH  15  19
ATOM     16  C   UNL     1      43.508   5.406  11.018  0.00  0.00    +0.000 C 
ATOM     17  C   UNL     1      43.034   5.137  12.451  0.00  0.00    +0.000 C 
ATOM     18  C   UNL     1      44.112   4.494  13.318  0.00  0.00    +0.000 C 
ATOM     19  C   UNL     1      45.467   5.227  13.308  0.00  0.00    +0.000 C 
ATOM     20  C   UNL     1      45.891   5.653  11.891  0.00  0.00    +0.000 C 
ATOM     21  C   UNL     1      44.761   6.291  11.083  0.00  0.00    +0.000 C 
BRANCH  16  22
ATOM     22  C   UNL     1      43.775   4.126  10.196  0.00  0.00    +0.000 C 
BRANCH  22  23
ATOM     23  N   UNL     1      44.116   4.416   8.809  0.00  0.00    +0.000 NA
ATOM     24  H   UNL     1      43.282   4.320   8.229  0.00  0.00    +0.000 HD
ATOM     25  H   UNL     1      44.779   3.723   8.466  0.00  0.00    +0.000 HD
ENDBRANCH  22  23
ENDBRANCH  16  22
ENDBRANCH  15  19
ENDBRANCH   1  15
TORSDOF 5
ENDMDL
MODEL 3
REMARK VINA RESULT:    -6.165      3.805      5.971
REMARK INTER + INTRA:          -8.039
REMARK INTER:                  -7.462
REMARK INTRA:                  -0.577
REMARK UNBOUND:                -0.252
REMARK  Name = 
REMARK  5 active torsions:
REMARK  status: ('A' for Active; 'I' for Inactive)
REMARK    1  A    between atoms: N_1  and  C_2
REMARK    2  A    between atoms: C_2  and  C_3
REMARK    3  A    between atoms: C_6  and  C_7
REMARK    4  A    between atoms: C_7  and  N_8
REMARK    5  A    between atoms: C_13  and  C_14
REMARK                            x       y       z     vdW  Elec       q    Type
REMARK                         _______ _______ _______ _____ _____    ______ ____
ROOT
ATOM      1  N   UNL     1      47.610   6.799  13.799  0.00  0.00    +0.000 N 
ATOM      2  C   UNL     1      48.373   7.531  12.928  0.00  0.00    +0.000 A 
ATOM      3  C   UNL     1      47.896   7.310  11.655  0.00  0.00    +0.000 A 
ATOM      4  C   UNL     1      46.786   6.429  11.757  0.00  0.00    +0.000 A 
ATOM      5  C   UNL     1      45.937   5.817  10.806  0.00  0.00    +0.000 A 
ATOM      6  C   UNL     1      44.902   4.972  11.238  0.00  0.00    +0.000 A 
ATOM      7  C   UNL     1      44.678   4.797  12.608  0.00  0.00    +0.000 A 
ATOM      8  C   UNL     1      45.491   5.411  13.565  0.00  0.00    +0.000 A 
ATOM      9  C   UNL     1      46.573   6.189  13.117  0.00  0.00    +0.000 A 
ENDROOT
BRANCH   6  10
ATOM     10  C   UNL     1      44.027   4.212  10.298  0.00  0.00    +0.000 C 
ATOM     11  N   UNL     1      44.077   4.510   8.965  0.00  0.00    +0.000 N 
ATOM     12  O   UNL     1      43.280   3.323  10.692  0.00  0.00    +0.000 OA
ATOM     13  H   UNL     1      44.671   5.204   8.542  0.00  0.00    +0.000 HD
ATOM     14  H   UNL     1      43.490   3.952   8.358  0.00  0.00    +0.000 HD
ENDBRANCH   6  10
BRANCH   1  15
ATOM     15  C   UNL     1      47.878   6.691  15.225  0.00  0.00    +0.000 C 
BRANCH  15  19
ATOM     16  C   UNL     1      49.280   3.635  18.014  0.00  0.00    +0.000 C 
ATOM     17  C   UNL     1      48.276   3.180  16.948  0.00  0.00    +0.000 C 
ATOM     18  C   UNL     1      47.618   4.349  16.220  0.00  0.00    +0.000 C 
ATOM     19  C   UNL     1      48.603   5.388  15.650  0.00  0.00    +0.000 C 
ATOM     20  C   UNL     1      49.720   5.743  16.649  0.00  0.00    +0.000 C 
ATOM     21  C   UNL     1      50.333   4.523  17.336  0.00  0.00    +0.000 C 
BRANCH  16  22
ATOM     22  C   UNL     1      48.633   4.359  19.215  0.00  0.00    +0.000 C 
BRANCH  22  23
ATOM     23  N   UNL     1      48.354   3.455  20.324  0.00  0.00    +0.000 NA
ATOM     24  H   UNL     1      47.382   3.149  20.275  0.00  0.00    +0.000 HD
ATOM     25  H   UNL     1      48.447   3.956  21.207  0.00  0.00    +0.000 HD
ENDBRANCH  22  23
ENDBRANCH  16  22
ENDBRANCH  15  19
ENDBRANCH   1  15
TORSDOF 5
ENDMDL
MODEL 4
REMARK VINA RESULT:    -6.137      3.073      5.126
REMARK INTER + INTRA:          -8.004
REMARK INTER:                  -7.575
REMARK INTRA:                  -0.429
REMARK UNBOUND:                -0.252
REMARK  Name = 
REMARK  5 active torsions:
REMARK  status: ('A' for Active; 'I' for Inactive)
REMARK    1  A    between atoms: N_1  and  C_2
REMARK    2  A    between atoms: C_2  and  C_3
REMARK    3  A    between atoms: C_6  and  C_7
REMARK    4  A    between atoms: C_7  and  N_8
REMARK    5  A    between atoms: C_13  and  C_14
REMARK                            x       y       z     vdW  Elec       q    Type
REMARK                         _______ _______ _______ _____ _____    ______ ____
ROOT
ATOM      1  N   UNL     1      47.255   6.851  13.198  0.00  0.00    +0.000 N 
ATOM      2  C   UNL     1      47.694   6.228  14.337  0.00  0.00    +0.000 A 
ATOM      3  C   UNL     1      47.171   4.955  14.352  0.00  0.00    +0.000 A 
ATOM      4  C   UNL     1      46.405   4.787  13.167  0.00  0.00    +0.000 A 
ATOM      5  C   UNL     1      45.609   3.734  12.662  0.00  0.00    +0.000 A 
ATOM      6  C   UNL     1      44.960   3.882  11.426  0.00  0.00    +0.000 A 
ATOM      7  C   UNL     1      45.163   5.044  10.674  0.00  0.00    +0.000 A 
ATOM      8  C   UNL     1      45.965   6.089  11.144  0.00  0.00    +0.000 A 
ATOM      9  C   UNL     1      46.542   5.959  12.419  0.00  0.00    +0.000 A 
ENDROOT
BRANCH   6  10
ATOM     10  C   UNL     1      44.026   2.860  10.869  0.00  0.00    +0.000 C 
ATOM     11  N   UNL     1      44.406   2.153   9.764  0.00  0.00    +0.000 N 
ATOM     12  O   UNL     1      42.939   2.632  11.390  0.00  0.00    +0.000 OA
ATOM     13  H   UNL     1      45.283   2.250   9.280  0.00  0.00    +0.000 HD
ATOM     14  H   UNL     1      43.758   1.448   9.436  0.00  0.00    +0.000 HD
ENDBRANCH   6  10
BRANCH   1  15
ATOM     15  C   UNL     1      47.513   8.249  12.884  0.00  0.00    +0.000 C 
BRANCH  15  19
ATOM     16  C   UNL     1      51.516   9.089  11.351  0.00  0.00    +0.000 C 
ATOM     17  C   UNL     1      50.932   7.710  11.021  0.00  0.00    +0.000 C 
ATOM     18  C   UNL     1      49.681   7.390  11.833  0.00  0.00    +0.000 C 
ATOM     19  C   UNL     1      48.592   8.479  11.795  0.00  0.00    +0.000 C 
ATOM     20  C   UNL     1      49.176   9.894  11.965  0.00  0.00    +0.000 C 
ATOM     21  C   UNL     1      50.424  10.144  11.119  0.00  0.00    +0.000 C 
BRANCH  16  22
ATOM     22  C   UNL     1      52.097   9.196  12.779  0.00  0.00    +0.000 C 
BRANCH  22  23
ATOM     23  N   UNL     1      52.927   8.050  13.129  0.00  0.00    +0.000 NA
ATOM     24  H   UNL     1      53.577   7.858  12.367  0.00  0.00    +0.000 HD
ATOM     25  H   UNL     1      52.344   7.219  13.218  0.00  0.00    +0.000 HD
ENDBRANCH  22  23
ENDBRANCH  16  22
ENDBRANCH  15  19
ENDBRANCH   1  15
TORSDOF 5
ENDMDL
MODEL 5
REMARK VINA RESULT:    -5.928      3.550      5.560
REMARK INTER + INTRA:          -7.740
REMARK INTER:                  -7.111
REMARK INTRA:                  -0.629
REMARK UNBOUND:                -0.252
REMARK  Name = 
REMARK  5 active torsions:
REMARK  status: ('A' for Active; 'I' for Inactive)
REMARK    1  A    between atoms: N_1  and  C_2
REMARK    2  A    between atoms: C_2  and  C_3
REMARK    3  A    between atoms: C_6  and  C_7
REMARK    4  A    between atoms: C_7  and  N_8
REMARK    5  A    between atoms: C_13  and  C_14
REMARK                            x       y       z     vdW  Elec       q    Type
REMARK                         _______ _______ _______ _____ _____    ______ ____
ROOT
ATOM      1  N   UNL     1      46.270   8.374  12.337  0.00  0.00    +0.000 N 
ATOM      2  C   UNL     1      45.314   9.206  11.814  0.00  0.00    +0.000 A 
ATOM      3  C   UNL     1      44.271   8.426  11.367  0.00  0.00    +0.000 A 
ATOM      4  C   UNL     1      44.593   7.071  11.649  0.00  0.00    +0.000 A 
ATOM      5  C   UNL     1      43.948   5.841  11.385  0.00  0.00    +0.000 A 
ATOM      6  C   UNL     1      44.541   4.639  11.802  0.00  0.00    +0.000 A 
ATOM      7  C   UNL     1      45.732   4.674  12.535  0.00  0.00    +0.000 A 
ATOM      8  C   UNL     1      46.376   5.881  12.827  0.00  0.00    +0.000 A 
ATOM      9  C   UNL     1      45.811   7.070  12.332  0.00  0.00    +0.000 A 
ENDROOT
BRANCH   6  10
ATOM     10  C   UNL     1      43.976   3.297  11.478  0.00  0.00    +0.000 C 
ATOM     11  N   UNL     1      43.755   2.412  12.495  0.00  0.00    +0.000 N 
ATOM     12  O   UNL     1      43.693   2.980  10.328  0.00  0.00    +0.000 OA
ATOM     13  H   UNL     1      43.931   2.586  13.471  0.00  0.00    +0.000 HD
ATOM     14  H   UNL     1      43.342   1.525  12.238  0.00  0.00    +0.000 HD
ENDBRANCH   6  10
BRANCH   1  15
ATOM     15  C   UNL     1      47.569   8.825  12.812  0.00  0.00    +0.000 C 
BRANCH  15  19
ATOM     16  C   UNL     1      51.672   8.996  11.323  0.00  0.00    +0.000 C 
ATOM     17  C   UNL     1      50.905   7.693  11.068  0.00  0.00    +0.000 C 
ATOM     18  C   UNL     1      49.610   7.604  11.870  0.00  0.00    +0.000 C 
ATOM     19  C   UNL     1      48.686   8.830  11.736  0.00  0.00    +0.000 C 
ATOM     20  C   UNL     1      49.460  10.157  11.828  0.00  0.00    +0.000 C 
ATOM     21  C   UNL     1      50.743  10.174  10.998  0.00  0.00    +0.000 C 
BRANCH  16  22
ATOM     22  C   UNL     1      52.242   9.116  12.753  0.00  0.00    +0.000 C 
BRANCH  22  23
ATOM     23  N   UNL     1      52.949   7.913  13.173  0.00  0.00    +0.000 NA
ATOM     24  H   UNL     1      53.369   8.069  14.090  0.00  0.00    +0.000 HD
ATOM     25  H   UNL     1      53.724   7.729  12.537  0.00  0.00    +0.000 HD
ENDBRANCH  22  23
ENDBRANCH  16  22
ENDBRANCH  15  19
ENDBRANCH   1  15
TORSDOF 5
ENDMDL
MODEL 6
REMARK VINA RESULT:    -5.852      4.804      6.625
REMARK INTER + INTRA:          -7.644
REMARK INTER:                  -7.051
REMARK INTRA:                  -0.593
REMARK UNBOUND:                -0.252
REMARK  Name = 
REMARK  5 active torsions:
REMARK  status: ('A' for Active; 'I' for Inactive)
REMARK    1  A    between atoms: N_1  and  C_2
REMARK    2  A    between atoms: C_2  and  C_3
REMARK    3  A    between atoms: C_6  and  C_7
REMARK    4  A    between atoms: C_7  and  N_8
REMARK    5  A    between atoms: C_13  and  C_14
REMARK                            x       y       z     vdW  Elec       q    Type
REMARK                         _______ _______ _______ _____ _____    ______ ____
ROOT
ATOM      1  N   UNL     1      46.281   5.095  13.551  0.00  0.00    +0.000 N 
ATOM      2  C   UNL     1      44.976   4.740  13.324  0.00  0.00    +0.000 A 
ATOM      3  C   UNL     1      44.331   5.826  12.775  0.00  0.00    +0.000 A 
ATOM      4  C   UNL     1      45.282   6.872  12.641  0.00  0.00    +0.000 A 
ATOM      5  C   UNL     1      45.201   8.212  12.197  0.00  0.00    +0.000 A 
ATOM      6  C   UNL     1      46.353   9.014  12.187  0.00  0.00    +0.000 A 
ATOM      7  C   UNL     1      47.584   8.460  12.553  0.00  0.00    +0.000 A 
ATOM      8  C   UNL     1      47.691   7.131  12.974  0.00  0.00    +0.000 A 
ATOM      9  C   UNL     1      46.516   6.364  13.056  0.00  0.00    +0.000 A 
ENDROOT
BRANCH   6  10
ATOM     10  C   UNL     1      46.333  10.462  11.826  0.00  0.00    +0.000 C 
ATOM     11  N   UNL     1      45.219  11.198  12.116  0.00  0.00    +0.000 N 
ATOM     12  O   UNL     1      47.295  11.004  11.293  0.00  0.00    +0.000 OA
ATOM     13  H   UNL     1      44.391  10.852  12.572  0.00  0.00    +0.000 HD
ATOM     14  H   UNL     1      45.257  12.182  11.883  0.00  0.00    +0.000 HD
ENDBRANCH   6  10
BRANCH   1  15
ATOM     15  C   UNL     1      47.251   4.244  14.224  0.00  0.00    +0.000 C 
BRANCH  15  19
ATOM     16  C   UNL     1      49.092   4.169  18.185  0.00  0.00    +0.000 C 
ATOM     17  C   UNL     1      48.640   5.539  17.666  0.00  0.00    +0.000 C 
ATOM     18  C   UNL     1      48.292   5.522  16.181  0.00  0.00    +0.000 C 
ATOM     19  C   UNL     1      47.304   4.415  15.764  0.00  0.00    +0.000 C 
ATOM     20  C   UNL     1      47.645   3.057  16.404  0.00  0.00    +0.000 C 
ATOM     21  C   UNL     1      47.980   3.152  17.893  0.00  0.00    +0.000 C 
BRANCH  16  22
ATOM     22  C   UNL     1      50.444   3.696  17.605  0.00  0.00    +0.000 C 
BRANCH  22  23
ATOM     23  N   UNL     1      50.729   2.303  17.927  0.00  0.00    +0.000 NA
ATOM     24  H   UNL     1      51.078   1.828  17.094  0.00  0.00    +0.000 HD
ATOM     25  H   UNL     1      49.866   1.825  18.182  0.00  0.00    +0.000 HD
ENDBRANCH  22  23
ENDBRANCH  16  22
ENDBRANCH  15  19
ENDBRANCH   1  15
TORSDOF 5
ENDMDL
MODEL 7
REMARK VINA RESULT:    -5.777      3.781      6.826
REMARK INTER + INTRA:          -7.549
REMARK INTER:                  -7.017
REMARK INTRA:                  -0.532
REMARK UNBOUND:                -0.252
REMARK  Name = 
REMARK  5 active torsions:
REMARK  status: ('A' for Active; 'I' for Inactive)
REMARK    1  A    between atoms: N_1  and  C_2
REMARK    2  A    between atoms: C_2  and  C_3
REMARK    3  A    between atoms: C_6  and  C_7
REMARK    4  A    between atoms: C_7  and  N_8
REMARK    5  A    between atoms: C_13  and  C_14
REMARK                            x       y       z     vdW  Elec       q    Type
REMARK                         _______ _______ _______ _____ _____    ______ ____
ROOT
ATOM      1  N   UNL     1      46.674   8.265  12.386  0.00  0.00    +0.000 N 
ATOM      2  C   UNL     1      46.098   9.508  12.347  0.00  0.00    +0.000 A 
ATOM      3  C   UNL     1      47.073  10.418  12.006  0.00  0.00    +0.000 A 
ATOM      4  C   UNL     1      48.283   9.700  11.808  0.00  0.00    +0.000 A 
ATOM      5  C   UNL     1      49.607  10.089  11.499  0.00  0.00    +0.000 A 
ATOM      6  C   UNL     1      50.608   9.113  11.369  0.00  0.00    +0.000 A 
ATOM      7  C   UNL     1      50.271   7.760  11.479  0.00  0.00    +0.000 A 
ATOM      8  C   UNL     1      48.964   7.352  11.761  0.00  0.00    +0.000 A 
ATOM      9  C   UNL     1      47.990   8.344  11.969  0.00  0.00    +0.000 A 
ENDROOT
BRANCH   6  10
ATOM     10  C   UNL     1      52.045   9.446  11.142  0.00  0.00    +0.000 C 
ATOM     11  N   UNL     1      52.998   8.541  11.517  0.00  0.00    +0.000 N 
ATOM     12  O   UNL     1      52.384  10.500  10.615  0.00  0.00    +0.000 OA
ATOM     13  H   UNL     1      52.820   7.643  11.934  0.00  0.00    +0.000 HD
ATOM     14  H   UNL     1      53.958   8.791  11.318  0.00  0.00    +0.000 HD
ENDBRANCH   6  10
BRANCH   1  15
ATOM     15  C   UNL     1      45.982   7.059  12.815  0.00  0.00    +0.000 C 
BRANCH  15  19
ATOM     16  C   UNL     1      43.298   4.157  10.955  0.00  0.00    +0.000 C 
ATOM     17  C   UNL     1      42.638   5.277  11.769  0.00  0.00    +0.000 C 
ATOM     18  C   UNL     1      43.637   6.056  12.619  0.00  0.00    +0.000 C 
ATOM     19  C   UNL     1      44.867   6.576  11.851  0.00  0.00    +0.000 C 
ATOM     20  C   UNL     1      45.454   5.515  10.902  0.00  0.00    +0.000 C 
ATOM     21  C   UNL     1      44.396   4.779  10.081  0.00  0.00    +0.000 C 
BRANCH  16  22
ATOM     22  C   UNL     1      43.860   3.006  11.818  0.00  0.00    +0.000 C 
BRANCH  22  23
ATOM     23  N   UNL     1      43.019   1.816  11.774  0.00  0.00    +0.000 NA
ATOM     24  H   UNL     1      42.683   1.674  10.822  0.00  0.00    +0.000 HD
ATOM     25  H   UNL     1      42.189   1.961  12.347  0.00  0.00    +0.000 HD
ENDBRANCH  22  23
ENDBRANCH  16  22
ENDBRANCH  15  19
ENDBRANCH   1  15
TORSDOF 5
ENDMDL
MODEL 8
REMARK VINA RESULT:    -5.674      3.967      6.035
REMARK INTER + INTRA:          -7.418
REMARK INTER:                  -6.898
REMARK INTRA:                  -0.520
REMARK UNBOUND:                -0.252
REMARK  Name = 
REMARK  5 active torsions:
REMARK  status: ('A' for Active; 'I' for Inactive)
REMARK    1  A    between atoms: N_1  and  C_2
REMARK    2  A    between atoms: C_2  and  C_3
REMARK    3  A    between atoms: C_6  and  C_7
REMARK    4  A    between atoms: C_7  and  N_8
REMARK    5  A    between atoms: C_13  and  C_14
REMARK                            x       y       z     vdW  Elec       q    Type
REMARK                         _______ _______ _______ _____ _____    ______ ____
ROOT
ATOM      1  N   UNL     1      47.664   6.758  13.896  0.00  0.00    +0.000 N 
ATOM      2  C   UNL     1      47.177   7.979  13.509  0.00  0.00    +0.000 A 
ATOM      3  C   UNL     1      46.106   7.764  12.672  0.00  0.00    +0.000 A 
ATOM      4  C   UNL     1      45.918   6.360  12.562  0.00  0.00    +0.000 A 
ATOM      5  C   UNL     1      45.026   5.551  11.821  0.00  0.00    +0.000 A 
ATOM      6  C   UNL     1      45.097   4.153  11.931  0.00  0.00    +0.000 A 
ATOM      7  C   UNL     1      46.005   3.576  12.826  0.00  0.00    +0.000 A 
ATOM      8  C   UNL     1      46.880   4.358  13.586  0.00  0.00    +0.000 A 
ATOM      9  C   UNL     1      46.852   5.752  13.404  0.00  0.00    +0.000 A 
ENDROOT
BRANCH   6  10
ATOM     10  C   UNL     1      44.261   3.229  11.112  0.00  0.00    +0.000 C 
ATOM     11  N   UNL     1      44.870   2.453  10.166  0.00  0.00    +0.000 N 
ATOM     12  O   UNL     1      43.049   3.140  11.279  0.00  0.00    +0.000 OA
ATOM     13  H   UNL     1      45.857   2.436   9.970  0.00  0.00    +0.000 HD
ATOM     14  H   UNL     1      44.272   1.818   9.653  0.00  0.00    +0.000 HD
ENDBRANCH   6  10
BRANCH   1  15
ATOM     15  C   UNL     1      48.864   6.576  14.698  0.00  0.00    +0.000 C 
BRANCH  15  19
ATOM     16  C   UNL     1      49.629   5.598  18.886  0.00  0.00    +0.000 C 
ATOM     17  C   UNL     1      49.824   7.063  18.479  0.00  0.00    +0.000 C 
ATOM     18  C   UNL     1      49.831   7.259  16.966  0.00  0.00    +0.000 C 
ATOM     19  C   UNL     1      48.631   6.631  16.231  0.00  0.00    +0.000 C 
ATOM     20  C   UNL     1      48.314   5.212  16.737  0.00  0.00    +0.000 C 
ATOM     21  C   UNL     1      48.321   5.093  18.261  0.00  0.00    +0.000 C 
BRANCH  16  22
ATOM     22  C   UNL     1      50.815   4.682  18.510  0.00  0.00    +0.000 C 
BRANCH  22  23
ATOM     23  N   UNL     1      51.535   4.196  19.681  0.00  0.00    +0.000 NA
ATOM     24  H   UNL     1      51.144   3.300  19.971  0.00  0.00    +0.000 HD
ATOM     25  H   UNL     1      51.391   4.833  20.462  0.00  0.00    +0.000 HD
ENDBRANCH  22  23
ENDBRANCH  16  22
ENDBRANCH  15  19
ENDBRANCH   1  15
TORSDOF 5
ENDMDL
MODEL 9
REMARK VINA RESULT:    -5.358      4.278      8.113
REMARK INTER + INTRA:          -7.020
REMARK INTER:                  -6.423
REMARK INTRA:                  -0.597
REMARK UNBOUND:                -0.252
REMARK  Name = 
REMARK  5 active torsions:
REMARK  status: ('A' for Active; 'I' for Inactive)
REMARK    1  A    between atoms: N_1  and  C_2
REMARK    2  A    between atoms: C_2  and  C_3
REMARK    3  A    between atoms: C_6  and  C_7
REMARK    4  A    between atoms: C_7  and  N_8
REMARK    5  A    between atoms: C_13  and  C_14
REMARK                            x       y       z     vdW  Elec       q    Type
REMARK                         _______ _______ _______ _____ _____    ______ ____
ROOT
ATOM      1  N   UNL     1      47.466   7.502  12.736  0.00  0.00    +0.000 N 
ATOM      2  C   UNL     1      47.471   8.817  12.350  0.00  0.00    +0.000 A 
ATOM      3  C   UNL     1      47.941   9.568  13.403  0.00  0.00    +0.000 A 
ATOM      4  C   UNL     1      48.257   8.676  14.463  0.00  0.00    +0.000 A 
ATOM      5  C   UNL     1      48.723   8.859  15.785  0.00  0.00    +0.000 A 
ATOM      6  C   UNL     1      48.941   7.743  16.609  0.00  0.00    +0.000 A 
ATOM      7  C   UNL     1      48.761   6.456  16.090  0.00  0.00    +0.000 A 
ATOM      8  C   UNL     1      48.323   6.251  14.778  0.00  0.00    +0.000 A 
ATOM      9  C   UNL     1      48.030   7.380  13.993  0.00  0.00    +0.000 A 
ENDROOT
BRANCH   6  10
ATOM     10  C   UNL     1      49.337   7.855  18.043  0.00  0.00    +0.000 C 
ATOM     11  N   UNL     1      48.561   8.601  18.885  0.00  0.00    +0.000 N 
ATOM     12  O   UNL     1      50.328   7.283  18.482  0.00  0.00    +0.000 OA
ATOM     13  H   UNL     1      47.718   9.087  18.626  0.00  0.00    +0.000 HD
ATOM     14  H   UNL     1      48.846   8.627  19.855  0.00  0.00    +0.000 HD
ENDBRANCH   6  10
BRANCH   1  15
ATOM     15  C   UNL     1      46.933   6.417  11.927  0.00  0.00    +0.000 C 
BRANCH  15  19
ATOM     16  C   UNL     1      43.125   4.283  11.756  0.00  0.00    +0.000 C 
ATOM     17  C   UNL     1      43.492   4.921  13.101  0.00  0.00    +0.000 C 
ATOM     18  C   UNL     1      44.947   5.377  13.160  0.00  0.00    +0.000 C 
ATOM     19  C   UNL     1      45.390   6.266  11.982  0.00  0.00    +0.000 C 
ATOM     20  C   UNL     1      44.894   5.729  10.627  0.00  0.00    +0.000 C 
ATOM     21  C   UNL     1      43.429   5.295  10.643  0.00  0.00    +0.000 C 
BRANCH  16  22
ATOM     22  C   UNL     1      43.832   2.935  11.490  0.00  0.00    +0.000 C 
BRANCH  22  23
ATOM     23  N   UNL     1      42.971   1.792  11.765  0.00  0.00    +0.000 NA
ATOM     24  H   UNL     1      42.644   1.394  10.885  0.00  0.00    +0.000 HD
ATOM     25  H   UNL     1      42.136   2.101  12.261  0.00  0.00    +0.000 HD
ENDBRANCH  22  23
ENDBRANCH  16  22
ENDBRANCH  15  19
ENDBRANCH   1  15
TORSDOF 5
ENDMDL
