MODEL 1
REMARK VINA RESULT:    -9.484      0.000      0.000
REMARK INTER + INTRA:         -13.290
REMARK INTER:                 -12.256
REMARK INTRA:                  -1.034
REMARK UNBOUND:                -1.034
REMARK  Name = 
REMARK  5 active torsions:
REMARK  status: ('A' for Active; 'I' for Inactive)
REMARK    1  A    between atoms: C_2  and  C_4
REMARK    2  A    between atoms: C_7  and  N_8
REMARK    3  A    between atoms: N_8  and  C_9
REMARK    4  A    between atoms: C_9  and  C_10
REMARK    5  A    between atoms: C_14  and  C_15
REMARK                            x       y       z     vdW  Elec       q    Type
REMARK                         _______ _______ _______ _____ _____    ______ ____
ROOT
ATOM      1  C   UNL     1      43.926   4.909  11.556  0.00  0.00    +0.000 C 
ATOM      2  C   UNL     1      42.684   5.058  12.427  0.00  0.00    +0.000 C 
ATOM      3  C   UNL     1      42.949   6.046  11.340  0.00  0.00    +0.000 C 
ENDROOT
BRANCH   1   4
ATOM      4  C   UNL     1      45.290   5.216  12.171  0.00  0.00    +0.000 A 
ATOM      5  C   UNL     1      46.093   6.269  11.708  0.00  0.00    +0.000 A 
ATOM      6  C   UNL     1      47.282   6.615  12.353  0.00  0.00    +0.000 A 
ATOM      7  C   UNL     1      47.681   5.923  13.498  0.00  0.00    +0.000 A 
ATOM      8  C   UNL     1      46.924   4.855  14.001  0.00  0.00    +0.000 A 
ATOM      9  C   UNL     1      45.752   4.508  13.300  0.00  0.00    +0.000 A 
BRANCH   8  10
ATOM     10  C   UNL     1      47.291   4.185  15.265  0.00  0.00    +0.000 A 
ATOM     11  C   UNL     1      47.134   4.782  16.517  0.00  0.00    +0.000 A 
ATOM     12  C   UNL     1      47.597   4.119  17.653  0.00  0.00    +0.000 A 
ATOM     13  C   UNL     1      48.200   2.877  17.517  0.00  0.00    +0.000 A 
ATOM     14  C   UNL     1      48.301   2.340  16.247  0.00  0.00    +0.000 A 
ATOM     15  N   UNL     1      47.857   2.958  15.131  0.00  0.00    +0.000 NA
ENDBRANCH   8  10
ENDBRANCH   1   4
BRANCH   1  16
ATOM     16  N   UNL     1      43.924   3.700  10.704  0.00  0.00    +0.000 N 
ATOM     17  H   UNL     1      43.713   2.845  11.216  0.00  0.00    +0.000 HD
BRANCH  16  21
ATOM     18  C   UNL     1      46.515   2.738   7.495  0.00  0.00    +0.000 A 
ATOM     19  C   UNL     1      46.146   4.070   7.701  0.00  0.00    +0.000 A 
ATOM     20  C   UNL     1      45.286   4.408   8.755  0.00  0.00    +0.000 A 
ATOM     21  C   UNL     1      44.828   3.440   9.652  0.00  0.00    +0.000 A 
ATOM     22  C   UNL     1      45.177   2.103   9.407  0.00  0.00    +0.000 A 
ATOM     23  C   UNL     1      46.009   1.749   8.341  0.00  0.00    +0.000 A 
BRANCH  18  25
ATOM     24  N   UNL     1      47.294   3.029   5.208  0.00  0.00    +0.000 N 
ATOM     25  C   UNL     1      47.400   2.329   6.375  0.00  0.00    +0.000 C 
ATOM     26  O   UNL     1      48.226   1.433   6.499  0.00  0.00    +0.000 OA
ATOM     27  H   UNL     1      47.993   2.823   4.505  0.00  0.00    +0.000 HD
ATOM     28  H   UNL     1      46.844   3.932   5.169  0.00  0.00    +0.000 HD
ENDBRANCH  18  25
ENDBRANCH  16  21
ENDBRANCH   1  16
TORSDOF 5
ENDMDL
MODEL 2
REMARK VINA RESULT:    -8.979      1.825      3.202
REMARK INTER + INTRA:         -12.637
REMARK INTER:                 -11.297
REMARK INTRA:                  -1.340
REMARK UNBOUND:                -1.034
REMARK  Name = 
REMARK  5 active torsions:
REMARK  status: ('A' for Active; 'I' for Inactive)
REMARK    1  A    between atoms: C_2  and  C_4
REMARK    2  A    between atoms: C_7  and  N_8
REMARK    3  A    between atoms: N_8  and  C_9
REMARK    4  A    between atoms: C_9  and  C_10
REMARK    5  A    between atoms: C_14  and  C_15
REMARK                            x       y       z     vdW  Elec       q    Type
REMARK                         _______ _______ _______ _____ _____    ______ ____
ROOT
ATOM      1  C   UNL     1      43.863   5.045  11.253  0.00  0.00    +0.000 C 
ATOM      2  C   UNL     1      42.531   5.432  11.886  0.00  0.00    +0.000 C 
ATOM      3  C   UNL     1      43.258   6.415  11.029  0.00  0.00    +0.000 C 
ENDROOT
BRANCH   1   4
ATOM      4  C   UNL     1      45.089   4.919  12.154  0.00  0.00    +0.000 A 
ATOM      5  C   UNL     1      45.353   3.754  12.891  0.00  0.00    +0.000 A 
ATOM      6  C   UNL     1      46.536   3.606  13.617  0.00  0.00    +0.000 A 
ATOM      7  C   UNL     1      47.495   4.619  13.602  0.00  0.00    +0.000 A 
ATOM      8  C   UNL     1      47.282   5.810  12.894  0.00  0.00    +0.000 A 
ATOM      9  C   UNL     1      46.059   5.941  12.206  0.00  0.00    +0.000 A 
BRANCH   8  10
ATOM     10  C   UNL     1      48.334   6.842  12.796  0.00  0.00    +0.000 A 
ATOM     11  C   UNL     1      48.521   7.635  11.663  0.00  0.00    +0.000 A 
ATOM     12  C   UNL     1      49.599   8.518  11.616  0.00  0.00    +0.000 A 
ATOM     13  C   UNL     1      50.464   8.592  12.699  0.00  0.00    +0.000 A 
ATOM     14  C   UNL     1      50.203   7.790  13.795  0.00  0.00    +0.000 A 
ATOM     15  N   UNL     1      49.163   6.931  13.868  0.00  0.00    +0.000 NA
ENDBRANCH   8  10
ENDBRANCH   1   4
BRANCH   1  16
ATOM     16  N   UNL     1      43.760   3.968  10.245  0.00  0.00    +0.000 N 
ATOM     17  H   UNL     1      43.267   3.143  10.583  0.00  0.00    +0.000 HD
BRANCH  16  21
ATOM     18  C   UNL     1      46.677   2.693   7.451  0.00  0.00    +0.000 A 
ATOM     19  C   UNL     1      46.376   4.054   7.553  0.00  0.00    +0.000 A 
ATOM     20  C   UNL     1      45.411   4.495   8.469  0.00  0.00    +0.000 A 
ATOM     21  C   UNL     1      44.775   3.601   9.334  0.00  0.00    +0.000 A 
ATOM     22  C   UNL     1      45.061   2.235   9.191  0.00  0.00    +0.000 A 
ATOM     23  C   UNL     1      46.000   1.780   8.261  0.00  0.00    +0.000 A 
BRANCH  18  25
ATOM     24  N   UNL     1      47.931   2.949   5.381  0.00  0.00    +0.000 N 
ATOM     25  C   UNL     1      47.672   2.177   6.477  0.00  0.00    +0.000 C 
ATOM     26  O   UNL     1      48.272   1.125   6.662  0.00  0.00    +0.000 OA
ATOM     27  H   UNL     1      48.703   2.645   4.801  0.00  0.00    +0.000 HD
ATOM     28  H   UNL     1      47.677   3.925   5.347  0.00  0.00    +0.000 HD
ENDBRANCH  18  25
ENDBRANCH  16  21
ENDBRANCH   1  16
TORSDOF 5
ENDMDL
MODEL 3
REMARK VINA RESULT:    -7.788      3.005      7.613
REMARK INTER + INTRA:         -11.098
REMARK INTER:                 -10.016
REMARK INTRA:                  -1.082
REMARK UNBOUND:                -1.034
REMARK  Name = 
REMARK  5 active torsions:
REMARK  status: ('A' for Active; 'I' for Inactive)
REMARK    1  A    between atoms: C_2  and  C_4
REMARK    2  A    between atoms: C_7  and  N_8
REMARK    3  A    between atoms: N_8  and  C_9
REMARK    4  A    between atoms: C_9  and  C_10
REMARK    5  A    between atoms: C_14  and  C_15
REMARK                            x       y       z     vdW  Elec       q    Type
REMARK                         _______ _______ _______ _____ _____    ______ ____
ROOT
ATOM      1  C   UNL     1      46.226   7.388  12.422  0.00  0.00    +0.000 C 
ATOM      2  C   UNL     1      46.367   8.770  11.796  0.00  0.00    +0.000 C 
ATOM      3  C   UNL     1      45.625   8.611  13.082  0.00  0.00    +0.000 C 
ENDROOT
BRANCH   1   4
ATOM      4  C   UNL     1      45.294   6.377  11.756  0.00  0.00    +0.000 A 
ATOM      5  C   UNL     1      43.906   6.403  11.957  0.00  0.00    +0.000 A 
ATOM      6  C   UNL     1      43.054   5.551  11.252  0.00  0.00    +0.000 A 
ATOM      7  C   UNL     1      43.576   4.667  10.308  0.00  0.00    +0.000 A 
ATOM      8  C   UNL     1      44.956   4.589  10.072  0.00  0.00    +0.000 A 
ATOM      9  C   UNL     1      45.789   5.434  10.832  0.00  0.00    +0.000 A 
BRANCH   8  10
ATOM     10  C   UNL     1      45.504   3.725   9.006  0.00  0.00    +0.000 A 
ATOM     11  C   UNL     1      45.504   2.331   9.080  0.00  0.00    +0.000 A 
ATOM     12  C   UNL     1      46.128   1.593   8.076  0.00  0.00    +0.000 A 
ATOM     13  C   UNL     1      46.735   2.260   7.020  0.00  0.00    +0.000 A 
ATOM     14  C   UNL     1      46.676   3.641   7.005  0.00  0.00    +0.000 A 
ATOM     15  N   UNL     1      46.073   4.380   7.961  0.00  0.00    +0.000 NA
ENDBRANCH   8  10
ENDBRANCH   1   4
BRANCH   1  16
ATOM     16  N   UNL     1      47.504   6.799  12.877  0.00  0.00    +0.000 N 
ATOM     17  H   UNL     1      48.080   6.443  12.116  0.00  0.00    +0.000 HD
BRANCH  16  21
ATOM     18  C   UNL     1      47.997   4.633  16.483  0.00  0.00    +0.000 A 
ATOM     19  C   UNL     1      47.187   4.105  15.473  0.00  0.00    +0.000 A 
ATOM     20  C   UNL     1      47.008   4.809  14.274  0.00  0.00    +0.000 A 
ATOM     21  C   UNL     1      47.674   6.014  14.038  0.00  0.00    +0.000 A 
ATOM     22  C   UNL     1      48.453   6.547  15.078  0.00  0.00    +0.000 A 
ATOM     23  C   UNL     1      48.614   5.869  16.290  0.00  0.00    +0.000 A 
BRANCH  18  25
ATOM     24  N   UNL     1      47.303   2.952  18.101  0.00  0.00    +0.000 N 
ATOM     25  C   UNL     1      48.194   3.936  17.780  0.00  0.00    +0.000 C 
ATOM     26  O   UNL     1      49.137   4.196  18.516  0.00  0.00    +0.000 OA
ATOM     27  H   UNL     1      47.530   2.403  18.921  0.00  0.00    +0.000 HD
ATOM     28  H   UNL     1      46.706   2.529  17.406  0.00  0.00    +0.000 HD
ENDBRANCH  18  25
ENDBRANCH  16  21
ENDBRANCH   1  16
TORSDOF 5
ENDMDL
MODEL 4
REMARK VINA RESULT:    -7.002      2.887      4.537
REMARK INTER + INTRA:         -10.083
REMARK INTER:                  -8.984
REMARK INTRA:                  -1.098
REMARK UNBOUND:                -1.034
REMARK  Name = 
REMARK  5 active torsions:
REMARK  status: ('A' for Active; 'I' for Inactive)
REMARK    1  A    between atoms: C_2  and  C_4
REMARK    2  A    between atoms: C_7  and  N_8
REMARK    3  A    between atoms: N_8  and  C_9
REMARK    4  A    between atoms: C_9  and  C_10
REMARK    5  A    between atoms: C_14  and  C_15
REMARK                            x       y       z     vdW  Elec       q    Type
REMARK                         _______ _______ _______ _____ _____    ______ ____
ROOT
ATOM      1  C   UNL     1      47.921   8.048  12.539  0.00  0.00    +0.000 C 
ATOM      2  C   UNL     1      48.628   9.113  11.709  0.00  0.00    +0.000 C 
ATOM      3  C   UNL     1      48.969   7.673  11.512  0.00  0.00    +0.000 C 
ENDROOT
BRANCH   1   4
ATOM      4  C   UNL     1      48.268   7.931  14.023  0.00  0.00    +0.000 A 
ATOM      5  C   UNL     1      48.324   9.054  14.862  0.00  0.00    +0.000 A 
ATOM      6  C   UNL     1      48.524   8.924  16.237  0.00  0.00    +0.000 A 
ATOM      7  C   UNL     1      48.651   7.656  16.807  0.00  0.00    +0.000 A 
ATOM      8  C   UNL     1      48.615   6.498  16.016  0.00  0.00    +0.000 A 
ATOM      9  C   UNL     1      48.452   6.671  14.627  0.00  0.00    +0.000 A 
BRANCH   8  10
ATOM     10  C   UNL     1      48.651   5.154  16.625  0.00  0.00    +0.000 A 
ATOM     11  C   UNL     1      47.508   4.381  16.834  0.00  0.00    +0.000 A 
ATOM     12  C   UNL     1      47.619   3.163  17.505  0.00  0.00    +0.000 A 
ATOM     13  C   UNL     1      48.865   2.742  17.947  0.00  0.00    +0.000 A 
ATOM     14  C   UNL     1      49.955   3.551  17.685  0.00  0.00    +0.000 A 
ATOM     15  N   UNL     1      49.876   4.732  17.034  0.00  0.00    +0.000 NA
ENDBRANCH   8  10
ENDBRANCH   1   4
BRANCH   1  16
ATOM     16  N   UNL     1      46.473   7.930  12.262  0.00  0.00    +0.000 N 
ATOM     17  H   UNL     1      45.902   8.569  12.813  0.00  0.00    +0.000 HD
BRANCH  16  21
ATOM     18  C   UNL     1      44.565   4.245  11.418  0.00  0.00    +0.000 A 
ATOM     19  C   UNL     1      44.600   4.711  12.735  0.00  0.00    +0.000 A 
ATOM     20  C   UNL     1      45.230   5.926  13.035  0.00  0.00    +0.000 A 
ATOM     21  C   UNL     1      45.782   6.722  12.028  0.00  0.00    +0.000 A 
ATOM     22  C   UNL     1      45.771   6.219  10.717  0.00  0.00    +0.000 A 
ATOM     23  C   UNL     1      45.173   4.994  10.410  0.00  0.00    +0.000 A 
BRANCH  18  25
ATOM     24  N   UNL     1      44.481   2.256  10.017  0.00  0.00    +0.000 N 
ATOM     25  C   UNL     1      43.933   2.950  11.057  0.00  0.00    +0.000 C 
ATOM     26  O   UNL     1      42.987   2.495  11.688  0.00  0.00    +0.000 OA
ATOM     27  H   UNL     1      44.122   1.321   9.872  0.00  0.00    +0.000 HD
ATOM     28  H   UNL     1      45.409   2.458   9.675  0.00  0.00    +0.000 HD
ENDBRANCH  18  25
ENDBRANCH  16  21
ENDBRANCH   1  16
TORSDOF 5
ENDMDL
MODEL 5
REMARK VINA RESULT:    -6.580      3.189      7.143
REMARK INTER + INTRA:          -9.537
REMARK INTER:                  -8.384
REMARK INTRA:                  -1.154
REMARK UNBOUND:                -1.034
REMARK  Name = 
REMARK  5 active torsions:
REMARK  status: ('A' for Active; 'I' for Inactive)
REMARK    1  A    between atoms: C_2  and  C_4
REMARK    2  A    between atoms: C_7  and  N_8
REMARK    3  A    between atoms: N_8  and  C_9
REMARK    4  A    between atoms: C_9  and  C_10
REMARK    5  A    between atoms: C_14  and  C_15
REMARK                            x       y       z     vdW  Elec       q    Type
REMARK                         _______ _______ _______ _____ _____    ______ ____
ROOT
ATOM      1  C   UNL     1      46.230   5.046  13.442  0.00  0.00    +0.000 C 
ATOM      2  C   UNL     1      45.946   4.309  14.746  0.00  0.00    +0.000 C 
ATOM      3  C   UNL     1      47.125   3.921  13.917  0.00  0.00    +0.000 C 
ENDROOT
BRANCH   1   4
ATOM      4  C   UNL     1      45.307   4.800  12.250  0.00  0.00    +0.000 A 
ATOM      5  C   UNL     1      44.032   5.381  12.166  0.00  0.00    +0.000 A 
ATOM      6  C   UNL     1      43.246   5.245  11.020  0.00  0.00    +0.000 A 
ATOM      7  C   UNL     1      43.733   4.540   9.920  0.00  0.00    +0.000 A 
ATOM      8  C   UNL     1      44.995   3.928   9.950  0.00  0.00    +0.000 A 
ATOM      9  C   UNL     1      45.743   4.051  11.138  0.00  0.00    +0.000 A 
BRANCH   8  10
ATOM     10  C   UNL     1      45.553   3.264   8.755  0.00  0.00    +0.000 A 
ATOM     11  C   UNL     1      45.810   1.893   8.695  0.00  0.00    +0.000 A 
ATOM     12  C   UNL     1      46.428   1.362   7.563  0.00  0.00    +0.000 A 
ATOM     13  C   UNL     1      46.774   2.208   6.518  0.00  0.00    +0.000 A 
ATOM     14  C   UNL     1      46.469   3.550   6.641  0.00  0.00    +0.000 A 
ATOM     15  N   UNL     1      45.865   4.090   7.722  0.00  0.00    +0.000 NA
ENDBRANCH   8  10
ENDBRANCH   1   4
BRANCH   1  16
ATOM     16  N   UNL     1      46.594   6.468  13.620  0.00  0.00    +0.000 N 
ATOM     17  H   UNL     1      45.806   7.104  13.517  0.00  0.00    +0.000 HD
BRANCH  16  21
ATOM     18  C   UNL     1      50.277   8.135  12.357  0.00  0.00    +0.000 A 
ATOM     19  C   UNL     1      49.272   7.903  11.414  0.00  0.00    +0.000 A 
ATOM     20  C   UNL     1      48.048   7.348  11.812  0.00  0.00    +0.000 A 
ATOM     21  C   UNL     1      47.783   7.071  13.155  0.00  0.00    +0.000 A 
ATOM     22  C   UNL     1      48.818   7.274  14.082  0.00  0.00    +0.000 A 
ATOM     23  C   UNL     1      50.053   7.799  13.693  0.00  0.00    +0.000 A 
BRANCH  18  25
ATOM     24  N   UNL     1      52.705   8.109  12.523  0.00  0.00    +0.000 N 
ATOM     25  C   UNL     1      51.599   8.696  11.978  0.00  0.00    +0.000 C 
ATOM     26  O   UNL     1      51.705   9.616  11.177  0.00  0.00    +0.000 OA
ATOM     27  H   UNL     1      53.595   8.417  12.152  0.00  0.00    +0.000 HD
ATOM     28  H   UNL     1      52.667   7.193  12.945  0.00  0.00    +0.000 HD
ENDBRANCH  18  25
ENDBRANCH  16  21
ENDBRANCH   1  16
TORSDOF 5
ENDMDL
