MODEL 1
REMARK VINA RESULT:    -8.828      0.000      0.000
REMARK INTER + INTRA:         -10.439
REMARK INTER:                 -10.377
REMARK INTRA:                  -0.062
REMARK UNBOUND:                -0.062
REMARK  Name = 
REMARK  3 active torsions:
REMARK  status: ('A' for Active; 'I' for Inactive)
REMARK    1  A    between atoms: C_2  and  C_4
REMARK    2  A    between atoms: N_8  and  C_9
REMARK    3  A    between atoms: C_9  and  C_10
REMARK                            x       y       z     vdW  Elec       q    Type
REMARK                         _______ _______ _______ _____ _____    ______ ____
ROOT
ATOM      1  C   UNL     1      46.452   2.727   7.531  0.00  0.00    +0.000 A 
ATOM      2  C   UNL     1      46.101   4.041   7.820  0.00  0.00    +0.000 A 
ATOM      3  C   UNL     1      45.255   4.297   8.902  0.00  0.00    +0.000 A 
ATOM      4  C   UNL     1      44.782   3.244   9.680  0.00  0.00    +0.000 A 
ATOM      5  N   UNL     1      43.933   3.425  10.776  0.00  0.00    +0.000 N 
ATOM      6  N   UNL     1      45.107   1.963   9.401  0.00  0.00    +0.000 NA
ATOM      7  C   UNL     1      45.921   1.729   8.334  0.00  0.00    +0.000 A 
ATOM      8  H   UNL     1      43.805   2.528  11.234  0.00  0.00    +0.000 HD
ENDROOT
BRANCH   1  10
ATOM      9  N   UNL     1      47.253   3.116   5.269  0.00  0.00    +0.000 N 
ATOM     10  C   UNL     1      47.331   2.355   6.407  0.00  0.00    +0.000 C 
ATOM     11  O   UNL     1      48.122   1.426   6.490  0.00  0.00    +0.000 OA
ATOM     12  H   UNL     1      47.919   2.902   4.536  0.00  0.00    +0.000 HD
ATOM     13  H   UNL     1      46.798   4.016   5.241  0.00  0.00    +0.000 HD
ENDBRANCH   1  10
BRANCH   5  14
ATOM     14  C   UNL     1      43.882   4.685  11.555  0.00  0.00    +0.000 C 
ATOM     15  C   UNL     1      42.546   5.107  12.156  0.00  0.00    +0.000 C 
ATOM     16  C   UNL     1      43.102   5.875  11.012  0.00  0.00    +0.000 C 
ATOM     17  F   UNL     1      43.559   7.154  11.285  0.00  0.00    +0.000 F 
BRANCH  14  18
ATOM     18  C   UNL     1      45.180   5.043  12.294  0.00  0.00    +0.000 A 
ATOM     19  C   UNL     1      46.009   6.066  11.812  0.00  0.00    +0.000 A 
ATOM     20  C   UNL     1      47.143   6.446  12.529  0.00  0.00    +0.000 A 
ATOM     21  C   UNL     1      47.438   5.780  13.705  0.00  0.00    +0.000 A 
ATOM     22  F   UNL     1      48.506   6.128  14.431  0.00  0.00    +0.000 F 
ATOM     23  C   UNL     1      46.604   4.759  14.116  0.00  0.00    +0.000 A 
ATOM     24  N   UNL     1      45.492   4.376  13.444  0.00  0.00    +0.000 NA
ENDBRANCH  14  18
ENDBRANCH   5  14
TORSDOF 3
ENDMDL
MODEL 2
REMARK VINA RESULT:    -6.986      3.486      6.657
REMARK INTER + INTRA:          -8.273
REMARK INTER:                  -8.637
REMARK INTRA:                   0.364
REMARK UNBOUND:                -0.062
REMARK  Name = 
REMARK  3 active torsions:
REMARK  status: ('A' for Active; 'I' for Inactive)
REMARK    1  A    between atoms: C_2  and  C_4
REMARK    2  A    between atoms: N_8  and  C_9
REMARK    3  A    between atoms: C_9  and  C_10
REMARK                            x       y       z     vdW  Elec       q    Type
REMARK                         _______ _______ _______ _____ _____    ______ ____
ROOT
ATOM      1  C   UNL     1      48.390   5.811  15.534  0.00  0.00    +0.000 A 
ATOM      2  C   UNL     1      48.062   6.341  14.291  0.00  0.00    +0.000 A 
ATOM      3  C   UNL     1      47.064   5.726  13.531  0.00  0.00    +0.000 A 
ATOM      4  C   UNL     1      46.407   4.602  14.024  0.00  0.00    +0.000 A 
ATOM      5  N   UNL     1      45.399   3.935  13.320  0.00  0.00    +0.000 N 
ATOM      6  N   UNL     1      46.726   4.072  15.225  0.00  0.00    +0.000 NA
ATOM      7  C   UNL     1      47.712   4.674  15.947  0.00  0.00    +0.000 A 
ATOM      8  H   UNL     1      45.013   3.213  13.920  0.00  0.00    +0.000 HD
ENDROOT
BRANCH   1  10
ATOM      9  N   UNL     1      49.029   7.248  17.388  0.00  0.00    +0.000 N 
ATOM     10  C   UNL     1      49.434   6.383  16.405  0.00  0.00    +0.000 C 
ATOM     11  O   UNL     1      50.612   6.077  16.281  0.00  0.00    +0.000 OA
ATOM     12  H   UNL     1      49.743   7.568  18.031  0.00  0.00    +0.000 HD
ATOM     13  H   UNL     1      48.066   7.342  17.673  0.00  0.00    +0.000 HD
ENDBRANCH   1  10
BRANCH   5  14
ATOM     14  C   UNL     1      44.556   4.601  12.300  0.00  0.00    +0.000 C 
ATOM     15  C   UNL     1      44.043   6.006  12.593  0.00  0.00    +0.000 C 
ATOM     16  C   UNL     1      43.086   4.870  12.595  0.00  0.00    +0.000 C 
ATOM     17  F   UNL     1      42.175   4.822  11.553  0.00  0.00    +0.000 F 
BRANCH  14  18
ATOM     18  C   UNL     1      44.864   4.207  10.847  0.00  0.00    +0.000 A 
ATOM     19  C   UNL     1      44.483   2.948  10.361  0.00  0.00    +0.000 A 
ATOM     20  C   UNL     1      44.689   2.623   9.021  0.00  0.00    +0.000 A 
ATOM     21  C   UNL     1      45.290   3.556   8.197  0.00  0.00    +0.000 A 
ATOM     22  F   UNL     1      45.488   3.290   6.901  0.00  0.00    +0.000 F 
ATOM     23  C   UNL     1      45.674   4.768   8.736  0.00  0.00    +0.000 A 
ATOM     24  N   UNL     1      45.478   5.113  10.032  0.00  0.00    +0.000 NA
ENDBRANCH  14  18
ENDBRANCH   5  14
TORSDOF 3
ENDMDL
MODEL 3
REMARK VINA RESULT:    -6.736      3.538      6.126
REMARK INTER + INTRA:          -7.980
REMARK INTER:                  -8.456
REMARK INTRA:                   0.477
REMARK UNBOUND:                -0.062
REMARK  Name = 
REMARK  3 active torsions:
REMARK  status: ('A' for Active; 'I' for Inactive)
REMARK    1  A    between atoms: C_2  and  C_4
REMARK    2  A    between atoms: N_8  and  C_9
REMARK    3  A    between atoms: C_9  and  C_10
REMARK                            x       y       z     vdW  Elec       q    Type
REMARK                         _______ _______ _______ _____ _____    ______ ____
ROOT
ATOM      1  C   UNL     1      48.322   6.749  13.612  0.00  0.00    +0.000 A 
ATOM      2  C   UNL     1      47.501   5.665  13.902  0.00  0.00    +0.000 A 
ATOM      3  C   UNL     1      46.336   5.475  13.155  0.00  0.00    +0.000 A 
ATOM      4  C   UNL     1      46.012   6.361  12.132  0.00  0.00    +0.000 A 
ATOM      5  N   UNL     1      44.864   6.234  11.345  0.00  0.00    +0.000 N 
ATOM      6  N   UNL     1      46.797   7.425  11.849  0.00  0.00    +0.000 NA
ATOM      7  C   UNL     1      47.922   7.604  12.596  0.00  0.00    +0.000 A 
ATOM      8  H   UNL     1      44.897   6.936  10.612  0.00  0.00    +0.000 HD
ENDROOT
BRANCH   1  10
ATOM      9  N   UNL     1      50.502   7.820  13.719  0.00  0.00    +0.000 N 
ATOM     10  C   UNL     1      49.567   7.039  14.347  0.00  0.00    +0.000 C 
ATOM     11  O   UNL     1      49.751   6.628  15.485  0.00  0.00    +0.000 OA
ATOM     12  H   UNL     1      51.314   8.080  14.265  0.00  0.00    +0.000 HD
ATOM     13  H   UNL     1      50.297   8.364  12.895  0.00  0.00    +0.000 HD
ENDBRANCH   1  10
BRANCH   5  14
ATOM     14  C   UNL     1      44.184   4.937  11.117  0.00  0.00    +0.000 C 
ATOM     15  C   UNL     1      42.691   4.845  11.412  0.00  0.00    +0.000 C 
ATOM     16  C   UNL     1      43.651   4.147  12.305  0.00  0.00    +0.000 C 
ATOM     17  F   UNL     1      43.663   2.763  12.247  0.00  0.00    +0.000 F 
BRANCH  14  18
ATOM     18  C   UNL     1      44.776   4.085   9.985  0.00  0.00    +0.000 A 
ATOM     19  C   UNL     1      45.451   4.697   8.918  0.00  0.00    +0.000 A 
ATOM     20  C   UNL     1      46.059   3.919   7.934  0.00  0.00    +0.000 A 
ATOM     21  C   UNL     1      45.964   2.543   8.024  0.00  0.00    +0.000 A 
ATOM     22  F   UNL     1      46.550   1.760   7.111  0.00  0.00    +0.000 F 
ATOM     23  C   UNL     1      45.261   1.994   9.079  0.00  0.00    +0.000 A 
ATOM     24  N   UNL     1      44.668   2.726  10.053  0.00  0.00    +0.000 NA
ENDBRANCH  14  18
ENDBRANCH   5  14
TORSDOF 3
ENDMDL
MODEL 4
REMARK VINA RESULT:    -6.438      3.836      6.444
REMARK INTER + INTRA:          -7.629
REMARK INTER:                  -7.842
REMARK INTRA:                   0.213
REMARK UNBOUND:                -0.062
REMARK  Name = 
REMARK  3 active torsions:
REMARK  status: ('A' for Active; 'I' for Inactive)
REMARK    1  A    between atoms: C_2  and  C_4
REMARK    2  A    between atoms: N_8  and  C_9
REMARK    3  A    between atoms: C_9  and  C_10
REMARK                            x       y       z     vdW  Elec       q    Type
REMARK                         _______ _______ _______ _____ _____    ______ ____
ROOT
ATOM      1  C   UNL     1      47.092   9.062  12.645  0.00  0.00    +0.000 A 
ATOM      2  C   UNL     1      47.349   7.744  13.001  0.00  0.00    +0.000 A 
ATOM      3  C   UNL     1      46.359   6.779  12.801  0.00  0.00    +0.000 A 
ATOM      4  C   UNL     1      45.136   7.143  12.245  0.00  0.00    +0.000 A 
ATOM      5  N   UNL     1      44.099   6.232  12.017  0.00  0.00    +0.000 N 
ATOM      6  N   UNL     1      44.870   8.423  11.906  0.00  0.00    +0.000 NA
ATOM      7  C   UNL     1      45.841   9.354  12.121  0.00  0.00    +0.000 A 
ATOM      8  H   UNL     1      43.354   6.712  11.521  0.00  0.00    +0.000 HD
ENDROOT
BRANCH   1  10
ATOM      9  N   UNL     1      47.590  11.437  12.802  0.00  0.00    +0.000 N 
ATOM     10  C   UNL     1      48.069  10.153  12.824  0.00  0.00    +0.000 C 
ATOM     11  O   UNL     1      49.256   9.927  13.018  0.00  0.00    +0.000 OA
ATOM     12  H   UNL     1      48.255  12.172  13.009  0.00  0.00    +0.000 HD
ATOM     13  H   UNL     1      46.609  11.658  12.882  0.00  0.00    +0.000 HD
ENDBRANCH   1  10
BRANCH   5  14
ATOM     14  C   UNL     1      44.332   4.783  11.811  0.00  0.00    +0.000 C 
ATOM     15  C   UNL     1      43.554   3.799  12.677  0.00  0.00    +0.000 C 
ATOM     16  C   UNL     1      45.012   3.967  12.903  0.00  0.00    +0.000 C 
ATOM     17  F   UNL     1      45.826   2.907  12.536  0.00  0.00    +0.000 F 
BRANCH  14  18
ATOM     18  C   UNL     1      44.703   4.384  10.375  0.00  0.00    +0.000 A 
ATOM     19  C   UNL     1      45.589   5.174   9.629  0.00  0.00    +0.000 A 
ATOM     20  C   UNL     1      45.989   4.767   8.356  0.00  0.00    +0.000 A 
ATOM     21  C   UNL     1      45.480   3.586   7.847  0.00  0.00    +0.000 A 
ATOM     22  F   UNL     1      45.855   3.151   6.639  0.00  0.00    +0.000 F 
ATOM     23  C   UNL     1      44.587   2.864   8.614  0.00  0.00    +0.000 A 
ATOM     24  N   UNL     1      44.188   3.232   9.855  0.00  0.00    +0.000 NA
ENDBRANCH  14  18
ENDBRANCH   5  14
TORSDOF 3
ENDMDL
