MODEL 1
REMARK VINA RESULT:    -8.430      0.000      0.000
REMARK INTER + INTRA:         -10.768
REMARK INTER:                 -10.401
REMARK INTRA:                  -0.367
REMARK UNBOUND:                -0.367
REMARK  Name = 
REMARK  4 active torsions:
REMARK  status: ('A' for Active; 'I' for Inactive)
REMARK    1  A    between atoms: C_2  and  C_4
REMARK    2  A    between atoms: C_7  and  C_8
REMARK    3  A    between atoms: C_8  and  S_9
REMARK    4  A    between atoms: S_9  and  C_10
REMARK                            x       y       z     vdW  Elec       q    Type
REMARK                         _______ _______ _______ _____ _____    ______ ____
ROOT
ATOM      1  S   UNL     1      44.237   4.112  12.119  0.00  0.00    +0.000 S 
ENDROOT
BRANCH   1   2
ATOM      2  C   UNL     1      45.736   4.832  12.785  0.00  0.00    +0.000 A 
ATOM      3  C   UNL     1      46.541   5.766  12.150  0.00  0.00    +0.000 A 
ATOM      4  C   UNL     1      47.643   6.245  12.839  0.00  0.00    +0.000 A 
ATOM      5  N   UNL     1      47.987   5.867  14.091  0.00  0.00    +0.000 NA
ATOM      6  C   UNL     1      47.231   4.937  14.707  0.00  0.00    +0.000 A 
ATOM      7  N   UNL     1      47.544   4.542  15.997  0.00  0.00    +0.000 N 
ATOM      8  C   UNL     1      48.231   5.476  16.885  0.00  0.00    +0.000 C 
ATOM      9  C   UNL     1      49.654   5.018  17.196  0.00  0.00    +0.000 C 
ATOM     10  C   UNL     1      49.680   3.565  17.660  0.00  0.00    +0.000 C 
ATOM     11  C   UNL     1      49.011   2.667  16.625  0.00  0.00    +0.000 C 
ATOM     12  C   UNL     1      47.578   3.123  16.338  0.00  0.00    +0.000 C 
ATOM     13  C   UNL     1      46.105   4.414  14.070  0.00  0.00    +0.000 A 
ENDBRANCH   1   2
BRANCH   1  14
ATOM     14  C   UNL     1      44.123   4.798  10.429  0.00  0.00    +0.000 C 
BRANCH  14  18
ATOM     15  C   UNL     1      46.483   2.573   7.700  0.00  0.00    +0.000 A 
ATOM     16  C   UNL     1      46.411   3.946   7.660  0.00  0.00    +0.000 A 
ATOM     17  N   UNL     1      45.667   4.684   8.517  0.00  0.00    +0.000 NA
ATOM     18  C   UNL     1      44.944   4.004   9.437  0.00  0.00    +0.000 A 
ATOM     19  N   UNL     1      44.934   2.657   9.539  0.00  0.00    +0.000 NA
ATOM     20  C   UNL     1      45.696   1.971   8.655  0.00  0.00    +0.000 A 
BRANCH  15  22
ATOM     21  N   UNL     1      48.340   2.390   6.144  0.00  0.00    +0.000 N 
ATOM     22  C   UNL     1      47.318   1.763   6.802  0.00  0.00    +0.000 C 
ATOM     23  O   UNL     1      47.136   0.558   6.683  0.00  0.00    +0.000 OA
ATOM     24  H   UNL     1      48.967   1.789   5.621  0.00  0.00    +0.000 HD
ATOM     25  H   UNL     1      48.689   3.304   6.400  0.00  0.00    +0.000 HD
ENDBRANCH  15  22
ENDBRANCH  14  18
ENDBRANCH   1  14
TORSDOF 4
ENDMDL
MODEL 2
REMARK VINA RESULT:    -7.933      2.162      3.546
REMARK INTER + INTRA:         -10.155
REMARK INTER:                  -9.681
REMARK INTRA:                  -0.474
REMARK UNBOUND:                -0.367
REMARK  Name = 
REMARK  4 active torsions:
REMARK  status: ('A' for Active; 'I' for Inactive)
REMARK    1  A    between atoms: C_2  and  C_4
REMARK    2  A    between atoms: C_7  and  C_8
REMARK    3  A    between atoms: C_8  and  S_9
REMARK    4  A    between atoms: S_9  and  C_10
REMARK                            x       y       z     vdW  Elec       q    Type
REMARK                         _______ _______ _______ _____ _____    ______ ____
ROOT
ATOM      1  S   UNL     1      43.873   5.329  11.132  0.00  0.00    +0.000 S 
ENDROOT
BRANCH   1   2
ATOM      2  C   UNL     1      45.397   5.382  12.072  0.00  0.00    +0.000 A 
ATOM      3  C   UNL     1      45.797   4.455  13.023  0.00  0.00    +0.000 A 
ATOM      4  C   UNL     1      47.034   4.635  13.620  0.00  0.00    +0.000 A 
ATOM      5  N   UNL     1      47.880   5.651  13.339  0.00  0.00    +0.000 NA
ATOM      6  C   UNL     1      47.490   6.575  12.439  0.00  0.00    +0.000 A 
ATOM      7  N   UNL     1      48.341   7.618  12.112  0.00  0.00    +0.000 N 
ATOM      8  C   UNL     1      49.784   7.426  12.223  0.00  0.00    +0.000 C 
ATOM      9  C   UNL     1      50.384   8.273  13.343  0.00  0.00    +0.000 C 
ATOM     10  C   UNL     1      49.944   9.730  13.232  0.00  0.00    +0.000 C 
ATOM     11  C   UNL     1      48.422   9.822  13.206  0.00  0.00    +0.000 C 
ATOM     12  C   UNL     1      47.835   8.987  12.066  0.00  0.00    +0.000 C 
ATOM     13  C   UNL     1      46.256   6.453  11.798  0.00  0.00    +0.000 A 
ENDBRANCH   1   2
BRANCH   1  14
ATOM     14  C   UNL     1      43.738   3.589  10.595  0.00  0.00    +0.000 C 
BRANCH  14  18
ATOM     15  C   UNL     1      46.482   2.690   7.491  0.00  0.00    +0.000 A 
ATOM     16  C   UNL     1      45.995   3.960   7.696  0.00  0.00    +0.000 A 
ATOM     17  N   UNL     1      45.118   4.278   8.678  0.00  0.00    +0.000 NA
ATOM     18  C   UNL     1      44.695   3.265   9.469  0.00  0.00    +0.000 A 
ATOM     19  N   UNL     1      45.101   1.983   9.330  0.00  0.00    +0.000 NA
ATOM     20  C   UNL     1      45.977   1.724   8.331  0.00  0.00    +0.000 A 
BRANCH  15  22
ATOM     21  N   UNL     1      47.420   3.032   5.276  0.00  0.00    +0.000 N 
ATOM     22  C   UNL     1      47.463   2.340   6.455  0.00  0.00    +0.000 C 
ATOM     23  O   UNL     1      48.321   1.490   6.657  0.00  0.00    +0.000 OA
ATOM     24  H   UNL     1      48.177   2.850   4.626  0.00  0.00    +0.000 HD
ATOM     25  H   UNL     1      46.915   3.900   5.159  0.00  0.00    +0.000 HD
ENDBRANCH  15  22
ENDBRANCH  14  18
ENDBRANCH   1  14
TORSDOF 4
ENDMDL
MODEL 3
REMARK VINA RESULT:    -7.743      2.942      3.621
REMARK INTER + INTRA:          -9.920
REMARK INTER:                  -9.472
REMARK INTRA:                  -0.448
REMARK UNBOUND:                -0.367
REMARK  Name = 
REMARK  4 active torsions:
REMARK  status: ('A' for Active; 'I' for Inactive)
REMARK    1  A    between atoms: C_2  and  C_4
REMARK    2  A    between atoms: C_7  and  C_8
REMARK    3  A    between atoms: C_8  and  S_9
REMARK    4  A    between atoms: S_9  and  C_10
REMARK                            x       y       z     vdW  Elec       q    Type
REMARK                         _______ _______ _______ _____ _____    ______ ____
ROOT
ATOM      1  S   UNL     1      44.684   3.726  12.233  0.00  0.00    +0.000 S 
ENDROOT
BRANCH   1   2
ATOM      2  C   UNL     1      45.025   5.474  12.035  0.00  0.00    +0.000 A 
ATOM      3  C   UNL     1      44.151   6.419  11.521  0.00  0.00    +0.000 A 
ATOM      4  C   UNL     1      44.573   7.738  11.484  0.00  0.00    +0.000 A 
ATOM      5  N   UNL     1      45.779   8.168  11.916  0.00  0.00    +0.000 NA
ATOM      6  C   UNL     1      46.650   7.254  12.389  0.00  0.00    +0.000 A 
ATOM      7  N   UNL     1      47.887   7.664  12.858  0.00  0.00    +0.000 N 
ATOM      8  C   UNL     1      48.036   9.010  13.405  0.00  0.00    +0.000 C 
ATOM      9  C   UNL     1      48.914   9.888  12.517  0.00  0.00    +0.000 C 
ATOM     10  C   UNL     1      50.228   9.193  12.175  0.00  0.00    +0.000 C 
ATOM     11  C   UNL     1      49.957   7.835  11.536  0.00  0.00    +0.000 C 
ATOM     12  C   UNL     1      49.096   6.956  12.446  0.00  0.00    +0.000 C 
ATOM     13  C   UNL     1      46.288   5.908  12.456  0.00  0.00    +0.000 A 
ENDBRANCH   1   2
BRANCH   1  14
ATOM     14  C   UNL     1      43.780   3.271  10.712  0.00  0.00    +0.000 C 
BRANCH  14  18
ATOM     15  C   UNL     1      46.457   2.621   7.490  0.00  0.00    +0.000 A 
ATOM     16  C   UNL     1      45.947   3.864   7.783  0.00  0.00    +0.000 A 
ATOM     17  N   UNL     1      45.091   4.104   8.804  0.00  0.00    +0.000 NA
ATOM     18  C   UNL     1      44.713   3.036   9.545  0.00  0.00    +0.000 A 
ATOM     19  N   UNL     1      45.143   1.775   9.320  0.00  0.00    +0.000 NA
ATOM     20  C   UNL     1      45.997   1.595   8.284  0.00  0.00    +0.000 A 
BRANCH  15  22
ATOM     21  N   UNL     1      47.383   3.170   5.313  0.00  0.00    +0.000 N 
ATOM     22  C   UNL     1      47.418   2.355   6.411  0.00  0.00    +0.000 C 
ATOM     23  O   UNL     1      48.252   1.465   6.510  0.00  0.00    +0.000 OA
ATOM     24  H   UNL     1      48.127   3.037   4.637  0.00  0.00    +0.000 HD
ATOM     25  H   UNL     1      46.903   4.060   5.294  0.00  0.00    +0.000 HD
ENDBRANCH  15  22
ENDBRANCH  14  18
ENDBRANCH   1  14
TORSDOF 4
ENDMDL
MODEL 4
REMARK VINA RESULT:    -6.759      3.047      3.875
REMARK INTER + INTRA:          -8.706
REMARK INTER:                  -8.247
REMARK INTRA:                  -0.460
REMARK UNBOUND:                -0.367
REMARK  Name = 
REMARK  4 active torsions:
REMARK  status: ('A' for Active; 'I' for Inactive)
REMARK    1  A    between atoms: C_2  and  C_4
REMARK    2  A    between atoms: C_7  and  C_8
REMARK    3  A    between atoms: C_8  and  S_9
REMARK    4  A    between atoms: S_9  and  C_10
REMARK                            x       y       z     vdW  Elec       q    Type
REMARK                         _______ _______ _______ _____ _____    ______ ____
ROOT
ATOM      1  S   UNL     1      47.863   7.991  12.290  0.00  0.00    +0.000 S 
ENDROOT
BRANCH   1   2
ATOM      2  C   UNL     1      48.838   7.470  13.699  0.00  0.00    +0.000 A 
ATOM      3  C   UNL     1      50.149   7.836  13.960  0.00  0.00    +0.000 A 
ATOM      4  C   UNL     1      50.732   7.369  15.127  0.00  0.00    +0.000 A 
ATOM      5  N   UNL     1      50.108   6.582  16.032  0.00  0.00    +0.000 NA
ATOM      6  C   UNL     1      48.843   6.194  15.775  0.00  0.00    +0.000 A 
ATOM      7  N   UNL     1      48.168   5.404  16.691  0.00  0.00    +0.000 N 
ATOM      8  C   UNL     1      48.520   5.488  18.106  0.00  0.00    +0.000 C 
ATOM      9  C   UNL     1      49.176   4.202  18.603  0.00  0.00    +0.000 C 
ATOM     10  C   UNL     1      48.349   2.976  18.226  0.00  0.00    +0.000 C 
ATOM     11  C   UNL     1      48.109   2.943  16.721  0.00  0.00    +0.000 C 
ATOM     12  C   UNL     1      47.431   4.228  16.239  0.00  0.00    +0.000 C 
ATOM     13  C   UNL     1      48.196   6.630  14.618  0.00  0.00    +0.000 A 
ENDBRANCH   1   2
BRANCH   1  14
ATOM     14  C   UNL     1      46.133   7.799  12.845  0.00  0.00    +0.000 C 
BRANCH  14  18
ATOM     15  C   UNL     1      44.453   4.169  11.440  0.00  0.00    +0.000 A 
ATOM     16  C   UNL     1      45.225   4.979  10.641  0.00  0.00    +0.000 A 
ATOM     17  N   UNL     1      45.776   6.143  11.060  0.00  0.00    +0.000 NA
ATOM     18  C   UNL     1      45.511   6.518  12.333  0.00  0.00    +0.000 A 
ATOM     19  N   UNL     1      44.746   5.800  13.185  0.00  0.00    +0.000 NA
ATOM     20  C   UNL     1      44.221   4.645  12.711  0.00  0.00    +0.000 A 
BRANCH  15  22
ATOM     21  N   UNL     1      44.445   2.272   9.923  0.00  0.00    +0.000 N 
ATOM     22  C   UNL     1      43.884   2.885  11.010  0.00  0.00    +0.000 C 
ATOM     23  O   UNL     1      42.970   2.357  11.630  0.00  0.00    +0.000 OA
ATOM     24  H   UNL     1      44.109   1.337   9.718  0.00  0.00    +0.000 HD
ATOM     25  H   UNL     1      45.346   2.527   9.543  0.00  0.00    +0.000 HD
ENDBRANCH  15  22
ENDBRANCH  14  18
ENDBRANCH   1  14
TORSDOF 4
ENDMDL
MODEL 5
REMARK VINA RESULT:    -6.495      4.098      8.037
REMARK INTER + INTRA:          -8.381
REMARK INTER:                  -8.057
REMARK INTRA:                  -0.324
REMARK UNBOUND:                -0.367
REMARK  Name = 
REMARK  4 active torsions:
REMARK  status: ('A' for Active; 'I' for Inactive)
REMARK    1  A    between atoms: C_2  and  C_4
REMARK    2  A    between atoms: C_7  and  C_8
REMARK    3  A    between atoms: C_8  and  S_9
REMARK    4  A    between atoms: S_9  and  C_10
REMARK                            x       y       z     vdW  Elec       q    Type
REMARK                         _______ _______ _______ _____ _____    ______ ____
ROOT
ATOM      1  S   UNL     1      49.335   6.779  15.465  0.00  0.00    +0.000 S 
ENDROOT
BRANCH   1   2
ATOM      2  C   UNL     1      47.991   7.157  14.342  0.00  0.00    +0.000 A 
ATOM      3  C   UNL     1      47.514   8.424  14.044  0.00  0.00    +0.000 A 
ATOM      4  C   UNL     1      46.492   8.529  13.115  0.00  0.00    +0.000 A 
ATOM      5  N   UNL     1      45.928   7.479  12.476  0.00  0.00    +0.000 NA
ATOM      6  C   UNL     1      46.362   6.240  12.779  0.00  0.00    +0.000 A 
ATOM      7  N   UNL     1      45.820   5.144  12.128  0.00  0.00    +0.000 N 
ATOM      8  C   UNL     1      45.286   5.305  10.779  0.00  0.00    +0.000 C 
ATOM      9  C   UNL     1      43.769   5.136  10.747  0.00  0.00    +0.000 C 
ATOM     10  C   UNL     1      43.339   3.853  11.451  0.00  0.00    +0.000 C 
ATOM     11  C   UNL     1      43.881   3.825  12.876  0.00  0.00    +0.000 C 
ATOM     12  C   UNL     1      45.405   3.972  12.893  0.00  0.00    +0.000 C 
ATOM     13  C   UNL     1      47.391   6.064  13.706  0.00  0.00    +0.000 A 
ENDBRANCH   1   2
BRANCH   1  14
ATOM     14  C   UNL     1      48.596   5.631  16.679  0.00  0.00    +0.000 C 
BRANCH  14  18
ATOM     15  C   UNL     1      51.169   2.348  17.437  0.00  0.00    +0.000 A 
ATOM     16  C   UNL     1      49.897   2.186  16.939  0.00  0.00    +0.000 A 
ATOM     17  N   UNL     1      49.053   3.214  16.686  0.00  0.00    +0.000 NA
ATOM     18  C   UNL     1      49.503   4.457  16.975  0.00  0.00    +0.000 A 
ATOM     19  N   UNL     1      50.726   4.713  17.487  0.00  0.00    +0.000 NA
ATOM     20  C   UNL     1      51.528   3.646  17.720  0.00  0.00    +0.000 A 
BRANCH  15  22
ATOM     21  N   UNL     1      51.611   0.089  18.213  0.00  0.00    +0.000 N 
ATOM     22  C   UNL     1      52.109   1.245  17.678  0.00  0.00    +0.000 C 
ATOM     23  O   UNL     1      53.289   1.339  17.366  0.00  0.00    +0.000 OA
ATOM     24  H   UNL     1      52.256  -0.692  18.262  0.00  0.00    +0.000 HD
ATOM     25  H   UNL     1      50.624  -0.131  18.243  0.00  0.00    +0.000 HD
ENDBRANCH  15  22
ENDBRANCH  14  18
ENDBRANCH   1  14
TORSDOF 4
ENDMDL
MODEL 6
REMARK VINA RESULT:    -6.441      3.684      7.619
REMARK INTER + INTRA:          -8.314
REMARK INTER:                  -8.291
REMARK INTRA:                  -0.022
REMARK UNBOUND:                -0.367
REMARK  Name = 
REMARK  4 active torsions:
REMARK  status: ('A' for Active; 'I' for Inactive)
REMARK    1  A    between atoms: C_2  and  C_4
REMARK    2  A    between atoms: C_7  and  C_8
REMARK    3  A    between atoms: C_8  and  S_9
REMARK    4  A    between atoms: S_9  and  C_10
REMARK                            x       y       z     vdW  Elec       q    Type
REMARK                         _______ _______ _______ _____ _____    ______ ____
ROOT
ATOM      1  S   UNL     1      47.927   8.763  14.379  0.00  0.00    +0.000 S 
ENDROOT
BRANCH   1   2
ATOM      2  C   UNL     1      46.662   8.391  13.167  0.00  0.00    +0.000 A 
ATOM      3  C   UNL     1      45.812   9.310  12.572  0.00  0.00    +0.000 A 
ATOM      4  C   UNL     1      44.921   8.845  11.618  0.00  0.00    +0.000 A 
ATOM      5  N   UNL     1      44.825   7.555  11.225  0.00  0.00    +0.000 NA
ATOM      6  C   UNL     1      45.625   6.647  11.818  0.00  0.00    +0.000 A 
ATOM      7  N   UNL     1      45.567   5.320  11.424  0.00  0.00    +0.000 N 
ATOM      8  C   UNL     1      45.156   4.995  10.061  0.00  0.00    +0.000 C 
ATOM      9  C   UNL     1      43.803   4.288  10.031  0.00  0.00    +0.000 C 
ATOM     10  C   UNL     1      43.770   3.112  11.002  0.00  0.00    +0.000 C 
ATOM     11  C   UNL     1      44.134   3.576  12.408  0.00  0.00    +0.000 C 
ATOM     12  C   UNL     1      45.502   4.262  12.429  0.00  0.00    +0.000 C 
ATOM     13  C   UNL     1      46.547   7.048  12.786  0.00  0.00    +0.000 A 
ENDBRANCH   1   2
BRANCH   1  14
ATOM     14  C   UNL     1      49.090   7.360  14.259  0.00  0.00    +0.000 C 
BRANCH  14  18
ATOM     15  C   UNL     1      48.080   4.309  17.024  0.00  0.00    +0.000 A 
ATOM     16  C   UNL     1      49.002   5.287  17.313  0.00  0.00    +0.000 A 
ATOM     17  N   UNL     1      49.346   6.274  16.452  0.00  0.00    +0.000 NA
ATOM     18  C   UNL     1      48.752   6.256  15.236  0.00  0.00    +0.000 A 
ATOM     19  N   UNL     1      47.851   5.324  14.854  0.00  0.00    +0.000 NA
ATOM     20  C   UNL     1      47.547   4.360  15.755  0.00  0.00    +0.000 A 
BRANCH  15  22
ATOM     21  N   UNL     1      48.348   3.158  19.146  0.00  0.00    +0.000 N 
ATOM     22  C   UNL     1      47.668   3.257  17.963  0.00  0.00    +0.000 C 
ATOM     23  O   UNL     1      46.719   2.523  17.717  0.00  0.00    +0.000 OA
ATOM     24  H   UNL     1      47.972   2.501  19.821  0.00  0.00    +0.000 HD
ATOM     25  H   UNL     1      48.951   3.887  19.504  0.00  0.00    +0.000 HD
ENDBRANCH  15  22
ENDBRANCH  14  18
ENDBRANCH   1  14
TORSDOF 4
ENDMDL
MODEL 7
REMARK VINA RESULT:    -5.982      4.268      8.607
REMARK INTER + INTRA:          -7.748
REMARK INTER:                  -7.440
REMARK INTRA:                  -0.308
REMARK UNBOUND:                -0.367
REMARK  Name = 
REMARK  4 active torsions:
REMARK  status: ('A' for Active; 'I' for Inactive)
REMARK    1  A    between atoms: C_2  and  C_4
REMARK    2  A    between atoms: C_7  and  C_8
REMARK    3  A    between atoms: C_8  and  S_9
REMARK    4  A    between atoms: S_9  and  C_10
REMARK                            x       y       z     vdW  Elec       q    Type
REMARK                         _______ _______ _______ _____ _____    ______ ____
ROOT
ATOM      1  S   UNL     1      47.748   4.133  17.091  0.00  0.00    +0.000 S 
ENDROOT
BRANCH   1   2
ATOM      2  C   UNL     1      47.511   4.955  15.517  0.00  0.00    +0.000 A 
ATOM      3  C   UNL     1      48.270   6.007  15.027  0.00  0.00    +0.000 A 
ATOM      4  C   UNL     1      47.967   6.490  13.765  0.00  0.00    +0.000 A 
ATOM      5  N   UNL     1      46.983   6.005  12.974  0.00  0.00    +0.000 NA
ATOM      6  C   UNL     1      46.219   5.003  13.451  0.00  0.00    +0.000 A 
ATOM      7  N   UNL     1      45.215   4.469  12.660  0.00  0.00    +0.000 N 
ATOM      8  C   UNL     1      45.348   4.515  11.207  0.00  0.00    +0.000 C 
ATOM      9  C   UNL     1      44.324   5.453  10.574  0.00  0.00    +0.000 C 
ATOM     10  C   UNL     1      42.914   5.152  11.072  0.00  0.00    +0.000 C 
ATOM     11  C   UNL     1      42.869   5.210  12.595  0.00  0.00    +0.000 C 
ATOM     12  C   UNL     1      43.884   4.248  13.218  0.00  0.00    +0.000 C 
ATOM     13  C   UNL     1      46.471   4.468  14.716  0.00  0.00    +0.000 A 
ENDBRANCH   1   2
BRANCH   1  14
ATOM     14  C   UNL     1      48.538   2.545  16.652  0.00  0.00    +0.000 C 
BRANCH  14  18
ATOM     15  C   UNL     1      52.549   2.337  18.010  0.00  0.00    +0.000 A 
ATOM     16  C   UNL     1      51.806   3.492  18.086  0.00  0.00    +0.000 A 
ATOM     17  N   UNL     1      50.524   3.590  17.661  0.00  0.00    +0.000 NA
ATOM     18  C   UNL     1      49.978   2.481  17.111  0.00  0.00    +0.000 A 
ATOM     19  N   UNL     1      50.636   1.308  16.974  0.00  0.00    +0.000 NA
ATOM     20  C   UNL     1      51.915   1.269  17.415  0.00  0.00    +0.000 A 
BRANCH  15  22
ATOM     21  N   UNL     1      54.131   2.295  19.853  0.00  0.00    +0.000 N 
ATOM     22  C   UNL     1      53.926   2.206  18.503  0.00  0.00    +0.000 C 
ATOM     23  O   UNL     1      54.854   1.978  17.738  0.00  0.00    +0.000 OA
ATOM     24  H   UNL     1      55.070   2.089  20.175  0.00  0.00    +0.000 HD
ATOM     25  H   UNL     1      53.387   2.222  20.535  0.00  0.00    +0.000 HD
ENDBRANCH  15  22
ENDBRANCH  14  18
ENDBRANCH   1  14
TORSDOF 4
ENDMDL
MODEL 8
REMARK VINA RESULT:    -5.749      3.486      5.812
REMARK INTER + INTRA:          -7.460
REMARK INTER:                  -7.161
REMARK INTRA:                  -0.299
REMARK UNBOUND:                -0.367
REMARK  Name = 
REMARK  4 active torsions:
REMARK  status: ('A' for Active; 'I' for Inactive)
REMARK    1  A    between atoms: C_2  and  C_4
REMARK    2  A    between atoms: C_7  and  C_8
REMARK    3  A    between atoms: C_8  and  S_9
REMARK    4  A    between atoms: S_9  and  C_10
REMARK                            x       y       z     vdW  Elec       q    Type
REMARK                         _______ _______ _______ _____ _____    ______ ____
ROOT
ATOM      1  S   UNL     1      47.480   3.794  16.403  0.00  0.00    +0.000 S 
ENDROOT
BRANCH   1   2
ATOM      2  C   UNL     1      48.151   4.567  17.874  0.00  0.00    +0.000 A 
ATOM      3  C   UNL     1      48.655   3.904  18.982  0.00  0.00    +0.000 A 
ATOM      4  C   UNL     1      49.174   4.670  20.013  0.00  0.00    +0.000 A 
ATOM      5  N   UNL     1      49.227   6.020  20.012  0.00  0.00    +0.000 NA
ATOM      6  C   UNL     1      48.712   6.678  18.954  0.00  0.00    +0.000 A 
ATOM      7  N   UNL     1      48.767   8.061  18.912  0.00  0.00    +0.000 N 
ATOM      8  C   UNL     1      49.840   8.757  19.617  0.00  0.00    +0.000 C 
ATOM      9  C   UNL     1      49.311   9.557  20.804  0.00  0.00    +0.000 C 
ATOM     10  C   UNL     1      48.140  10.445  20.398  0.00  0.00    +0.000 C 
ATOM     11  C   UNL     1      47.043   9.608  19.747  0.00  0.00    +0.000 C 
ATOM     12  C   UNL     1      47.581   8.829  18.544  0.00  0.00    +0.000 C 
ATOM     13  C   UNL     1      48.174   5.967  17.880  0.00  0.00    +0.000 A 
ENDBRANCH   1   2
BRANCH   1  14
ATOM     14  C   UNL     1      47.526   5.114  15.142  0.00  0.00    +0.000 C 
BRANCH  14  18
ATOM     15  C   UNL     1      44.984   4.229  11.866  0.00  0.00    +0.000 A 
ATOM     16  C   UNL     1      45.627   3.248  12.584  0.00  0.00    +0.000 A 
ATOM     17  N   UNL     1      46.444   3.498  13.634  0.00  0.00    +0.000 NA
ATOM     18  C   UNL     1      46.641   4.798  13.956  0.00  0.00    +0.000 A 
ATOM     19  N   UNL     1      46.070   5.830  13.297  0.00  0.00    +0.000 NA
ATOM     20  C   UNL     1      45.264   5.520  12.254  0.00  0.00    +0.000 A 
BRANCH  15  22
ATOM     21  N   UNL     1      43.691   5.029   9.972  0.00  0.00    +0.000 N 
ATOM     22  C   UNL     1      44.063   3.969  10.751  0.00  0.00    +0.000 C 
ATOM     23  O   UNL     1      43.680   2.834  10.498  0.00  0.00    +0.000 OA
ATOM     24  H   UNL     1      43.149   4.804   9.145  0.00  0.00    +0.000 HD
ATOM     25  H   UNL     1      44.172   5.919   9.975  0.00  0.00    +0.000 HD
ENDBRANCH  15  22
ENDBRANCH  14  18
ENDBRANCH   1  14
TORSDOF 4
ENDMDL
