MODEL 1
REMARK VINA RESULT:    -7.972      0.000      0.000
REMARK INTER + INTRA:         -11.834
REMARK INTER:                 -10.768
REMARK INTRA:                  -1.066
REMARK UNBOUND:                -1.066
REMARK  Name = 
REMARK  6 active torsions:
REMARK  status: ('A' for Active; 'I' for Inactive)
REMARK    1  A    between atoms: C_2  and  C_19
REMARK    2  A    between atoms: N_3  and  C_4
REMARK    3  A    between atoms: C_4  and  C_5
REMARK    4  A    between atoms: C_8  and  C_9
REMARK    5  A    between atoms: C_9  and  N_10
REMARK    6  A    between atoms: N_10  and  C_11
REMARK                            x       y       z     vdW  Elec       q    Type
REMARK                         _______ _______ _______ _____ _____    ______ ____
ROOT
ATOM      1  C   UNL     1      46.979   8.499  13.092  0.00  0.00    +0.000 C 
ENDROOT
BRANCH   1   2
ATOM      2  C   UNL     1      46.219   7.375  12.428  0.00  0.00    +0.000 A 
ATOM      3  C   UNL     1      46.761   6.666  11.345  0.00  0.00    +0.000 A 
ATOM      4  C   UNL     1      46.026   5.651  10.722  0.00  0.00    +0.000 A 
ATOM      5  C   UNL     1      44.727   5.343  11.150  0.00  0.00    +0.000 A 
ATOM      6  C   UNL     1      44.185   6.059  12.225  0.00  0.00    +0.000 A 
ATOM      7  C   UNL     1      44.918   7.071  12.849  0.00  0.00    +0.000 A 
BRANCH   5   8
ATOM      8  C   UNL     1      43.920   4.266  10.463  0.00  0.00    +0.000 C 
BRANCH   8   9
ATOM      9  N   UNL     1      44.123   4.324   9.019  0.00  0.00    +0.000 N 
ATOM     10  H   UNL     1      44.283   5.276   8.693  0.00  0.00    +0.000 HD
BRANCH   9  11
ATOM     11  C   UNL     1      45.012   3.406   8.448  0.00  0.00    +0.000 A 
ATOM     12  C   UNL     1      45.988   3.708   7.510  0.00  0.00    +0.000 A 
ATOM     13  N   UNL     1      46.893   2.834   7.012  0.00  0.00    +0.000 NA
ATOM     14  C   UNL     1      46.835   1.594   7.516  0.00  0.00    +0.000 A 
ATOM     15  N   UNL     1      45.977   1.169   8.451  0.00  0.00    +0.000 NA
ATOM     16  C   UNL     1      45.100   2.097   8.903  0.00  0.00    +0.000 A 
ENDBRANCH   9  11
ENDBRANCH   8   9
ENDBRANCH   5   8
ENDBRANCH   1   2
BRANCH   1  19
ATOM     17  O   UNL     1      49.320   6.928  13.646  0.00  0.00    +0.000 OA
ATOM     18  C   UNL     1      48.533   7.217  14.530  0.00  0.00    +0.000 C 
ATOM     19  N   UNL     1      47.455   8.068  14.380  0.00  0.00    +0.000 N 
ATOM     20  H   UNL     1      46.759   8.068  15.108  0.00  0.00    +0.000 HD
BRANCH  18  21
ATOM     21  C   UNL     1      48.485   6.540  15.822  0.00  0.00    +0.000 A 
ATOM     22  C   UNL     1      48.944   7.124  16.989  0.00  0.00    +0.000 A 
ATOM     23  S   UNL     1      49.301   5.945  18.185  0.00  0.00    +0.000 S 
ATOM     24  C   UNL     1      48.708   4.683  17.201  0.00  0.00    +0.000 A 
ATOM     25  N   UNL     1      48.841   3.371  17.530  0.00  0.00    +0.000 NA
ATOM     26  C   UNL     1      48.286   2.555  16.694  0.00  0.00    +0.000 A 
ATOM     27  N   UNL     1      47.565   2.931  15.587  0.00  0.00    +0.000 N 
ATOM     28  C   UNL     1      47.393   4.246  15.222  0.00  0.00    +0.000 A 
ATOM     29  O   UNL     1      46.688   4.569  14.274  0.00  0.00    +0.000 OA
ATOM     30  C   UNL     1      48.115   5.177  16.060  0.00  0.00    +0.000 A 
ATOM     31  H   UNL     1      47.078   2.249  15.024  0.00  0.00    +0.000 HD
ENDBRANCH  18  21
ENDBRANCH   1  19
TORSDOF 6
ENDMDL
MODEL 2
REMARK VINA RESULT:    -7.635      1.500      2.114
REMARK INTER + INTRA:         -11.380
REMARK INTER:                 -10.321
REMARK INTRA:                  -1.059
REMARK UNBOUND:                -1.066
REMARK  Name = 
REMARK  6 active torsions:
REMARK  status: ('A' for Active; 'I' for Inactive)
REMARK    1  A    between atoms: C_2  and  C_19
REMARK    2  A    between atoms: N_3  and  C_4
REMARK    3  A    between atoms: C_4  and  C_5
REMARK    4  A    between atoms: C_8  and  C_9
REMARK    5  A    between atoms: C_9  and  N_10
REMARK    6  A    between atoms: N_10  and  C_11
REMARK                            x       y       z     vdW  Elec       q    Type
REMARK                         _______ _______ _______ _____ _____    ______ ____
ROOT
ATOM      1  C   UNL     1      48.512   6.638  13.423  0.00  0.00    +0.000 C 
ENDROOT
BRANCH   1   2
ATOM      2  C   UNL     1      47.289   6.086  12.730  0.00  0.00    +0.000 A 
ATOM      3  C   UNL     1      46.655   4.919  13.184  0.00  0.00    +0.000 A 
ATOM      4  C   UNL     1      45.543   4.405  12.506  0.00  0.00    +0.000 A 
ATOM      5  C   UNL     1      45.059   5.031  11.348  0.00  0.00    +0.000 A 
ATOM      6  C   UNL     1      45.700   6.190  10.892  0.00  0.00    +0.000 A 
ATOM      7  C   UNL     1      46.809   6.705  11.569  0.00  0.00    +0.000 A 
BRANCH   5   8
ATOM      8  C   UNL     1      43.877   4.464  10.598  0.00  0.00    +0.000 C 
BRANCH   8   9
ATOM      9  N   UNL     1      44.154   4.429   9.166  0.00  0.00    +0.000 N 
ATOM     10  H   UNL     1      44.341   5.357   8.791  0.00  0.00    +0.000 HD
BRANCH   9  11
ATOM     11  C   UNL     1      45.059   3.469   8.700  0.00  0.00    +0.000 A 
ATOM     12  C   UNL     1      45.015   2.114   8.994  0.00  0.00    +0.000 A 
ATOM     13  N   UNL     1      45.848   1.176   8.486  0.00  0.00    +0.000 NA
ATOM     14  C   UNL     1      46.751   1.622   7.604  0.00  0.00    +0.000 A 
ATOM     15  N   UNL     1      46.885   2.890   7.196  0.00  0.00    +0.000 NA
ATOM     16  C   UNL     1      46.019   3.775   7.746  0.00  0.00    +0.000 A 
ENDBRANCH   9  11
ENDBRANCH   8   9
ENDBRANCH   5   8
ENDBRANCH   1   2
BRANCH   1  19
ATOM     17  O   UNL     1      50.318   7.383  15.530  0.00  0.00    +0.000 OA
ATOM     18  C   UNL     1      49.124   7.261  15.739  0.00  0.00    +0.000 C 
ATOM     19  N   UNL     1      48.172   7.031  14.765  0.00  0.00    +0.000 N 
ATOM     20  H   UNL     1      47.257   6.740  15.070  0.00  0.00    +0.000 HD
BRANCH  18  21
ATOM     21  C   UNL     1      48.547   7.125  17.072  0.00  0.00    +0.000 A 
ATOM     22  C   UNL     1      48.197   8.216  17.849  0.00  0.00    +0.000 A 
ATOM     23  S   UNL     1      48.108   7.801  19.514  0.00  0.00    +0.000 S 
ATOM     24  C   UNL     1      48.390   6.152  19.176  0.00  0.00    +0.000 A 
ATOM     25  N   UNL     1      48.596   5.228  20.152  0.00  0.00    +0.000 NA
ATOM     26  C   UNL     1      48.740   4.019  19.716  0.00  0.00    +0.000 A 
ATOM     27  N   UNL     1      48.645   3.639  18.399  0.00  0.00    +0.000 N 
ATOM     28  C   UNL     1      48.426   4.536  17.380  0.00  0.00    +0.000 A 
ATOM     29  O   UNL     1      48.272   4.175  16.220  0.00  0.00    +0.000 OA
ATOM     30  C   UNL     1      48.394   5.914  17.820  0.00  0.00    +0.000 A 
ATOM     31  H   UNL     1      48.676   2.666  18.133  0.00  0.00    +0.000 HD
ENDBRANCH  18  21
ENDBRANCH   1  19
TORSDOF 6
ENDMDL
MODEL 3
REMARK VINA RESULT:    -6.911      2.093      3.147
REMARK INTER + INTRA:         -10.401
REMARK INTER:                  -9.133
REMARK INTRA:                  -1.267
REMARK UNBOUND:                -1.066
REMARK  Name = 
REMARK  6 active torsions:
REMARK  status: ('A' for Active; 'I' for Inactive)
REMARK    1  A    between atoms: C_2  and  C_19
REMARK    2  A    between atoms: N_3  and  C_4
REMARK    3  A    between atoms: C_4  and  C_5
REMARK    4  A    between atoms: C_8  and  C_9
REMARK    5  A    between atoms: C_9  and  N_10
REMARK    6  A    between atoms: N_10  and  C_11
REMARK                            x       y       z     vdW  Elec       q    Type
REMARK                         _______ _______ _______ _____ _____    ______ ____
ROOT
ATOM      1  C   UNL     1      49.867   8.330  14.466  0.00  0.00    +0.000 C 
ENDROOT
BRANCH   1   2
ATOM      2  C   UNL     1      48.615   8.135  13.642  0.00  0.00    +0.000 A 
ATOM      3  C   UNL     1      47.401   8.740  14.003  0.00  0.00    +0.000 A 
ATOM      4  C   UNL     1      46.245   8.519  13.245  0.00  0.00    +0.000 A 
ATOM      5  C   UNL     1      46.273   7.670  12.129  0.00  0.00    +0.000 A 
ATOM      6  C   UNL     1      47.485   7.061  11.777  0.00  0.00    +0.000 A 
ATOM      7  C   UNL     1      48.639   7.282  12.532  0.00  0.00    +0.000 A 
BRANCH   5   8
ATOM      8  C   UNL     1      45.022   7.407  11.324  0.00  0.00    +0.000 C 
BRANCH   8   9
ATOM      9  N   UNL     1      45.177   6.194  10.528  0.00  0.00    +0.000 N 
ATOM     10  H   UNL     1      46.131   6.079  10.189  0.00  0.00    +0.000 HD
BRANCH   9  11
ATOM     11  C   UNL     1      44.642   5.006  11.038  0.00  0.00    +0.000 A 
ATOM     12  C   UNL     1      44.298   4.784  12.364  0.00  0.00    +0.000 A 
ATOM     13  N   UNL     1      43.714   3.661  12.843  0.00  0.00    +0.000 NA
ATOM     14  C   UNL     1      43.428   2.724  11.930  0.00  0.00    +0.000 A 
ATOM     15  N   UNL     1      43.665   2.815  10.616  0.00  0.00    +0.000 NA
ATOM     16  C   UNL     1      44.251   3.966  10.207  0.00  0.00    +0.000 A 
ENDBRANCH   9  11
ENDBRANCH   8   9
ENDBRANCH   5   8
ENDBRANCH   1   2
BRANCH   1  19
ATOM     17  O   UNL     1      51.372   6.311  15.849  0.00  0.00    +0.000 OA
ATOM     18  C   UNL     1      50.360   6.785  16.335  0.00  0.00    +0.000 C 
ATOM     19  N   UNL     1      49.649   7.842  15.801  0.00  0.00    +0.000 N 
ATOM     20  H   UNL     1      48.724   8.011  16.165  0.00  0.00    +0.000 HD
BRANCH  18  21
ATOM     21  C   UNL     1      49.627   6.169  17.437  0.00  0.00    +0.000 A 
ATOM     22  C   UNL     1      49.907   6.441  18.764  0.00  0.00    +0.000 A 
ATOM     23  S   UNL     1      49.332   5.196  19.797  0.00  0.00    +0.000 S 
ATOM     24  C   UNL     1      48.591   4.379  18.495  0.00  0.00    +0.000 A 
ATOM     25  N   UNL     1      48.036   3.144  18.624  0.00  0.00    +0.000 NA
ATOM     26  C   UNL     1      47.473   2.702  17.547  0.00  0.00    +0.000 A 
ATOM     27  N   UNL     1      47.366   3.400  16.368  0.00  0.00    +0.000 N 
ATOM     28  C   UNL     1      47.900   4.655  16.197  0.00  0.00    +0.000 A 
ATOM     29  O   UNL     1      47.735   5.295  15.165  0.00  0.00    +0.000 OA
ATOM     30  C   UNL     1      48.653   5.124  17.339  0.00  0.00    +0.000 A 
ATOM     31  H   UNL     1      46.834   3.035  15.592  0.00  0.00    +0.000 HD
ENDBRANCH  18  21
ENDBRANCH   1  19
TORSDOF 6
ENDMDL
MODEL 4
REMARK VINA RESULT:    -6.814      3.148      4.536
REMARK INTER + INTRA:         -10.270
REMARK INTER:                  -9.219
REMARK INTRA:                  -1.051
REMARK UNBOUND:                -1.066
REMARK  Name = 
REMARK  6 active torsions:
REMARK  status: ('A' for Active; 'I' for Inactive)
REMARK    1  A    between atoms: C_2  and  C_19
REMARK    2  A    between atoms: N_3  and  C_4
REMARK    3  A    between atoms: C_4  and  C_5
REMARK    4  A    between atoms: C_8  and  C_9
REMARK    5  A    between atoms: C_9  and  N_10
REMARK    6  A    between atoms: N_10  and  C_11
REMARK                            x       y       z     vdW  Elec       q    Type
REMARK                         _______ _______ _______ _____ _____    ______ ____
ROOT
ATOM      1  C   UNL     1      46.476   7.562  13.170  0.00  0.00    +0.000 C 
ENDROOT
BRANCH   1   2
ATOM      2  C   UNL     1      45.835   6.369  12.500  0.00  0.00    +0.000 A 
ATOM      3  C   UNL     1      45.787   5.115  13.129  0.00  0.00    +0.000 A 
ATOM      4  C   UNL     1      45.219   4.014  12.477  0.00  0.00    +0.000 A 
ATOM      5  C   UNL     1      44.713   4.138  11.175  0.00  0.00    +0.000 A 
ATOM      6  C   UNL     1      44.771   5.388  10.546  0.00  0.00    +0.000 A 
ATOM      7  C   UNL     1      45.336   6.488  11.197  0.00  0.00    +0.000 A 
BRANCH   5   8
ATOM      8  C   UNL     1      44.123   2.947  10.457  0.00  0.00    +0.000 C 
BRANCH   8   9
ATOM      9  N   UNL     1      44.277   3.098   9.014  0.00  0.00    +0.000 N 
ATOM     10  H   UNL     1      44.092   4.051   8.708  0.00  0.00    +0.000 HD
BRANCH   9  11
ATOM     11  C   UNL     1      45.422   2.556   8.419  0.00  0.00    +0.000 A 
ATOM     12  C   UNL     1      45.770   1.214   8.422  0.00  0.00    +0.000 A 
ATOM     13  N   UNL     1      46.840   0.681   7.786  0.00  0.00    +0.000 NA
ATOM     14  C   UNL     1      47.578   1.545   7.077  0.00  0.00    +0.000 A 
ATOM     15  N   UNL     1      47.342   2.856   6.951  0.00  0.00    +0.000 NA
ATOM     16  C   UNL     1      46.255   3.320   7.614  0.00  0.00    +0.000 A 
ENDBRANCH   9  11
ENDBRANCH   8   9
ENDBRANCH   5   8
ENDBRANCH   1   2
BRANCH   1  19
ATOM     17  O   UNL     1      49.038   6.295  13.471  0.00  0.00    +0.000 OA
ATOM     18  C   UNL     1      48.908   7.299  12.793  0.00  0.00    +0.000 C 
ATOM     19  N   UNL     1      47.700   7.898  12.492  0.00  0.00    +0.000 N 
ATOM     20  H   UNL     1      47.726   8.829  12.107  0.00  0.00    +0.000 HD
BRANCH  18  21
ATOM     21  C   UNL     1      50.024   8.142  12.375  0.00  0.00    +0.000 A 
ATOM     22  C   UNL     1      50.792   7.865  11.257  0.00  0.00    +0.000 A 
ATOM     23  S   UNL     1      52.323   8.639  11.338  0.00  0.00    +0.000 S 
ATOM     24  C   UNL     1      51.902   9.450  12.779  0.00  0.00    +0.000 A 
ATOM     25  N   UNL     1      52.796  10.175  13.501  0.00  0.00    +0.000 NA
ATOM     26  C   UNL     1      52.289  10.764  14.535  0.00  0.00    +0.000 A 
ATOM     27  N   UNL     1      50.961  10.738  14.885  0.00  0.00    +0.000 N 
ATOM     28  C   UNL     1      50.019  10.029  14.178  0.00  0.00    +0.000 A 
ATOM     29  O   UNL     1      48.827  10.073  14.460  0.00  0.00    +0.000 OA
ATOM     30  C   UNL     1      50.576   9.250  13.094  0.00  0.00    +0.000 A 
ATOM     31  H   UNL     1      50.612  11.294  15.652  0.00  0.00    +0.000 HD
ENDBRANCH  18  21
ENDBRANCH   1  19
TORSDOF 6
ENDMDL
MODEL 5
REMARK VINA RESULT:    -6.768      2.889      7.802
REMARK INTER + INTRA:         -10.208
REMARK INTER:                  -9.237
REMARK INTRA:                  -0.971
REMARK UNBOUND:                -1.066
REMARK  Name = 
REMARK  6 active torsions:
REMARK  status: ('A' for Active; 'I' for Inactive)
REMARK    1  A    between atoms: C_2  and  C_19
REMARK    2  A    between atoms: N_3  and  C_4
REMARK    3  A    between atoms: C_4  and  C_5
REMARK    4  A    between atoms: C_8  and  C_9
REMARK    5  A    between atoms: C_9  and  N_10
REMARK    6  A    between atoms: N_10  and  C_11
REMARK                            x       y       z     vdW  Elec       q    Type
REMARK                         _______ _______ _______ _____ _____    ______ ____
ROOT
ATOM      1  C   UNL     1      48.006   6.776  12.552  0.00  0.00    +0.000 C 
ENDROOT
BRANCH   1   2
ATOM      2  C   UNL     1      47.984   6.227  13.960  0.00  0.00    +0.000 A 
ATOM      3  C   UNL     1      48.781   6.782  14.973  0.00  0.00    +0.000 A 
ATOM      4  C   UNL     1      48.772   6.236  16.263  0.00  0.00    +0.000 A 
ATOM      5  C   UNL     1      47.988   5.112  16.557  0.00  0.00    +0.000 A 
ATOM      6  C   UNL     1      47.200   4.555  15.541  0.00  0.00    +0.000 A 
ATOM      7  C   UNL     1      47.208   5.100  14.255  0.00  0.00    +0.000 A 
BRANCH   5   8
ATOM      8  C   UNL     1      47.995   4.504  17.940  0.00  0.00    +0.000 C 
BRANCH   8   9
ATOM      9  N   UNL     1      48.556   3.157  17.899  0.00  0.00    +0.000 N 
ATOM     10  H   UNL     1      48.102   2.576  17.197  0.00  0.00    +0.000 HD
BRANCH   9  11
ATOM     11  C   UNL     1      49.950   3.032  17.879  0.00  0.00    +0.000 A 
ATOM     12  C   UNL     1      50.844   3.909  18.476  0.00  0.00    +0.000 A 
ATOM     13  N   UNL     1      52.187   3.749  18.518  0.00  0.00    +0.000 NA
ATOM     14  C   UNL     1      52.652   2.624  17.961  0.00  0.00    +0.000 A 
ATOM     15  N   UNL     1      51.909   1.671  17.385  0.00  0.00    +0.000 NA
ATOM     16  C   UNL     1      50.573   1.898  17.378  0.00  0.00    +0.000 A 
ENDBRANCH   9  11
ENDBRANCH   8   9
ENDBRANCH   5   8
ENDBRANCH   1   2
BRANCH   1  19
ATOM     17  O   UNL     1      45.608   8.105  11.693  0.00  0.00    +0.000 OA
ATOM     18  C   UNL     1      45.756   6.907  11.530  0.00  0.00    +0.000 C 
ATOM     19  N   UNL     1      46.920   6.212  11.796  0.00  0.00    +0.000 N 
ATOM     20  H   UNL     1      46.864   5.206  11.825  0.00  0.00    +0.000 HD
BRANCH  18  21
ATOM     21  C   UNL     1      44.660   5.990  11.232  0.00  0.00    +0.000 A 
ATOM     22  C   UNL     1      43.487   5.965  11.966  0.00  0.00    +0.000 A 
ATOM     23  S   UNL     1      42.665   4.468  11.788  0.00  0.00    +0.000 S 
ATOM     24  C   UNL     1      43.792   3.921  10.629  0.00  0.00    +0.000 A 
ATOM     25  N   UNL     1      43.792   2.649  10.149  0.00  0.00    +0.000 NA
ATOM     26  C   UNL     1      44.684   2.426   9.238  0.00  0.00    +0.000 A 
ATOM     27  N   UNL     1      45.539   3.371   8.725  0.00  0.00    +0.000 N 
ATOM     28  C   UNL     1      45.565   4.671   9.169  0.00  0.00    +0.000 A 
ATOM     29  O   UNL     1      46.282   5.520   8.653  0.00  0.00    +0.000 OA
ATOM     30  C   UNL     1      44.674   4.920  10.281  0.00  0.00    +0.000 A 
ATOM     31  H   UNL     1      46.149   3.156   7.950  0.00  0.00    +0.000 HD
ENDBRANCH  18  21
ENDBRANCH   1  19
TORSDOF 6
ENDMDL
MODEL 6
REMARK VINA RESULT:    -6.698      2.354      3.430
REMARK INTER + INTRA:         -10.114
REMARK INTER:                  -9.230
REMARK INTRA:                  -0.884
REMARK UNBOUND:                -1.066
REMARK  Name = 
REMARK  6 active torsions:
REMARK  status: ('A' for Active; 'I' for Inactive)
REMARK    1  A    between atoms: C_2  and  C_19
REMARK    2  A    between atoms: N_3  and  C_4
REMARK    3  A    between atoms: C_4  and  C_5
REMARK    4  A    between atoms: C_8  and  C_9
REMARK    5  A    between atoms: C_9  and  N_10
REMARK    6  A    between atoms: N_10  and  C_11
REMARK                            x       y       z     vdW  Elec       q    Type
REMARK                         _______ _______ _______ _____ _____    ______ ____
ROOT
ATOM      1  C   UNL     1      48.158   7.276  13.689  0.00  0.00    +0.000 C 
ENDROOT
BRANCH   1   2
ATOM      2  C   UNL     1      47.082   6.320  13.230  0.00  0.00    +0.000 A 
ATOM      3  C   UNL     1      47.099   4.967  13.600  0.00  0.00    +0.000 A 
ATOM      4  C   UNL     1      46.111   4.091  13.135  0.00  0.00    +0.000 A 
ATOM      5  C   UNL     1      45.103   4.543  12.272  0.00  0.00    +0.000 A 
ATOM      6  C   UNL     1      45.093   5.893  11.897  0.00  0.00    +0.000 A 
ATOM      7  C   UNL     1      46.078   6.769  12.362  0.00  0.00    +0.000 A 
BRANCH   5   8
ATOM      8  C   UNL     1      44.050   3.596  11.746  0.00  0.00    +0.000 C 
BRANCH   8   9
ATOM      9  N   UNL     1      43.798   3.853  10.332  0.00  0.00    +0.000 N 
ATOM     10  H   UNL     1      43.482   4.806  10.167  0.00  0.00    +0.000 HD
BRANCH   9  11
ATOM     11  C   UNL     1      44.769   3.443   9.411  0.00  0.00    +0.000 A 
ATOM     12  C   UNL     1      45.165   2.132   9.191  0.00  0.00    +0.000 A 
ATOM     13  N   UNL     1      46.053   1.730   8.251  0.00  0.00    +0.000 NA
ATOM     14  C   UNL     1      46.539   2.698   7.465  0.00  0.00    +0.000 A 
ATOM     15  N   UNL     1      46.220   3.997   7.535  0.00  0.00    +0.000 NA
ATOM     16  C   UNL     1      45.327   4.327   8.498  0.00  0.00    +0.000 A 
ENDBRANCH   9  11
ENDBRANCH   8   9
ENDBRANCH   5   8
ENDBRANCH   1   2
BRANCH   1  19
ATOM     17  O   UNL     1      50.339   6.613  15.438  0.00  0.00    +0.000 OA
ATOM     18  C   UNL     1      49.237   6.885  15.882  0.00  0.00    +0.000 C 
ATOM     19  N   UNL     1      48.172   7.335  15.127  0.00  0.00    +0.000 N 
ATOM     20  H   UNL     1      47.261   7.326  15.557  0.00  0.00    +0.000 HD
BRANCH  18  21
ATOM     21  C   UNL     1      48.814   6.572  17.243  0.00  0.00    +0.000 A 
ATOM     22  C   UNL     1      48.170   5.392  17.573  0.00  0.00    +0.000 A 
ATOM     23  S   UNL     1      47.299   5.541  19.045  0.00  0.00    +0.000 S 
ATOM     24  C   UNL     1      47.899   7.117  19.308  0.00  0.00    +0.000 A 
ATOM     25  N   UNL     1      47.449   7.915  20.313  0.00  0.00    +0.000 NA
ATOM     26  C   UNL     1      48.053   9.055  20.394  0.00  0.00    +0.000 A 
ATOM     27  N   UNL     1      49.101   9.452  19.599  0.00  0.00    +0.000 N 
ATOM     28  C   UNL     1      49.597   8.673  18.580  0.00  0.00    +0.000 A 
ATOM     29  O   UNL     1      50.577   9.008  17.926  0.00  0.00    +0.000 OA
ATOM     30  C   UNL     1      48.855   7.448  18.375  0.00  0.00    +0.000 A 
ATOM     31  H   UNL     1      49.590  10.317  19.772  0.00  0.00    +0.000 HD
ENDBRANCH  18  21
ENDBRANCH   1  19
TORSDOF 6
ENDMDL
MODEL 7
REMARK VINA RESULT:    -6.621      2.974      7.461
REMARK INTER + INTRA:         -10.009
REMARK INTER:                  -9.094
REMARK INTRA:                  -0.915
REMARK UNBOUND:                -1.066
REMARK  Name = 
REMARK  6 active torsions:
REMARK  status: ('A' for Active; 'I' for Inactive)
REMARK    1  A    between atoms: C_2  and  C_19
REMARK    2  A    between atoms: N_3  and  C_4
REMARK    3  A    between atoms: C_4  and  C_5
REMARK    4  A    between atoms: C_8  and  C_9
REMARK    5  A    between atoms: C_9  and  N_10
REMARK    6  A    between atoms: N_10  and  C_11
REMARK                            x       y       z     vdW  Elec       q    Type
REMARK                         _______ _______ _______ _____ _____    ______ ____
ROOT
ATOM      1  C   UNL     1      47.373   8.554  12.693  0.00  0.00    +0.000 C 
ENDROOT
BRANCH   1   2
ATOM      2  C   UNL     1      47.866   7.869  13.946  0.00  0.00    +0.000 A 
ATOM      3  C   UNL     1      48.300   8.605  15.059  0.00  0.00    +0.000 A 
ATOM      4  C   UNL     1      48.785   7.951  16.198  0.00  0.00    +0.000 A 
ATOM      5  C   UNL     1      48.871   6.552  16.236  0.00  0.00    +0.000 A 
ATOM      6  C   UNL     1      48.447   5.821  15.120  0.00  0.00    +0.000 A 
ATOM      7  C   UNL     1      47.960   6.472  13.984  0.00  0.00    +0.000 A 
BRANCH   5   8
ATOM      8  C   UNL     1      49.420   5.843  17.452  0.00  0.00    +0.000 C 
BRANCH   8   9
ATOM      9  N   UNL     1      49.028   4.437  17.439  0.00  0.00    +0.000 N 
ATOM     10  H   UNL     1      48.359   4.234  16.699  0.00  0.00    +0.000 HD
BRANCH   9  11
ATOM     11  C   UNL     1      50.042   3.477  17.524  0.00  0.00    +0.000 A 
ATOM     12  C   UNL     1      49.954   2.172  17.061  0.00  0.00    +0.000 A 
ATOM     13  N   UNL     1      50.959   1.266  17.079  0.00  0.00    +0.000 NA
ATOM     14  C   UNL     1      52.128   1.710  17.557  0.00  0.00    +0.000 A 
ATOM     15  N   UNL     1      52.371   2.949  18.000  0.00  0.00    +0.000 NA
ATOM     16  C   UNL     1      51.321   3.803  17.953  0.00  0.00    +0.000 A 
ENDBRANCH   9  11
ENDBRANCH   8   9
ENDBRANCH   5   8
ENDBRANCH   1   2
BRANCH   1  19
ATOM     17  O   UNL     1      44.708   7.850  11.880  0.00  0.00    +0.000 OA
ATOM     18  C   UNL     1      45.674   7.223  11.482  0.00  0.00    +0.000 C 
ATOM     19  N   UNL     1      46.990   7.566  11.719  0.00  0.00    +0.000 N 
ATOM     20  H   UNL     1      47.694   6.871  11.527  0.00  0.00    +0.000 HD
BRANCH  18  21
ATOM     21  C   UNL     1      45.583   5.898  10.878  0.00  0.00    +0.000 A 
ATOM     22  C   UNL     1      45.940   5.649   9.564  0.00  0.00    +0.000 A 
ATOM     23  S   UNL     1      45.207   4.214   8.972  0.00  0.00    +0.000 S 
ATOM     24  C   UNL     1      44.540   3.855  10.502  0.00  0.00    +0.000 A 
ATOM     25  N   UNL     1      43.659   2.839  10.698  0.00  0.00    +0.000 NA
ATOM     26  C   UNL     1      43.299   2.680  11.931  0.00  0.00    +0.000 A 
ATOM     27  N   UNL     1      43.779   3.409  12.992  0.00  0.00    +0.000 N 
ATOM     28  C   UNL     1      44.680   4.436  12.843  0.00  0.00    +0.000 A 
ATOM     29  O   UNL     1      45.153   5.029  13.805  0.00  0.00    +0.000 OA
ATOM     30  C   UNL     1      45.000   4.728  11.463  0.00  0.00    +0.000 A 
ATOM     31  H   UNL     1      43.528   3.175  13.942  0.00  0.00    +0.000 HD
ENDBRANCH  18  21
ENDBRANCH   1  19
TORSDOF 6
ENDMDL
MODEL 8
REMARK VINA RESULT:    -6.294      3.449      7.228
REMARK INTER + INTRA:          -9.568
REMARK INTER:                  -8.909
REMARK INTRA:                  -0.659
REMARK UNBOUND:                -1.066
REMARK  Name = 
REMARK  6 active torsions:
REMARK  status: ('A' for Active; 'I' for Inactive)
REMARK    1  A    between atoms: C_2  and  C_19
REMARK    2  A    between atoms: N_3  and  C_4
REMARK    3  A    between atoms: C_4  and  C_5
REMARK    4  A    between atoms: C_8  and  C_9
REMARK    5  A    between atoms: C_9  and  N_10
REMARK    6  A    between atoms: N_10  and  C_11
REMARK                            x       y       z     vdW  Elec       q    Type
REMARK                         _______ _______ _______ _____ _____    ______ ____
ROOT
ATOM      1  C   UNL     1      48.785   8.690  14.959  0.00  0.00    +0.000 C 
ENDROOT
BRANCH   1   2
ATOM      2  C   UNL     1      49.369   7.826  16.052  0.00  0.00    +0.000 A 
ATOM      3  C   UNL     1      50.555   7.102  15.858  0.00  0.00    +0.000 A 
ATOM      4  C   UNL     1      51.061   6.280  16.872  0.00  0.00    +0.000 A 
ATOM      5  C   UNL     1      50.378   6.145  18.089  0.00  0.00    +0.000 A 
ATOM      6  C   UNL     1      49.189   6.862  18.277  0.00  0.00    +0.000 A 
ATOM      7  C   UNL     1      48.684   7.683  17.266  0.00  0.00    +0.000 A 
BRANCH   5   8
ATOM      8  C   UNL     1      50.905   5.239  19.177  0.00  0.00    +0.000 C 
BRANCH   8   9
ATOM      9  N   UNL     1      49.986   4.128  19.401  0.00  0.00    +0.000 N 
ATOM     10  H   UNL     1      49.267   4.359  20.085  0.00  0.00    +0.000 HD
BRANCH   9  11
ATOM     11  C   UNL     1      49.467   3.474  18.277  0.00  0.00    +0.000 A 
ATOM     12  C   UNL     1      50.186   2.647  17.426  0.00  0.00    +0.000 A 
ATOM     13  N   UNL     1      49.668   1.958  16.383  0.00  0.00    +0.000 NA
ATOM     14  C   UNL     1      48.346   2.081  16.210  0.00  0.00    +0.000 A 
ATOM     15  N   UNL     1      47.521   2.809  16.973  0.00  0.00    +0.000 NA
ATOM     16  C   UNL     1      48.108   3.471  17.998  0.00  0.00    +0.000 A 
ENDBRANCH   9  11
ENDBRANCH   8   9
ENDBRANCH   5   8
ENDBRANCH   1   2
BRANCH   1  19
ATOM     17  O   UNL     1      48.807   6.395  13.230  0.00  0.00    +0.000 OA
ATOM     18  C   UNL     1      47.774   6.999  13.461  0.00  0.00    +0.000 C 
ATOM     19  N   UNL     1      47.650   8.029  14.373  0.00  0.00    +0.000 N 
ATOM     20  H   UNL     1      46.812   8.588  14.330  0.00  0.00    +0.000 HD
BRANCH  18  21
ATOM     21  C   UNL     1      46.565   6.868  12.656  0.00  0.00    +0.000 A 
ATOM     22  C   UNL     1      46.089   7.889  11.852  0.00  0.00    +0.000 A 
ATOM     23  S   UNL     1      44.419   7.690  11.504  0.00  0.00    +0.000 S 
ATOM     24  C   UNL     1      44.374   6.180  12.298  0.00  0.00    +0.000 A 
ATOM     25  N   UNL     1      43.217   5.503  12.523  0.00  0.00    +0.000 NA
ATOM     26  C   UNL     1      43.378   4.352  13.090  0.00  0.00    +0.000 A 
ATOM     27  N   UNL     1      44.591   3.791  13.406  0.00  0.00    +0.000 N 
ATOM     28  C   UNL     1      45.787   4.433  13.186  0.00  0.00    +0.000 A 
ATOM     29  O   UNL     1      46.864   3.893  13.407  0.00  0.00    +0.000 OA
ATOM     30  C   UNL     1      45.636   5.779  12.677  0.00  0.00    +0.000 A 
ATOM     31  H   UNL     1      44.654   2.850  13.764  0.00  0.00    +0.000 HD
ENDBRANCH  18  21
ENDBRANCH   1  19
TORSDOF 6
ENDMDL
MODEL 9
REMARK VINA RESULT:    -6.218      5.290      7.134
REMARK INTER + INTRA:          -9.465
REMARK INTER:                  -8.707
REMARK INTRA:                  -0.759
REMARK UNBOUND:                -1.066
REMARK  Name = 
REMARK  6 active torsions:
REMARK  status: ('A' for Active; 'I' for Inactive)
REMARK    1  A    between atoms: C_2  and  C_19
REMARK    2  A    between atoms: N_3  and  C_4
REMARK    3  A    between atoms: C_4  and  C_5
REMARK    4  A    between atoms: C_8  and  C_9
REMARK    5  A    between atoms: C_9  and  N_10
REMARK    6  A    between atoms: N_10  and  C_11
REMARK                            x       y       z     vdW  Elec       q    Type
REMARK                         _______ _______ _______ _____ _____    ______ ____
ROOT
ATOM      1  C   UNL     1      50.792   9.126  11.750  0.00  0.00    +0.000 C 
ENDROOT
BRANCH   1   2
ATOM      2  C   UNL     1      49.332   8.758  11.865  0.00  0.00    +0.000 A 
ATOM      3  C   UNL     1      48.373   9.690  12.292  0.00  0.00    +0.000 A 
ATOM      4  C   UNL     1      47.030   9.318  12.423  0.00  0.00    +0.000 A 
ATOM      5  C   UNL     1      46.623   8.003  12.157  0.00  0.00    +0.000 A 
ATOM      6  C   UNL     1      47.583   7.072  11.740  0.00  0.00    +0.000 A 
ATOM      7  C   UNL     1      48.924   7.443  11.607  0.00  0.00    +0.000 A 
BRANCH   5   8
ATOM      8  C   UNL     1      45.179   7.590  12.324  0.00  0.00    +0.000 C 
BRANCH   8   9
ATOM      9  N   UNL     1      44.755   6.763  11.199  0.00  0.00    +0.000 N 
ATOM     10  H   UNL     1      45.436   6.770  10.442  0.00  0.00    +0.000 HD
BRANCH   9  11
ATOM     11  C   UNL     1      44.277   5.478  11.478  0.00  0.00    +0.000 A 
ATOM     12  C   UNL     1      43.833   4.563  10.535  0.00  0.00    +0.000 A 
ATOM     13  N   UNL     1      43.438   3.295  10.799  0.00  0.00    +0.000 NA
ATOM     14  C   UNL     1      43.530   2.918  12.080  0.00  0.00    +0.000 A 
ATOM     15  N   UNL     1      43.975   3.676  13.089  0.00  0.00    +0.000 NA
ATOM     16  C   UNL     1      44.353   4.933  12.752  0.00  0.00    +0.000 A 
ENDBRANCH   9  11
ENDBRANCH   8   9
ENDBRANCH   5   8
ENDBRANCH   1   2
BRANCH   1  19
ATOM     17  O   UNL     1      53.535   8.337  11.415  0.00  0.00    +0.000 OA
ATOM     18  C   UNL     1      52.731   8.221  10.507  0.00  0.00    +0.000 C 
ATOM     19  N   UNL     1      51.374   8.455  10.619  0.00  0.00    +0.000 N 
ATOM     20  H   UNL     1      50.844   8.532   9.765  0.00  0.00    +0.000 HD
BRANCH  18  21
ATOM     21  C   UNL     1      53.111   8.024   9.111  0.00  0.00    +0.000 A 
ATOM     22  C   UNL     1      53.004   9.023   8.160  0.00  0.00    +0.000 A 
ATOM     23  S   UNL     1      52.953   8.376   6.570  0.00  0.00    +0.000 S 
ATOM     24  C   UNL     1      53.220   6.791   7.145  0.00  0.00    +0.000 A 
ATOM     25  N   UNL     1      53.145   5.697   6.341  0.00  0.00    +0.000 NA
ATOM     26  C   UNL     1      53.428   4.583   6.935  0.00  0.00    +0.000 A 
ATOM     27  N   UNL     1      53.830   4.467   8.243  0.00  0.00    +0.000 N 
ATOM     28  C   UNL     1      53.932   5.547   9.089  0.00  0.00    +0.000 A 
ATOM     29  O   UNL     1      54.361   5.438  10.231  0.00  0.00    +0.000 OA
ATOM     30  C   UNL     1      53.493   6.790   8.494  0.00  0.00    +0.000 A 
ATOM     31  H   UNL     1      54.125   3.579   8.622  0.00  0.00    +0.000 HD
ENDBRANCH  18  21
ENDBRANCH   1  19
TORSDOF 6
ENDMDL
