MODEL 1
REMARK VINA RESULT:    -8.995      0.000      0.000
REMARK INTER + INTRA:         -12.535
REMARK INTER:                 -11.625
REMARK INTRA:                  -0.910
REMARK UNBOUND:                -0.910
REMARK  Name = 
REMARK  7 active torsions:
REMARK  status: ('A' for Active; 'I' for Inactive)
REMARK    1  A    between atoms: C_1  and  C_2
REMARK    2  A    between atoms: C_6  and  C_7
REMARK    3  A    between atoms: N_8  and  C_9
REMARK    4  A    between atoms: C_13  and  C_14
REMARK    5  A    between atoms: C_14  and  O_15
REMARK    6  A    between atoms: O_15  and  C_16
REMARK    7  A    between atoms: C_19  and  C_20
REMARK                            x       y       z     vdW  Elec       q    Type
REMARK                         _______ _______ _______ _____ _____    ______ ____
ROOT
ATOM      1  C   UNL     1      46.812   5.986  12.930  0.00  0.00    +0.000 A 
ATOM      2  C   UNL     1      47.106   4.813  13.633  0.00  0.00    +0.000 A 
ATOM      3  C   UNL     1      46.292   3.700  13.495  0.00  0.00    +0.000 A 
ATOM      4  N   UNL     1      45.199   3.655  12.709  0.00  0.00    +0.000 NA
ATOM      5  C   UNL     1      44.910   4.778  12.012  0.00  0.00    +0.000 A 
ATOM      6  C   UNL     1      45.687   5.936  12.096  0.00  0.00    +0.000 A 
ENDROOT
BRANCH   1  14
ATOM      7  C   UNL     1      46.687   9.380  12.453  0.00  0.00    +0.000 C 
ATOM      8  C   UNL     1      46.984   8.371  13.564  0.00  0.00    +0.000 C 
ATOM      9  C   UNL     1      47.837   8.990  14.680  0.00  0.00    +0.000 C 
ATOM     10  C   UNL     1      49.307   9.103  14.305  0.00  0.00    +0.000 C 
ATOM     11  C   UNL     1      49.847   7.726  13.948  0.00  0.00    +0.000 C 
ATOM     12  C   UNL     1      49.062   7.055  12.817  0.00  0.00    +0.000 C 
ATOM     13  C   UNL     1      49.431   7.597  11.436  0.00  0.00    +0.000 C 
ATOM     14  N   UNL     1      47.604   7.128  13.051  0.00  0.00    +0.000 N 
ENDBRANCH   1  14
BRANCH   5  15
ATOM     15  C   UNL     1      43.692   4.746  11.116  0.00  0.00    +0.000 C 
BRANCH  15  16
ATOM     16  O   UNL     1      43.643   3.500  10.417  0.00  0.00    +0.000 OA
BRANCH  16  17
ATOM     17  C   UNL     1      44.561   3.315   9.422  0.00  0.00    +0.000 A 
ATOM     18  C   UNL     1      45.127   4.310   8.622  0.00  0.00    +0.000 A 
ATOM     19  C   UNL     1      46.083   3.981   7.651  0.00  0.00    +0.000 A 
ATOM     20  C   UNL     1      46.481   2.645   7.467  0.00  0.00    +0.000 A 
ATOM     21  C   UNL     1      45.898   1.663   8.265  0.00  0.00    +0.000 A 
ATOM     22  F   UNL     1      46.239   0.370   8.134  0.00  0.00    +0.000 F 
ATOM     23  C   UNL     1      44.948   1.988   9.229  0.00  0.00    +0.000 A 
BRANCH  20  24
ATOM     24  C   UNL     1      47.506   2.338   6.438  0.00  0.00    +0.000 C 
ATOM     25  N   UNL     1      47.406   2.962   5.225  0.00  0.00    +0.000 N 
ATOM     26  O   UNL     1      48.416   1.547   6.657  0.00  0.00    +0.000 OA
ATOM     27  H   UNL     1      46.671   3.623   5.004  0.00  0.00    +0.000 HD
ATOM     28  H   UNL     1      48.101   2.754   4.520  0.00  0.00    +0.000 HD
ENDBRANCH  20  24
ENDBRANCH  16  17
ENDBRANCH  15  16
ENDBRANCH   5  15
TORSDOF 5
ENDMDL
MODEL 2
REMARK VINA RESULT:    -8.403      1.229      1.525
REMARK INTER + INTRA:         -11.770
REMARK INTER:                 -11.037
REMARK INTRA:                  -0.733
REMARK UNBOUND:                -0.910
REMARK  Name = 
REMARK  7 active torsions:
REMARK  status: ('A' for Active; 'I' for Inactive)
REMARK    1  A    between atoms: C_1  and  C_2
REMARK    2  A    between atoms: C_6  and  C_7
REMARK    3  A    between atoms: N_8  and  C_9
REMARK    4  A    between atoms: C_13  and  C_14
REMARK    5  A    between atoms: C_14  and  O_15
REMARK    6  A    between atoms: O_15  and  C_16
REMARK    7  A    between atoms: C_19  and  C_20
REMARK                            x       y       z     vdW  Elec       q    Type
REMARK                         _______ _______ _______ _____ _____    ______ ____
ROOT
ATOM      1  C   UNL     1      46.801   6.022  12.922  0.00  0.00    +0.000 A 
ATOM      2  C   UNL     1      47.151   4.846  13.594  0.00  0.00    +0.000 A 
ATOM      3  C   UNL     1      46.340   3.726  13.500  0.00  0.00    +0.000 A 
ATOM      4  N   UNL     1      45.198   3.677  12.787  0.00  0.00    +0.000 NA
ATOM      5  C   UNL     1      44.854   4.803  12.120  0.00  0.00    +0.000 A 
ATOM      6  C   UNL     1      45.625   5.968  12.162  0.00  0.00    +0.000 A 
ENDROOT
BRANCH   1  14
ATOM      7  C   UNL     1      46.635   9.408  12.409  0.00  0.00    +0.000 C 
ATOM      8  C   UNL     1      46.979   8.416  13.520  0.00  0.00    +0.000 C 
ATOM      9  C   UNL     1      47.867   9.053  14.597  0.00  0.00    +0.000 C 
ATOM     10  C   UNL     1      49.322   9.172  14.167  0.00  0.00    +0.000 C 
ATOM     11  C   UNL     1      49.859   7.794  13.808  0.00  0.00    +0.000 C 
ATOM     12  C   UNL     1      49.038   7.104  12.714  0.00  0.00    +0.000 C 
ATOM     13  C   UNL     1      49.353   7.631  11.314  0.00  0.00    +0.000 C 
ATOM     14  N   UNL     1      47.589   7.170  13.001  0.00  0.00    +0.000 N 
ENDBRANCH   1  14
BRANCH   5  15
ATOM     15  C   UNL     1      43.580   4.767  11.306  0.00  0.00    +0.000 C 
BRANCH  15  16
ATOM     16  O   UNL     1      43.895   4.893   9.917  0.00  0.00    +0.000 OA
BRANCH  16  17
ATOM     17  C   UNL     1      44.618   3.879   9.354  0.00  0.00    +0.000 A 
ATOM     18  C   UNL     1      44.454   2.513   9.593  0.00  0.00    +0.000 A 
ATOM     19  C   UNL     1      45.252   1.575   8.924  0.00  0.00    +0.000 A 
ATOM     20  C   UNL     1      46.229   1.997   8.007  0.00  0.00    +0.000 A 
ATOM     21  C   UNL     1      46.389   3.364   7.788  0.00  0.00    +0.000 A 
ATOM     22  F   UNL     1      47.308   3.825   6.923  0.00  0.00    +0.000 F 
ATOM     23  C   UNL     1      45.598   4.296   8.452  0.00  0.00    +0.000 A 
BRANCH  20  24
ATOM     24  C   UNL     1      47.045   0.972   7.307  0.00  0.00    +0.000 C 
ATOM     25  N   UNL     1      46.781  -0.344   7.564  0.00  0.00    +0.000 N 
ATOM     26  O   UNL     1      47.934   1.287   6.524  0.00  0.00    +0.000 OA
ATOM     27  H   UNL     1      46.055  -0.647   8.202  0.00  0.00    +0.000 HD
ATOM     28  H   UNL     1      47.336  -1.046   7.091  0.00  0.00    +0.000 HD
ENDBRANCH  20  24
ENDBRANCH  16  17
ENDBRANCH  15  16
ENDBRANCH   5  15
TORSDOF 5
ENDMDL
MODEL 3
REMARK VINA RESULT:    -8.020      2.384      3.393
REMARK INTER + INTRA:         -11.274
REMARK INTER:                 -10.518
REMARK INTRA:                  -0.756
REMARK UNBOUND:                -0.910
REMARK  Name = 
REMARK  7 active torsions:
REMARK  status: ('A' for Active; 'I' for Inactive)
REMARK    1  A    between atoms: C_1  and  C_2
REMARK    2  A    between atoms: C_6  and  C_7
REMARK    3  A    between atoms: N_8  and  C_9
REMARK    4  A    between atoms: C_13  and  C_14
REMARK    5  A    between atoms: C_14  and  O_15
REMARK    6  A    between atoms: O_15  and  C_16
REMARK    7  A    between atoms: C_19  and  C_20
REMARK                            x       y       z     vdW  Elec       q    Type
REMARK                         _______ _______ _______ _____ _____    ______ ____
ROOT
ATOM      1  C   UNL     1      47.254   4.948  14.650  0.00  0.00    +0.000 A 
ATOM      2  C   UNL     1      47.536   6.157  14.006  0.00  0.00    +0.000 A 
ATOM      3  C   UNL     1      46.951   6.443  12.782  0.00  0.00    +0.000 A 
ATOM      4  N   UNL     1      46.101   5.619  12.139  0.00  0.00    +0.000 NA
ATOM      5  C   UNL     1      45.807   4.452  12.758  0.00  0.00    +0.000 A 
ATOM      6  C   UNL     1      46.353   4.098  13.994  0.00  0.00    +0.000 A 
ENDROOT
BRANCH   1  14
ATOM      7  C   UNL     1      49.962   5.716  16.608  0.00  0.00    +0.000 C 
ATOM      8  C   UNL     1      48.435   5.707  16.687  0.00  0.00    +0.000 C 
ATOM      9  C   UNL     1      47.940   5.649  18.139  0.00  0.00    +0.000 C 
ATOM     10  C   UNL     1      48.041   4.255  18.740  0.00  0.00    +0.000 C 
ATOM     11  C   UNL     1      47.249   3.275  17.887  0.00  0.00    +0.000 C 
ATOM     12  C   UNL     1      47.706   3.256  16.426  0.00  0.00    +0.000 C 
ATOM     13  C   UNL     1      48.990   2.453  16.217  0.00  0.00    +0.000 C 
ATOM     14  N   UNL     1      47.831   4.623  15.878  0.00  0.00    +0.000 N 
ENDBRANCH   1  14
BRANCH   5  15
ATOM     15  C   UNL     1      44.848   3.516  12.058  0.00  0.00    +0.000 C 
BRANCH  15  16
ATOM     16  O   UNL     1      44.412   4.106  10.830  0.00  0.00    +0.000 OA
BRANCH  16  17
ATOM     17  C   UNL     1      45.094   3.753   9.700  0.00  0.00    +0.000 A 
ATOM     18  C   UNL     1      45.688   4.624   8.786  0.00  0.00    +0.000 A 
ATOM     19  C   UNL     1      46.384   4.123   7.677  0.00  0.00    +0.000 A 
ATOM     20  C   UNL     1      46.488   2.737   7.469  0.00  0.00    +0.000 A 
ATOM     21  C   UNL     1      45.878   1.881   8.383  0.00  0.00    +0.000 A 
ATOM     22  F   UNL     1      45.944   0.547   8.235  0.00  0.00    +0.000 F 
ATOM     23  C   UNL     1      45.187   2.377   9.484  0.00  0.00    +0.000 A 
BRANCH  20  24
ATOM     24  C   UNL     1      47.244   2.244   6.290  0.00  0.00    +0.000 C 
ATOM     25  N   UNL     1      46.856   2.674   5.052  0.00  0.00    +0.000 N 
ATOM     26  O   UNL     1      48.188   1.472   6.413  0.00  0.00    +0.000 OA
ATOM     27  H   UNL     1      46.083   3.313   4.906  0.00  0.00    +0.000 HD
ATOM     28  H   UNL     1      47.367   2.339   4.245  0.00  0.00    +0.000 HD
ENDBRANCH  20  24
ENDBRANCH  16  17
ENDBRANCH  15  16
ENDBRANCH   5  15
TORSDOF 5
ENDMDL
MODEL 4
REMARK VINA RESULT:    -7.753      1.307      2.161
REMARK INTER + INTRA:         -10.929
REMARK INTER:                  -9.919
REMARK INTRA:                  -1.010
REMARK UNBOUND:                -0.910
REMARK  Name = 
REMARK  7 active torsions:
REMARK  status: ('A' for Active; 'I' for Inactive)
REMARK    1  A    between atoms: C_1  and  C_2
REMARK    2  A    between atoms: C_6  and  C_7
REMARK    3  A    between atoms: N_8  and  C_9
REMARK    4  A    between atoms: C_13  and  C_14
REMARK    5  A    between atoms: C_14  and  O_15
REMARK    6  A    between atoms: O_15  and  C_16
REMARK    7  A    between atoms: C_19  and  C_20
REMARK                            x       y       z     vdW  Elec       q    Type
REMARK                         _______ _______ _______ _____ _____    ______ ____
ROOT
ATOM      1  C   UNL     1      46.725   7.516  12.703  0.00  0.00    +0.000 A 
ATOM      2  C   UNL     1      45.659   8.343  12.336  0.00  0.00    +0.000 A 
ATOM      3  C   UNL     1      44.476   7.786  11.875  0.00  0.00    +0.000 A 
ATOM      4  N   UNL     1      44.263   6.462  11.748  0.00  0.00    +0.000 NA
ATOM      5  C   UNL     1      45.282   5.648  12.113  0.00  0.00    +0.000 A 
ATOM      6  C   UNL     1      46.500   6.137  12.592  0.00  0.00    +0.000 A 
ENDROOT
BRANCH   1  14
ATOM      7  C   UNL     1      50.038   7.735  11.842  0.00  0.00    +0.000 C 
ATOM      8  C   UNL     1      48.861   8.651  12.183  0.00  0.00    +0.000 C 
ATOM      9  C   UNL     1      49.334  10.031  12.659  0.00  0.00    +0.000 C 
ATOM     10  C   UNL     1      49.823  10.022  14.099  0.00  0.00    +0.000 C 
ATOM     11  C   UNL     1      48.714   9.517  15.009  0.00  0.00    +0.000 C 
ATOM     12  C   UNL     1      48.208   8.126  14.613  0.00  0.00    +0.000 C 
ATOM     13  C   UNL     1      49.141   7.004  15.068  0.00  0.00    +0.000 C 
ATOM     14  N   UNL     1      47.932   8.043  13.163  0.00  0.00    +0.000 N 
ENDBRANCH   1  14
BRANCH   5  15
ATOM     15  C   UNL     1      45.061   4.158  11.987  0.00  0.00    +0.000 C 
BRANCH  15  16
ATOM     16  O   UNL     1      44.312   3.883  10.800  0.00  0.00    +0.000 OA
BRANCH  16  17
ATOM     17  C   UNL     1      45.027   3.657   9.658  0.00  0.00    +0.000 A 
ATOM     18  C   UNL     1      45.519   4.628   8.784  0.00  0.00    +0.000 A 
ATOM     19  C   UNL     1      46.263   4.257   7.656  0.00  0.00    +0.000 A 
ATOM     20  C   UNL     1      46.520   2.901   7.388  0.00  0.00    +0.000 A 
ATOM     21  C   UNL     1      46.012   1.943   8.263  0.00  0.00    +0.000 A 
ATOM     22  F   UNL     1      46.225   0.633   8.057  0.00  0.00    +0.000 F 
ATOM     23  C   UNL     1      45.272   2.311   9.382  0.00  0.00    +0.000 A 
BRANCH  20  24
ATOM     24  C   UNL     1      47.325   2.547   6.191  0.00  0.00    +0.000 C 
ATOM     25  N   UNL     1      48.584   2.053   6.387  0.00  0.00    +0.000 N 
ATOM     26  O   UNL     1      46.883   2.694   5.057  0.00  0.00    +0.000 OA
ATOM     27  H   UNL     1      48.986   1.914   7.306  0.00  0.00    +0.000 HD
ATOM     28  H   UNL     1      49.137   1.813   5.574  0.00  0.00    +0.000 HD
ENDBRANCH  20  24
ENDBRANCH  16  17
ENDBRANCH  15  16
ENDBRANCH   5  15
TORSDOF 5
ENDMDL
MODEL 5
REMARK VINA RESULT:    -7.045      5.664      8.603
REMARK INTER + INTRA:         -10.014
REMARK INTER:                  -9.106
REMARK INTRA:                  -0.908
REMARK UNBOUND:                -0.910
REMARK  Name = 
REMARK  7 active torsions:
REMARK  status: ('A' for Active; 'I' for Inactive)
REMARK    1  A    between atoms: C_1  and  C_2
REMARK    2  A    between atoms: C_6  and  C_7
REMARK    3  A    between atoms: N_8  and  C_9
REMARK    4  A    between atoms: C_13  and  C_14
REMARK    5  A    between atoms: C_14  and  O_15
REMARK    6  A    between atoms: O_15  and  C_16
REMARK    7  A    between atoms: C_19  and  C_20
REMARK                            x       y       z     vdW  Elec       q    Type
REMARK                         _______ _______ _______ _____ _____    ______ ____
ROOT
ATOM      1  C   UNL     1      46.300   4.969  12.928  0.00  0.00    +0.000 A 
ATOM      2  C   UNL     1      47.065   6.140  12.912  0.00  0.00    +0.000 A 
ATOM      3  C   UNL     1      47.931   6.416  13.958  0.00  0.00    +0.000 A 
ATOM      4  N   UNL     1      48.101   5.618  15.030  0.00  0.00    +0.000 NA
ATOM      5  C   UNL     1      47.378   4.475  15.052  0.00  0.00    +0.000 A 
ATOM      6  C   UNL     1      46.490   4.126  14.031  0.00  0.00    +0.000 A 
ENDROOT
BRANCH   1  14
ATOM      7  C   UNL     1      43.722   6.346  11.133  0.00  0.00    +0.000 C 
ATOM      8  C   UNL     1      45.093   5.711  10.899  0.00  0.00    +0.000 C 
ATOM      9  C   UNL     1      45.234   5.170   9.470  0.00  0.00    +0.000 C 
ATOM     10  C   UNL     1      44.517   3.843   9.270  0.00  0.00    +0.000 C 
ATOM     11  C   UNL     1      45.054   2.821  10.261  0.00  0.00    +0.000 C 
ATOM     12  C   UNL     1      44.922   3.280  11.716  0.00  0.00    +0.000 C 
ATOM     13  C   UNL     1      43.503   3.117  12.263  0.00  0.00    +0.000 C 
ATOM     14  N   UNL     1      45.412   4.663  11.896  0.00  0.00    +0.000 N 
ENDBRANCH   1  14
BRANCH   5  15
ATOM     15  C   UNL     1      47.560   3.560  16.242  0.00  0.00    +0.000 C 
BRANCH  15  16
ATOM     16  O   UNL     1      48.477   4.151  17.166  0.00  0.00    +0.000 OA
BRANCH  16  17
ATOM     17  C   UNL     1      49.647   3.481  17.389  0.00  0.00    +0.000 A 
ATOM     18  C   UNL     1      49.892   2.132  17.124  0.00  0.00    +0.000 A 
ATOM     19  C   UNL     1      51.153   1.577  17.378  0.00  0.00    +0.000 A 
ATOM     20  C   UNL     1      52.187   2.370  17.906  0.00  0.00    +0.000 A 
ATOM     21  C   UNL     1      51.923   3.711  18.177  0.00  0.00    +0.000 A 
ATOM     22  F   UNL     1      52.872   4.516  18.682  0.00  0.00    +0.000 F 
ATOM     23  C   UNL     1      50.671   4.263  17.926  0.00  0.00    +0.000 A 
BRANCH  20  24
ATOM     24  C   UNL     1      53.514   1.749  18.148  0.00  0.00    +0.000 C 
ATOM     25  N   UNL     1      54.269   1.403  17.063  0.00  0.00    +0.000 N 
ATOM     26  O   UNL     1      53.927   1.545  19.284  0.00  0.00    +0.000 OA
ATOM     27  H   UNL     1      53.966   1.556  16.108  0.00  0.00    +0.000 HD
ATOM     28  H   UNL     1      55.173   0.978  17.223  0.00  0.00    +0.000 HD
ENDBRANCH  20  24
ENDBRANCH  16  17
ENDBRANCH  15  16
ENDBRANCH   5  15
TORSDOF 5
ENDMDL
MODEL 6
REMARK VINA RESULT:    -6.792      3.601      5.876
REMARK INTER + INTRA:          -9.687
REMARK INTER:                  -8.698
REMARK INTRA:                  -0.989
REMARK UNBOUND:                -0.910
REMARK  Name = 
REMARK  7 active torsions:
REMARK  status: ('A' for Active; 'I' for Inactive)
REMARK    1  A    between atoms: C_1  and  C_2
REMARK    2  A    between atoms: C_6  and  C_7
REMARK    3  A    between atoms: N_8  and  C_9
REMARK    4  A    between atoms: C_13  and  C_14
REMARK    5  A    between atoms: C_14  and  O_15
REMARK    6  A    between atoms: O_15  and  C_16
REMARK    7  A    between atoms: C_19  and  C_20
REMARK                            x       y       z     vdW  Elec       q    Type
REMARK                         _______ _______ _______ _____ _____    ______ ____
ROOT
ATOM      1  C   UNL     1      49.658   6.254  16.198  0.00  0.00    +0.000 A 
ATOM      2  C   UNL     1      50.906   6.884  16.171  0.00  0.00    +0.000 A 
ATOM      3  C   UNL     1      51.246   7.704  15.107  0.00  0.00    +0.000 A 
ATOM      4  N   UNL     1      50.441   7.953  14.056  0.00  0.00    +0.000 NA
ATOM      5  C   UNL     1      49.223   7.362  14.076  0.00  0.00    +0.000 A 
ATOM      6  C   UNL     1      48.808   6.528  15.117  0.00  0.00    +0.000 A 
ENDROOT
BRANCH   1  14
ATOM      7  C   UNL     1      50.516   3.274  17.662  0.00  0.00    +0.000 C 
ATOM      8  C   UNL     1      50.348   4.748  18.035  0.00  0.00    +0.000 C 
ATOM      9  C   UNL     1      50.114   4.931  19.541  0.00  0.00    +0.000 C 
ATOM     10  C   UNL     1      48.689   4.599  19.960  0.00  0.00    +0.000 C 
ATOM     11  C   UNL     1      47.715   5.468  19.178  0.00  0.00    +0.000 C 
ATOM     12  C   UNL     1      47.869   5.317  17.662  0.00  0.00    +0.000 C 
ATOM     13  C   UNL     1      47.220   4.042  17.123  0.00  0.00    +0.000 C 
ATOM     14  N   UNL     1      49.285   5.416  17.249  0.00  0.00    +0.000 N 
ENDBRANCH   1  14
BRANCH   5  15
ATOM     15  C   UNL     1      48.299   7.635  12.911  0.00  0.00    +0.000 C 
BRANCH  15  16
ATOM     16  O   UNL     1      46.941   7.457  13.323  0.00  0.00    +0.000 OA
BRANCH  16  17
ATOM     17  C   UNL     1      46.290   6.357  12.840  0.00  0.00    +0.000 A 
ATOM     18  C   UNL     1      45.779   5.299  13.595  0.00  0.00    +0.000 A 
ATOM     19  C   UNL     1      45.107   4.241  12.969  0.00  0.00    +0.000 A 
ATOM     20  C   UNL     1      44.941   4.229  11.573  0.00  0.00    +0.000 A 
ATOM     21  C   UNL     1      45.466   5.285  10.832  0.00  0.00    +0.000 A 
ATOM     22  F   UNL     1      45.338   5.327   9.496  0.00  0.00    +0.000 F 
ATOM     23  C   UNL     1      46.135   6.336  11.453  0.00  0.00    +0.000 A 
BRANCH  20  24
ATOM     24  C   UNL     1      44.210   3.097  10.948  0.00  0.00    +0.000 C 
ATOM     25  N   UNL     1      44.862   2.354  10.004  0.00  0.00    +0.000 N 
ATOM     26  O   UNL     1      43.054   2.831  11.260  0.00  0.00    +0.000 OA
ATOM     27  H   UNL     1      45.817   2.538   9.719  0.00  0.00    +0.000 HD
ATOM     28  H   UNL     1      44.367   1.583   9.574  0.00  0.00    +0.000 HD
ENDBRANCH  20  24
ENDBRANCH  16  17
ENDBRANCH  15  16
ENDBRANCH   5  15
TORSDOF 5
ENDMDL
MODEL 7
REMARK VINA RESULT:    -6.645      3.428      5.595
REMARK INTER + INTRA:          -9.497
REMARK INTER:                  -8.525
REMARK INTRA:                  -0.973
REMARK UNBOUND:                -0.910
REMARK  Name = 
REMARK  7 active torsions:
REMARK  status: ('A' for Active; 'I' for Inactive)
REMARK    1  A    between atoms: C_1  and  C_2
REMARK    2  A    between atoms: C_6  and  C_7
REMARK    3  A    between atoms: N_8  and  C_9
REMARK    4  A    between atoms: C_13  and  C_14
REMARK    5  A    between atoms: C_14  and  O_15
REMARK    6  A    between atoms: O_15  and  C_16
REMARK    7  A    between atoms: C_19  and  C_20
REMARK                            x       y       z     vdW  Elec       q    Type
REMARK                         _______ _______ _______ _____ _____    ______ ____
ROOT
ATOM      1  C   UNL     1      49.088   6.636  16.270  0.00  0.00    +0.000 A 
ATOM      2  C   UNL     1      49.719   7.855  16.540  0.00  0.00    +0.000 A 
ATOM      3  C   UNL     1      49.757   8.846  15.572  0.00  0.00    +0.000 A 
ATOM      4  N   UNL     1      49.214   8.726  14.346  0.00  0.00    +0.000 NA
ATOM      5  C   UNL     1      48.587   7.557  14.074  0.00  0.00    +0.000 A 
ATOM      6  C   UNL     1      48.503   6.516  15.002  0.00  0.00    +0.000 A 
ENDROOT
BRANCH   1  14
ATOM      7  C   UNL     1      47.543   5.808  19.218  0.00  0.00    +0.000 C 
ATOM      8  C   UNL     1      47.726   5.253  17.804  0.00  0.00    +0.000 C 
ATOM      9  C   UNL     1      47.503   3.736  17.756  0.00  0.00    +0.000 C 
ATOM     10  C   UNL     1      48.691   2.947  18.286  0.00  0.00    +0.000 C 
ATOM     11  C   UNL     1      49.936   3.309  17.489  0.00  0.00    +0.000 C 
ATOM     12  C   UNL     1      50.242   4.810  17.515  0.00  0.00    +0.000 C 
ATOM     13  C   UNL     1      50.903   5.258  18.819  0.00  0.00    +0.000 C 
ATOM     14  N   UNL     1      49.038   5.614  17.218  0.00  0.00    +0.000 N 
ENDBRANCH   1  14
BRANCH   5  15
ATOM     15  C   UNL     1      47.962   7.405  12.706  0.00  0.00    +0.000 C 
BRANCH  15  16
ATOM     16  O   UNL     1      46.538   7.456  12.820  0.00  0.00    +0.000 OA
BRANCH  16  17
ATOM     17  C   UNL     1      45.840   6.393  12.319  0.00  0.00    +0.000 A 
ATOM     18  C   UNL     1      44.829   6.445  11.358  0.00  0.00    +0.000 A 
ATOM     19  C   UNL     1      44.213   5.267  10.913  0.00  0.00    +0.000 A 
ATOM     20  C   UNL     1      44.601   4.020  11.432  0.00  0.00    +0.000 A 
ATOM     21  C   UNL     1      45.602   3.986  12.400  0.00  0.00    +0.000 A 
ATOM     22  F   UNL     1      46.013   2.824  12.933  0.00  0.00    +0.000 F 
ATOM     23  C   UNL     1      46.215   5.155  12.843  0.00  0.00    +0.000 A 
BRANCH  20  24
ATOM     24  C   UNL     1      43.933   2.794  10.926  0.00  0.00    +0.000 C 
ATOM     25  N   UNL     1      44.441   2.203   9.803  0.00  0.00    +0.000 N 
ATOM     26  O   UNL     1      42.953   2.320  11.489  0.00  0.00    +0.000 OA
ATOM     27  H   UNL     1      45.250   2.561   9.309  0.00  0.00    +0.000 HD
ATOM     28  H   UNL     1      43.988   1.369   9.453  0.00  0.00    +0.000 HD
ENDBRANCH  20  24
ENDBRANCH  16  17
ENDBRANCH  15  16
ENDBRANCH   5  15
TORSDOF 5
ENDMDL
MODEL 8
REMARK VINA RESULT:    -6.221      3.981      6.378
REMARK INTER + INTRA:          -8.950
REMARK INTER:                  -7.967
REMARK INTRA:                  -0.984
REMARK UNBOUND:                -0.910
REMARK  Name = 
REMARK  7 active torsions:
REMARK  status: ('A' for Active; 'I' for Inactive)
REMARK    1  A    between atoms: C_1  and  C_2
REMARK    2  A    between atoms: C_6  and  C_7
REMARK    3  A    between atoms: N_8  and  C_9
REMARK    4  A    between atoms: C_13  and  C_14
REMARK    5  A    between atoms: C_14  and  O_15
REMARK    6  A    between atoms: O_15  and  C_16
REMARK    7  A    between atoms: C_19  and  C_20
REMARK                            x       y       z     vdW  Elec       q    Type
REMARK                         _______ _______ _______ _____ _____    ______ ____
ROOT
ATOM      1  C   UNL     1      49.776   6.568  16.654  0.00  0.00    +0.000 A 
ATOM      2  C   UNL     1      50.929   7.345  16.806  0.00  0.00    +0.000 A 
ATOM      3  C   UNL     1      51.312   8.220  15.801  0.00  0.00    +0.000 A 
ATOM      4  N   UNL     1      50.639   8.387  14.647  0.00  0.00    +0.000 NA
ATOM      5  C   UNL     1      49.513   7.652  14.492  0.00  0.00    +0.000 A 
ATOM      6  C   UNL     1      49.062   6.755  15.463  0.00  0.00    +0.000 A 
ENDROOT
BRANCH   1  14
ATOM      7  C   UNL     1      50.563   3.495  17.959  0.00  0.00    +0.000 C 
ATOM      8  C   UNL     1      50.398   4.946  18.416  0.00  0.00    +0.000 C 
ATOM      9  C   UNL     1      50.120   5.040  19.922  0.00  0.00    +0.000 C 
ATOM     10  C   UNL     1      48.681   4.699  20.279  0.00  0.00    +0.000 C 
ATOM     11  C   UNL     1      47.738   5.624  19.523  0.00  0.00    +0.000 C 
ATOM     12  C   UNL     1      47.936   5.564  18.006  0.00  0.00    +0.000 C 
ATOM     13  C   UNL     1      47.291   4.331  17.372  0.00  0.00    +0.000 C 
ATOM     14  N   UNL     1      49.365   5.671  17.641  0.00  0.00    +0.000 N 
ENDBRANCH   1  14
BRANCH   5  15
ATOM     15  C   UNL     1      48.737   7.831  13.207  0.00  0.00    +0.000 C 
BRANCH  15  16
ATOM     16  O   UNL     1      48.422   6.551  12.654  0.00  0.00    +0.000 OA
BRANCH  16  17
ATOM     17  C   UNL     1      47.107   6.309  12.369  0.00  0.00    +0.000 A 
ATOM     18  C   UNL     1      46.254   7.136  11.636  0.00  0.00    +0.000 A 
ATOM     19  C   UNL     1      44.928   6.751  11.394  0.00  0.00    +0.000 A 
ATOM     20  C   UNL     1      44.439   5.530  11.891  0.00  0.00    +0.000 A 
ATOM     21  C   UNL     1      45.299   4.722  12.632  0.00  0.00    +0.000 A 
ATOM     22  F   UNL     1      44.887   3.546  13.131  0.00  0.00    +0.000 F 
ATOM     23  C   UNL     1      46.616   5.104  12.872  0.00  0.00    +0.000 A 
BRANCH  20  24
ATOM     24  C   UNL     1      43.033   5.151  11.603  0.00  0.00    +0.000 C 
ATOM     25  N   UNL     1      42.075   6.122  11.690  0.00  0.00    +0.000 N 
ATOM     26  O   UNL     1      42.729   4.003  11.299  0.00  0.00    +0.000 OA
ATOM     27  H   UNL     1      42.283   7.083  11.936  0.00  0.00    +0.000 HD
ATOM     28  H   UNL     1      41.114   5.868  11.497  0.00  0.00    +0.000 HD
ENDBRANCH  20  24
ENDBRANCH  16  17
ENDBRANCH  15  16
ENDBRANCH   5  15
TORSDOF 5
ENDMDL
MODEL 9
REMARK VINA RESULT:    -6.106      4.917      8.935
REMARK INTER + INTRA:          -8.801
REMARK INTER:                  -7.885
REMARK INTRA:                  -0.916
REMARK UNBOUND:                -0.910
REMARK  Name = 
REMARK  7 active torsions:
REMARK  status: ('A' for Active; 'I' for Inactive)
REMARK    1  A    between atoms: C_1  and  C_2
REMARK    2  A    between atoms: C_6  and  C_7
REMARK    3  A    between atoms: N_8  and  C_9
REMARK    4  A    between atoms: C_13  and  C_14
REMARK    5  A    between atoms: C_14  and  O_15
REMARK    6  A    between atoms: O_15  and  C_16
REMARK    7  A    between atoms: C_19  and  C_20
REMARK                            x       y       z     vdW  Elec       q    Type
REMARK                         _______ _______ _______ _____ _____    ______ ____
ROOT
ATOM      1  C   UNL     1      45.562   6.485  12.227  0.00  0.00    +0.000 A 
ATOM      2  C   UNL     1      45.270   7.812  11.898  0.00  0.00    +0.000 A 
ATOM      3  C   UNL     1      46.102   8.833  12.330  0.00  0.00    +0.000 A 
ATOM      4  N   UNL     1      47.212   8.642  13.068  0.00  0.00    +0.000 NA
ATOM      5  C   UNL     1      47.516   7.361  13.382  0.00  0.00    +0.000 A 
ATOM      6  C   UNL     1      46.728   6.280  12.977  0.00  0.00    +0.000 A 
ENDROOT
BRANCH   1  14
ATOM      7  C   UNL     1      44.603   4.802   9.397  0.00  0.00    +0.000 C 
ATOM      8  C   UNL     1      45.236   4.519  10.760  0.00  0.00    +0.000 C 
ATOM      9  C   UNL     1      45.057   3.053  11.177  0.00  0.00    +0.000 C 
ATOM     10  C   UNL     1      43.657   2.754  11.695  0.00  0.00    +0.000 C 
ATOM     11  C   UNL     1      43.347   3.665  12.873  0.00  0.00    +0.000 C 
ATOM     12  C   UNL     1      43.476   5.151  12.525  0.00  0.00    +0.000 C 
ATOM     13  C   UNL     1      42.272   5.685  11.749  0.00  0.00    +0.000 C 
ATOM     14  N   UNL     1      44.742   5.434  11.816  0.00  0.00    +0.000 N 
ENDBRANCH   1  14
BRANCH   5  15
ATOM     15  C   UNL     1      48.763   7.123  14.203  0.00  0.00    +0.000 C 
BRANCH  15  16
ATOM     16  O   UNL     1      48.684   5.843  14.836  0.00  0.00    +0.000 OA
BRANCH  16  17
ATOM     17  C   UNL     1      48.475   5.835  16.186  0.00  0.00    +0.000 A 
ATOM     18  C   UNL     1      47.907   4.799  16.930  0.00  0.00    +0.000 A 
ATOM     19  C   UNL     1      47.775   4.913  18.321  0.00  0.00    +0.000 A 
ATOM     20  C   UNL     1      48.209   6.074  18.984  0.00  0.00    +0.000 A 
ATOM     21  C   UNL     1      48.762   7.105  18.226  0.00  0.00    +0.000 A 
ATOM     22  F   UNL     1      49.194   8.237  18.806  0.00  0.00    +0.000 F 
ATOM     23  C   UNL     1      48.893   6.992  16.846  0.00  0.00    +0.000 A 
BRANCH  20  24
ATOM     24  C   UNL     1      48.065   6.153  20.460  0.00  0.00    +0.000 C 
ATOM     25  N   UNL     1      47.071   5.421  21.048  0.00  0.00    +0.000 N 
ATOM     26  O   UNL     1      48.808   6.853  21.139  0.00  0.00    +0.000 OA
ATOM     27  H   UNL     1      46.437   4.829  20.524  0.00  0.00    +0.000 HD
ATOM     28  H   UNL     1      46.968   5.473  22.053  0.00  0.00    +0.000 HD
ENDBRANCH  20  24
ENDBRANCH  16  17
ENDBRANCH  15  16
ENDBRANCH   5  15
TORSDOF 5
ENDMDL
