MODEL 1
REMARK VINA RESULT:    -7.928      0.000      0.000
REMARK INTER + INTRA:         -10.033
REMARK INTER:                  -9.550
REMARK INTRA:                  -0.483
REMARK UNBOUND:                -0.483
REMARK  Name = 
REMARK  4 active torsions:
REMARK  status: ('A' for Active; 'I' for Inactive)
REMARK    1  A    between atoms: N_1  and  C_2
REMARK    2  A    between atoms: C_2  and  C_3
REMARK    3  A    between atoms: C_6  and  C_7
REMARK    4  A    between atoms: C_7  and  N_8
REMARK                            x       y       z     vdW  Elec       q    Type
REMARK                         _______ _______ _______ _____ _____    ______ ____
ROOT
ATOM      1  C   UNL     1      46.723   2.100   7.455  0.00  0.00    +0.000 A 
ATOM      2  C   UNL     1      46.619   3.473   7.243  0.00  0.00    +0.000 A 
ATOM      3  C   UNL     1      45.735   4.215   8.024  0.00  0.00    +0.000 A 
ATOM      4  C   UNL     1      44.962   3.574   8.996  0.00  0.00    +0.000 A 
ATOM      5  C   UNL     1      45.160   2.208   9.159  0.00  0.00    +0.000 A 
ATOM      6  N   UNL     1      46.008   1.464   8.416  0.00  0.00    +0.000 NA
ENDROOT
BRANCH   1   7
ATOM      7  C   UNL     1      47.622   1.252   6.580  0.00  0.00    +0.000 C 
BRANCH   7   8
ATOM      8  N   UNL     1      48.500   2.046   5.714  0.00  0.00    +0.000 NA
ATOM      9  H   UNL     1      47.928   2.721   5.210  0.00  0.00    +0.000 HD
ATOM     10  H   UNL     1      48.882   1.420   5.005  0.00  0.00    +0.000 HD
ENDBRANCH   7   8
ENDBRANCH   1   7
BRANCH   4  11
ATOM     11  C   UNL     1      43.924   4.309   9.792  0.00  0.00    +0.000 C 
BRANCH  11  12
ATOM     12  N   UNL     1      44.239   4.398  11.205  0.00  0.00    +0.000 N 
ATOM     13  C   UNL     1      43.684   3.611  12.179  0.00  0.00    +0.000 A 
ATOM     14  N   UNL     1      44.295   3.756  13.331  0.00  0.00    +0.000 NA
ATOM     15  C   UNL     1      45.291   4.671  13.099  0.00  0.00    +0.000 A 
ATOM     16  C   UNL     1      46.270   5.164  13.974  0.00  0.00    +0.000 A 
ATOM     17  C   UNL     1      47.200   6.094  13.495  0.00  0.00    +0.000 A 
ATOM     18  C   UNL     1      47.150   6.532  12.170  0.00  0.00    +0.000 A 
ATOM     19  C   UNL     1      46.185   6.048  11.280  0.00  0.00    +0.000 A 
ATOM     20  C   UNL     1      45.271   5.109  11.775  0.00  0.00    +0.000 A 
ENDBRANCH  11  12
ENDBRANCH   4  11
TORSDOF 4
ENDMDL
MODEL 2
REMARK VINA RESULT:    -7.013      1.342      2.068
REMARK INTER + INTRA:          -8.931
REMARK INTER:                  -8.467
REMARK INTRA:                  -0.464
REMARK UNBOUND:                -0.483
REMARK  Name = 
REMARK  4 active torsions:
REMARK  status: ('A' for Active; 'I' for Inactive)
REMARK    1  A    between atoms: N_1  and  C_2
REMARK    2  A    between atoms: C_2  and  C_3
REMARK    3  A    between atoms: C_6  and  C_7
REMARK    4  A    between atoms: C_7  and  N_8
REMARK                            x       y       z     vdW  Elec       q    Type
REMARK                         _______ _______ _______ _____ _____    ______ ____
ROOT
ATOM      1  C   UNL     1      46.402   2.392   7.627  0.00  0.00    +0.000 A 
ATOM      2  C   UNL     1      45.632   1.668   8.534  0.00  0.00    +0.000 A 
ATOM      3  C   UNL     1      44.788   2.354   9.407  0.00  0.00    +0.000 A 
ATOM      4  C   UNL     1      44.735   3.750   9.366  0.00  0.00    +0.000 A 
ATOM      5  C   UNL     1      45.513   4.383   8.404  0.00  0.00    +0.000 A 
ATOM      6  N   UNL     1      46.340   3.745   7.547  0.00  0.00    +0.000 NA
ENDROOT
BRANCH   1   7
ATOM      7  C   UNL     1      47.379   1.685   6.711  0.00  0.00    +0.000 C 
BRANCH   7   8
ATOM      8  N   UNL     1      48.526   2.518   6.338  0.00  0.00    +0.000 NA
ATOM      9  H   UNL     1      49.379   2.007   6.556  0.00  0.00    +0.000 HD
ATOM     10  H   UNL     1      48.527   3.335   6.949  0.00  0.00    +0.000 HD
ENDBRANCH   7   8
ENDBRANCH   1   7
BRANCH   4  11
ATOM     11  C   UNL     1      43.923   4.540  10.350  0.00  0.00    +0.000 C 
BRANCH  11  12
ATOM     12  N   UNL     1      44.730   5.339  11.252  0.00  0.00    +0.000 N 
ATOM     13  C   UNL     1      44.635   6.698  11.386  0.00  0.00    +0.000 A 
ATOM     14  N   UNL     1      45.326   7.139  12.411  0.00  0.00    +0.000 NA
ATOM     15  C   UNL     1      45.891   6.020  12.971  0.00  0.00    +0.000 A 
ATOM     16  C   UNL     1      46.696   5.906  14.114  0.00  0.00    +0.000 A 
ATOM     17  C   UNL     1      47.148   4.638  14.500  0.00  0.00    +0.000 A 
ATOM     18  C   UNL     1      46.809   3.506  13.757  0.00  0.00    +0.000 A 
ATOM     19  C   UNL     1      46.002   3.598  12.618  0.00  0.00    +0.000 A 
ATOM     20  C   UNL     1      45.551   4.874  12.254  0.00  0.00    +0.000 A 
ENDBRANCH  11  12
ENDBRANCH   4  11
TORSDOF 4
ENDMDL
MODEL 3
REMARK VINA RESULT:    -6.538      2.412      6.154
REMARK INTER + INTRA:          -8.358
REMARK INTER:                  -8.023
REMARK INTRA:                  -0.336
REMARK UNBOUND:                -0.483
REMARK  Name = 
REMARK  4 active torsions:
REMARK  status: ('A' for Active; 'I' for Inactive)
REMARK    1  A    between atoms: N_1  and  C_2
REMARK    2  A    between atoms: C_2  and  C_3
REMARK    3  A    between atoms: C_6  and  C_7
REMARK    4  A    between atoms: C_7  and  N_8
REMARK                            x       y       z     vdW  Elec       q    Type
REMARK                         _______ _______ _______ _____ _____    ______ ____
ROOT
ATOM      1  C   UNL     1      46.974   7.982  13.341  0.00  0.00    +0.000 A 
ATOM      2  C   UNL     1      46.931   6.590  13.299  0.00  0.00    +0.000 A 
ATOM      3  C   UNL     1      45.901   5.964  12.599  0.00  0.00    +0.000 A 
ATOM      4  C   UNL     1      44.926   6.736  11.961  0.00  0.00    +0.000 A 
ATOM      5  C   UNL     1      45.071   8.117  12.028  0.00  0.00    +0.000 A 
ATOM      6  N   UNL     1      46.058   8.750  12.700  0.00  0.00    +0.000 NA
ENDROOT
BRANCH   1   7
ATOM      7  C   UNL     1      48.038   8.695  14.148  0.00  0.00    +0.000 C 
BRANCH   7   8
ATOM      8  N   UNL     1      47.576   9.101  15.479  0.00  0.00    +0.000 NA
ATOM      9  H   UNL     1      48.327   9.615  15.936  0.00  0.00    +0.000 HD
ATOM     10  H   UNL     1      47.443   8.254  16.032  0.00  0.00    +0.000 HD
ENDBRANCH   7   8
ENDBRANCH   1   7
BRANCH   4  11
ATOM     11  C   UNL     1      43.742   6.112  11.281  0.00  0.00    +0.000 C 
BRANCH  11  12
ATOM     12  N   UNL     1      43.921   4.701  10.997  0.00  0.00    +0.000 N 
ATOM     13  C   UNL     1      43.237   3.689  11.617  0.00  0.00    +0.000 A 
ATOM     14  N   UNL     1      43.436   2.533  11.029  0.00  0.00    +0.000 NA
ATOM     15  C   UNL     1      44.282   2.803   9.981  0.00  0.00    +0.000 A 
ATOM     16  C   UNL     1      44.788   1.937   9.000  0.00  0.00    +0.000 A 
ATOM     17  C   UNL     1      45.634   2.456   8.012  0.00  0.00    +0.000 A 
ATOM     18  C   UNL     1      45.973   3.810   8.006  0.00  0.00    +0.000 A 
ATOM     19  C   UNL     1      45.473   4.690   8.972  0.00  0.00    +0.000 A 
ATOM     20  C   UNL     1      44.620   4.154   9.945  0.00  0.00    +0.000 A 
ENDBRANCH  11  12
ENDBRANCH   4  11
TORSDOF 4
ENDMDL
MODEL 4
REMARK VINA RESULT:    -5.569      2.139      3.778
REMARK INTER + INTRA:          -7.192
REMARK INTER:                  -6.748
REMARK INTRA:                  -0.444
REMARK UNBOUND:                -0.483
REMARK  Name = 
REMARK  4 active torsions:
REMARK  status: ('A' for Active; 'I' for Inactive)
REMARK    1  A    between atoms: N_1  and  C_2
REMARK    2  A    between atoms: C_2  and  C_3
REMARK    3  A    between atoms: C_6  and  C_7
REMARK    4  A    between atoms: C_7  and  N_8
REMARK                            x       y       z     vdW  Elec       q    Type
REMARK                         _______ _______ _______ _____ _____    ______ ____
ROOT
ATOM      1  C   UNL     1      44.597   3.203   9.884  0.00  0.00    +0.000 A 
ATOM      2  C   UNL     1      43.970   3.086  11.122  0.00  0.00    +0.000 A 
ATOM      3  C   UNL     1      44.070   4.135  12.035  0.00  0.00    +0.000 A 
ATOM      4  C   UNL     1      44.803   5.277  11.702  0.00  0.00    +0.000 A 
ATOM      5  C   UNL     1      45.364   5.318  10.431  0.00  0.00    +0.000 A 
ATOM      6  N   UNL     1      45.284   4.317   9.527  0.00  0.00    +0.000 NA
ENDROOT
BRANCH   1   7
ATOM      7  C   UNL     1      44.567   2.057   8.895  0.00  0.00    +0.000 C 
BRANCH   7   8
ATOM      8  N   UNL     1      45.898   1.525   8.587  0.00  0.00    +0.000 NA
ATOM      9  H   UNL     1      46.440   2.258   8.132  0.00  0.00    +0.000 HD
ATOM     10  H   UNL     1      45.784   0.790   7.889  0.00  0.00    +0.000 HD
ENDBRANCH   7   8
ENDBRANCH   1   7
BRANCH   4  11
ATOM     11  C   UNL     1      45.026   6.388  12.685  0.00  0.00    +0.000 C 
BRANCH  11  12
ATOM     12  N   UNL     1      46.396   6.473  13.155  0.00  0.00    +0.000 N 
ATOM     13  C   UNL     1      47.031   5.504  13.886  0.00  0.00    +0.000 A 
ATOM     14  N   UNL     1      48.317   5.740  13.998  0.00  0.00    +0.000 NA
ATOM     15  C   UNL     1      48.530   6.908  13.309  0.00  0.00    +0.000 A 
ATOM     16  C   UNL     1      49.729   7.597  13.073  0.00  0.00    +0.000 A 
ATOM     17  C   UNL     1      49.694   8.777  12.320  0.00  0.00    +0.000 A 
ATOM     18  C   UNL     1      48.487   9.265  11.817  0.00  0.00    +0.000 A 
ATOM     19  C   UNL     1      47.281   8.589  12.036  0.00  0.00    +0.000 A 
ATOM     20  C   UNL     1      47.338   7.405  12.783  0.00  0.00    +0.000 A 
ENDBRANCH  11  12
ENDBRANCH   4  11
TORSDOF 4
ENDMDL
MODEL 5
REMARK VINA RESULT:    -5.447      2.708      4.102
REMARK INTER + INTRA:          -7.045
REMARK INTER:                  -6.639
REMARK INTRA:                  -0.406
REMARK UNBOUND:                -0.483
REMARK  Name = 
REMARK  4 active torsions:
REMARK  status: ('A' for Active; 'I' for Inactive)
REMARK    1  A    between atoms: N_1  and  C_2
REMARK    2  A    between atoms: C_2  and  C_3
REMARK    3  A    between atoms: C_6  and  C_7
REMARK    4  A    between atoms: C_7  and  N_8
REMARK                            x       y       z     vdW  Elec       q    Type
REMARK                         _______ _______ _______ _____ _____    ______ ____
ROOT
ATOM      1  C   UNL     1      44.944   3.254   9.864  0.00  0.00    +0.000 A 
ATOM      2  C   UNL     1      45.161   4.575   9.479  0.00  0.00    +0.000 A 
ATOM      3  C   UNL     1      45.251   5.562  10.460  0.00  0.00    +0.000 A 
ATOM      4  C   UNL     1      45.113   5.216  11.807  0.00  0.00    +0.000 A 
ATOM      5  C   UNL     1      44.933   3.869  12.097  0.00  0.00    +0.000 A 
ATOM      6  N   UNL     1      44.841   2.892  11.168  0.00  0.00    +0.000 NA
ENDROOT
BRANCH   1   7
ATOM      7  C   UNL     1      44.773   2.168   8.824  0.00  0.00    +0.000 C 
BRANCH   7   8
ATOM      8  N   UNL     1      46.017   1.452   8.528  0.00  0.00    +0.000 NA
ATOM      9  H   UNL     1      46.504   1.949   7.784  0.00  0.00    +0.000 HD
ATOM     10  H   UNL     1      45.765   0.544   8.137  0.00  0.00    +0.000 HD
ENDBRANCH   7   8
ENDBRANCH   1   7
BRANCH   4  11
ATOM     11  C   UNL     1      45.100   6.252  12.892  0.00  0.00    +0.000 C 
BRANCH  11  12
ATOM     12  N   UNL     1      46.233   7.155  12.838  0.00  0.00    +0.000 N 
ATOM     13  C   UNL     1      47.541   6.774  12.977  0.00  0.00    +0.000 A 
ATOM     14  N   UNL     1      48.369   7.748  12.679  0.00  0.00    +0.000 NA
ATOM     15  C   UNL     1      47.568   8.806  12.329  0.00  0.00    +0.000 A 
ATOM     16  C   UNL     1      47.930  10.087  11.885  0.00  0.00    +0.000 A 
ATOM     17  C   UNL     1      46.919  11.003  11.570  0.00  0.00    +0.000 A 
ATOM     18  C   UNL     1      45.574  10.653  11.702  0.00  0.00    +0.000 A 
ATOM     19  C   UNL     1      45.194   9.378  12.137  0.00  0.00    +0.000 A 
ATOM     20  C   UNL     1      46.220   8.472  12.436  0.00  0.00    +0.000 A 
ENDBRANCH  11  12
ENDBRANCH   4  11
TORSDOF 4
ENDMDL
MODEL 6
REMARK VINA RESULT:    -5.411      1.989      6.072
REMARK INTER + INTRA:          -7.002
REMARK INTER:                  -6.827
REMARK INTRA:                  -0.174
REMARK UNBOUND:                -0.483
REMARK  Name = 
REMARK  4 active torsions:
REMARK  status: ('A' for Active; 'I' for Inactive)
REMARK    1  A    between atoms: N_1  and  C_2
REMARK    2  A    between atoms: C_2  and  C_3
REMARK    3  A    between atoms: C_6  and  C_7
REMARK    4  A    between atoms: C_7  and  N_8
REMARK                            x       y       z     vdW  Elec       q    Type
REMARK                         _______ _______ _______ _____ _____    ______ ____
ROOT
ATOM      1  C   UNL     1      47.246   5.285  14.713  0.00  0.00    +0.000 A 
ATOM      2  C   UNL     1      47.440   6.361  13.851  0.00  0.00    +0.000 A 
ATOM      3  C   UNL     1      46.599   6.510  12.750  0.00  0.00    +0.000 A 
ATOM      4  C   UNL     1      45.584   5.577  12.522  0.00  0.00    +0.000 A 
ATOM      5  C   UNL     1      45.443   4.557  13.455  0.00  0.00    +0.000 A 
ATOM      6  N   UNL     1      46.244   4.387  14.530  0.00  0.00    +0.000 NA
ENDROOT
BRANCH   1   7
ATOM      7  C   UNL     1      48.182   5.054  15.880  0.00  0.00    +0.000 C 
BRANCH   7   8
ATOM      8  N   UNL     1      47.640   5.526  17.157  0.00  0.00    +0.000 NA
ATOM      9  H   UNL     1      46.627   5.595  17.071  0.00  0.00    +0.000 HD
ATOM     10  H   UNL     1      47.972   6.480  17.301  0.00  0.00    +0.000 HD
ENDBRANCH   7   8
ENDBRANCH   1   7
BRANCH   4  11
ATOM     11  C   UNL     1      44.717   5.634  11.298  0.00  0.00    +0.000 C 
BRANCH  11  12
ATOM     12  N   UNL     1      44.704   4.395  10.544  0.00  0.00    +0.000 N 
ATOM     13  C   UNL     1      43.884   3.330  10.809  0.00  0.00    +0.000 A 
ATOM     14  N   UNL     1      43.930   2.429   9.856  0.00  0.00    +0.000 NA
ATOM     15  C   UNL     1      44.812   2.929   8.930  0.00  0.00    +0.000 A 
ATOM     16  C   UNL     1      45.205   2.392   7.695  0.00  0.00    +0.000 A 
ATOM     17  C   UNL     1      46.121   3.103   6.910  0.00  0.00    +0.000 A 
ATOM     18  C   UNL     1      46.642   4.320   7.351  0.00  0.00    +0.000 A 
ATOM     19  C   UNL     1      46.258   4.875   8.577  0.00  0.00    +0.000 A 
ATOM     20  C   UNL     1      45.332   4.154   9.343  0.00  0.00    +0.000 A 
ENDBRANCH  11  12
ENDBRANCH   4  11
TORSDOF 4
ENDMDL
MODEL 7
REMARK VINA RESULT:    -5.311      3.145      5.281
REMARK INTER + INTRA:          -6.881
REMARK INTER:                  -6.514
REMARK INTRA:                  -0.367
REMARK UNBOUND:                -0.483
REMARK  Name = 
REMARK  4 active torsions:
REMARK  status: ('A' for Active; 'I' for Inactive)
REMARK    1  A    between atoms: N_1  and  C_2
REMARK    2  A    between atoms: C_2  and  C_3
REMARK    3  A    between atoms: C_6  and  C_7
REMARK    4  A    between atoms: C_7  and  N_8
REMARK                            x       y       z     vdW  Elec       q    Type
REMARK                         _______ _______ _______ _____ _____    ______ ____
ROOT
ATOM      1  C   UNL     1      44.337   4.207  11.250  0.00  0.00    +0.000 A 
ATOM      2  C   UNL     1      43.895   4.615  12.506  0.00  0.00    +0.000 A 
ATOM      3  C   UNL     1      44.366   5.816  13.034  0.00  0.00    +0.000 A 
ATOM      4  C   UNL     1      45.278   6.585  12.304  0.00  0.00    +0.000 A 
ATOM      5  C   UNL     1      45.634   6.115  11.046  0.00  0.00    +0.000 A 
ATOM      6  N   UNL     1      45.195   4.954  10.510  0.00  0.00    +0.000 NA
ENDROOT
BRANCH   1   7
ATOM      7  C   UNL     1      43.900   2.876  10.675  0.00  0.00    +0.000 C 
BRANCH   7   8
ATOM      8  N   UNL     1      43.055   2.103  11.590  0.00  0.00    +0.000 NA
ATOM      9  H   UNL     1      42.343   1.624  11.041  0.00  0.00    +0.000 HD
ATOM     10  H   UNL     1      42.551   2.766  12.180  0.00  0.00    +0.000 HD
ENDBRANCH   7   8
ENDBRANCH   1   7
BRANCH   4  11
ATOM     11  C   UNL     1      45.892   7.832  12.870  0.00  0.00    +0.000 C 
BRANCH  11  12
ATOM     12  N   UNL     1      47.319   7.714  13.104  0.00  0.00    +0.000 N 
ATOM     13  C   UNL     1      47.916   6.680  13.775  0.00  0.00    +0.000 A 
ATOM     14  N   UNL     1      49.223   6.714  13.662  0.00  0.00    +0.000 NA
ATOM     15  C   UNL     1      49.489   7.812  12.882  0.00  0.00    +0.000 A 
ATOM     16  C   UNL     1      50.720   8.296  12.415  0.00  0.00    +0.000 A 
ATOM     17  C   UNL     1      50.735   9.443  11.612  0.00  0.00    +0.000 A 
ATOM     18  C   UNL     1      49.547  10.099  11.287  0.00  0.00    +0.000 A 
ATOM     19  C   UNL     1      48.309   9.629  11.737  0.00  0.00    +0.000 A 
ATOM     20  C   UNL     1      48.313   8.474  12.531  0.00  0.00    +0.000 A 
ENDBRANCH  11  12
ENDBRANCH   4  11
TORSDOF 4
ENDMDL
MODEL 8
REMARK VINA RESULT:    -5.226      2.839      4.519
REMARK INTER + INTRA:          -6.779
REMARK INTER:                  -6.459
REMARK INTRA:                  -0.320
REMARK UNBOUND:                -0.483
REMARK  Name = 
REMARK  4 active torsions:
REMARK  status: ('A' for Active; 'I' for Inactive)
REMARK    1  A    between atoms: N_1  and  C_2
REMARK    2  A    between atoms: C_2  and  C_3
REMARK    3  A    between atoms: C_6  and  C_7
REMARK    4  A    between atoms: C_7  and  N_8
REMARK                            x       y       z     vdW  Elec       q    Type
REMARK                         _______ _______ _______ _____ _____    ______ ____
ROOT
ATOM      1  C   UNL     1      44.978   3.635  10.241  0.00  0.00    +0.000 A 
ATOM      2  C   UNL     1      45.339   4.904   9.796  0.00  0.00    +0.000 A 
ATOM      3  C   UNL     1      45.721   5.868  10.728  0.00  0.00    +0.000 A 
ATOM      4  C   UNL     1      45.726   5.552  12.090  0.00  0.00    +0.000 A 
ATOM      5  C   UNL     1      45.384   4.250  12.437  0.00  0.00    +0.000 A 
ATOM      6  N   UNL     1      45.009   3.297  11.555  0.00  0.00    +0.000 NA
ENDROOT
BRANCH   1   7
ATOM      7  C   UNL     1      44.493   2.586   9.264  0.00  0.00    +0.000 C 
BRANCH   7   8
ATOM      8  N   UNL     1      44.286   3.110   7.911  0.00  0.00    +0.000 NA
ATOM      9  H   UNL     1      44.966   2.674   7.290  0.00  0.00    +0.000 HD
ATOM     10  H   UNL     1      44.519   4.103   7.925  0.00  0.00    +0.000 HD
ENDBRANCH   7   8
ENDBRANCH   1   7
BRANCH   4  11
ATOM     11  C   UNL     1      46.029   6.581  13.139  0.00  0.00    +0.000 C 
BRANCH  11  12
ATOM     12  N   UNL     1      46.366   7.880  12.590  0.00  0.00    +0.000 N 
ATOM     13  C   UNL     1      45.534   8.968  12.593  0.00  0.00    +0.000 A 
ATOM     14  N   UNL     1      46.158  10.063  12.227  0.00  0.00    +0.000 NA
ATOM     15  C   UNL     1      47.451   9.674  11.979  0.00  0.00    +0.000 A 
ATOM     16  C   UNL     1      48.556  10.449  11.595  0.00  0.00    +0.000 A 
ATOM     17  C   UNL     1      49.793   9.819  11.414  0.00  0.00    +0.000 A 
ATOM     18  C   UNL     1      49.925   8.443  11.603  0.00  0.00    +0.000 A 
ATOM     19  C   UNL     1      48.837   7.654  11.992  0.00  0.00    +0.000 A 
ATOM     20  C   UNL     1      47.610   8.304  12.180  0.00  0.00    +0.000 A 
ENDBRANCH  11  12
ENDBRANCH   4  11
TORSDOF 4
ENDMDL
MODEL 9
REMARK VINA RESULT:    -5.172      4.005      7.457
REMARK INTER + INTRA:          -6.714
REMARK INTER:                  -6.293
REMARK INTRA:                  -0.421
REMARK UNBOUND:                -0.483
REMARK  Name = 
REMARK  4 active torsions:
REMARK  status: ('A' for Active; 'I' for Inactive)
REMARK    1  A    between atoms: N_1  and  C_2
REMARK    2  A    between atoms: C_2  and  C_3
REMARK    3  A    between atoms: C_6  and  C_7
REMARK    4  A    between atoms: C_7  and  N_8
REMARK                            x       y       z     vdW  Elec       q    Type
REMARK                         _______ _______ _______ _____ _____    ______ ____
ROOT
ATOM      1  C   UNL     1      48.113   5.141  17.624  0.00  0.00    +0.000 A 
ATOM      2  C   UNL     1      47.400   4.181  16.910  0.00  0.00    +0.000 A 
ATOM      3  C   UNL     1      47.263   4.323  15.530  0.00  0.00    +0.000 A 
ATOM      4  C   UNL     1      47.831   5.426  14.887  0.00  0.00    +0.000 A 
ATOM      5  C   UNL     1      48.555   6.312  15.675  0.00  0.00    +0.000 A 
ATOM      6  N   UNL     1      48.702   6.200  17.014  0.00  0.00    +0.000 NA
ENDROOT
BRANCH   1   7
ATOM      7  C   UNL     1      48.224   5.055  19.131  0.00  0.00    +0.000 C 
BRANCH   7   8
ATOM      8  N   UNL     1      48.427   3.687  19.617  0.00  0.00    +0.000 NA
ATOM      9  H   UNL     1      47.540   3.190  19.556  0.00  0.00    +0.000 HD
ATOM     10  H   UNL     1      48.646   3.743  20.612  0.00  0.00    +0.000 HD
ENDBRANCH   7   8
ENDBRANCH   1   7
BRANCH   4  11
ATOM     11  C   UNL     1      47.627   5.678  13.422  0.00  0.00    +0.000 C 
BRANCH  11  12
ATOM     12  N   UNL     1      46.250   5.976  13.077  0.00  0.00    +0.000 N 
ATOM     13  C   UNL     1      45.735   7.238  12.944  0.00  0.00    +0.000 A 
ATOM     14  N   UNL     1      44.530   7.223  12.425  0.00  0.00    +0.000 NA
ATOM     15  C   UNL     1      44.249   5.897  12.206  0.00  0.00    +0.000 A 
ATOM     16  C   UNL     1      43.112   5.311  11.632  0.00  0.00    +0.000 A 
ATOM     17  C   UNL     1      43.061   3.918  11.501  0.00  0.00    +0.000 A 
ATOM     18  C   UNL     1      44.121   3.124  11.942  0.00  0.00    +0.000 A 
ATOM     19  C   UNL     1      45.267   3.690  12.511  0.00  0.00    +0.000 A 
ATOM     20  C   UNL     1      45.303   5.086  12.623  0.00  0.00    +0.000 A 
ENDBRANCH  11  12
ENDBRANCH   4  11
TORSDOF 4
ENDMDL
