MODEL 1
REMARK VINA RESULT:    -8.497      0.000      0.000
REMARK INTER + INTRA:         -12.291
REMARK INTER:                 -11.229
REMARK INTRA:                  -1.062
REMARK UNBOUND:                -1.062
REMARK  Name = 
REMARK  7 active torsions:
REMARK  status: ('A' for Active; 'I' for Inactive)
REMARK    1  A    between atoms: C_1  and  C_2
REMARK    2  A    between atoms: C_2  and  C_3
REMARK    3  A    between atoms: C_7  and  C_8
REMARK    4  A    between atoms: C_8  and  C_9
REMARK    5  A    between atoms: C_9  and  N_10
REMARK    6  A    between atoms: C_14  and  C_15
REMARK    7  A    between atoms: C_23  and  O_24
REMARK                            x       y       z     vdW  Elec       q    Type
REMARK                         _______ _______ _______ _____ _____    ______ ____
ROOT
ATOM      1  C   UNL     1      46.989   6.325  13.018  0.00  0.00    +0.000 A 
ATOM      2  C   UNL     1      47.500   5.150  13.586  0.00  0.00    +0.000 A 
ATOM      3  C   UNL     1      46.722   3.994  13.674  0.00  0.00    +0.000 A 
ATOM      4  C   UNL     1      45.403   3.990  13.213  0.00  0.00    +0.000 A 
ATOM      5  C   UNL     1      44.855   5.143  12.644  0.00  0.00    +0.000 A 
ATOM      6  C   UNL     1      45.680   6.275  12.524  0.00  0.00    +0.000 A 
ENDROOT
BRANCH   1   8
ATOM      7  C   UNL     1      46.746   8.786  13.061  0.00  0.00    +0.000 C 
ATOM      8  C   UNL     1      47.792   7.644  13.043  0.00  0.00    +0.000 C 
ATOM      9  C   UNL     1      48.683   7.692  14.312  0.00  0.00    +0.000 C 
ATOM     10  C   UNL     1      49.606   8.915  14.372  0.00  0.00    +0.000 C 
ATOM     11  C   UNL     1      50.458   9.084  13.117  0.00  0.00    +0.000 C 
ATOM     12  C   UNL     1      49.614   9.057  11.848  0.00  0.00    +0.000 C 
ATOM     13  C   UNL     1      48.706   7.830  11.790  0.00  0.00    +0.000 C 
BRANCH  11  14
ATOM     14  O   UNL     1      51.458   8.068  13.060  0.00  0.00    +0.000 OA
ATOM     15  H   UNL     1      51.140   7.283  13.536  0.00  0.00    +0.000 HD
ENDBRANCH  11  14
ENDBRANCH   1   8
BRANCH   5  16
ATOM     16  C   UNL     1      43.390   5.188  12.235  0.00  0.00    +0.000 C 
BRANCH  16  17
ATOM     17  C   UNL     1      43.107   4.532  10.874  0.00  0.00    +0.000 C 
BRANCH  17  18
ATOM     18  N   UNL     1      43.934   5.062   9.792  0.00  0.00    +0.000 N 
ATOM     19  C   UNL     1      44.691   4.034   9.185  0.00  0.00    +0.000 A 
ATOM     20  C   UNL     1      45.539   4.355   8.130  0.00  0.00    +0.000 A 
ATOM     21  C   UNL     1      46.298   3.346   7.531  0.00  0.00    +0.000 A 
ATOM     22  C   UNL     1      46.205   2.034   7.999  0.00  0.00    +0.000 A 
ATOM     23  C   UNL     1      45.333   1.802   9.044  0.00  0.00    +0.000 A 
ATOM     24  N   UNL     1      44.579   2.763   9.630  0.00  0.00    +0.000 NA
ATOM     25  H   UNL     1      44.584   5.770  10.127  0.00  0.00    +0.000 HD
BRANCH  22  26
ATOM     26  C   UNL     1      47.034   0.972   7.378  0.00  0.00    +0.000 C 
ATOM     27  N   UNL     1      46.739  -0.336   7.633  0.00  0.00    +0.000 N 
ATOM     28  O   UNL     1      47.977   1.258   6.655  0.00  0.00    +0.000 OA
ATOM     29  H   UNL     1      45.987  -0.683   8.204  0.00  0.00    +0.000 HD
ATOM     30  H   UNL     1      47.340  -1.022   7.190  0.00  0.00    +0.000 HD
ENDBRANCH  22  26
ENDBRANCH  17  18
ENDBRANCH  16  17
ENDBRANCH   5  16
TORSDOF 6
ENDMDL
MODEL 2
REMARK VINA RESULT:    -8.072      1.547      2.087
REMARK INTER + INTRA:         -11.730
REMARK INTER:                 -10.731
REMARK INTRA:                  -0.999
REMARK UNBOUND:                -1.062
REMARK  Name = 
REMARK  7 active torsions:
REMARK  status: ('A' for Active; 'I' for Inactive)
REMARK    1  A    between atoms: C_1  and  C_2
REMARK    2  A    between atoms: C_2  and  C_3
REMARK    3  A    between atoms: C_7  and  C_8
REMARK    4  A    between atoms: C_8  and  C_9
REMARK    5  A    between atoms: C_9  and  N_10
REMARK    6  A    between atoms: C_14  and  C_15
REMARK    7  A    between atoms: C_23  and  O_24
REMARK                            x       y       z     vdW  Elec       q    Type
REMARK                         _______ _______ _______ _____ _____    ______ ____
ROOT
ATOM      1  C   UNL     1      47.290   6.502  13.077  0.00  0.00    +0.000 A 
ATOM      2  C   UNL     1      47.580   5.355  13.830  0.00  0.00    +0.000 A 
ATOM      3  C   UNL     1      46.650   4.323  13.960  0.00  0.00    +0.000 A 
ATOM      4  C   UNL     1      45.394   4.420  13.356  0.00  0.00    +0.000 A 
ATOM      5  C   UNL     1      45.064   5.549  12.600  0.00  0.00    +0.000 A 
ATOM      6  C   UNL     1      46.041   6.548  12.446  0.00  0.00    +0.000 A 
ENDROOT
BRANCH   1   8
ATOM      7  C   UNL     1      49.410   7.362  14.016  0.00  0.00    +0.000 C 
ATOM      8  C   UNL     1      48.257   7.705  13.042  0.00  0.00    +0.000 C 
ATOM      9  C   UNL     1      48.794   7.905  11.600  0.00  0.00    +0.000 C 
ATOM     10  C   UNL     1      49.676   9.148  11.437  0.00  0.00    +0.000 C 
ATOM     11  C   UNL     1      49.009  10.426  11.937  0.00  0.00    +0.000 C 
ATOM     12  C   UNL     1      48.481  10.274  13.359  0.00  0.00    +0.000 C 
ATOM     13  C   UNL     1      47.593   9.039  13.511  0.00  0.00    +0.000 C 
BRANCH  11  14
ATOM     14  O   UNL     1      47.949  10.804  11.061  0.00  0.00    +0.000 OA
ATOM     15  H   UNL     1      47.285  11.303  11.564  0.00  0.00    +0.000 HD
ENDBRANCH  11  14
ENDBRANCH   1   8
BRANCH   5  16
ATOM     16  C   UNL     1      43.666   5.719  12.025  0.00  0.00    +0.000 C 
BRANCH  16  17
ATOM     17  C   UNL     1      43.521   5.197  10.587  0.00  0.00    +0.000 C 
BRANCH  17  18
ATOM     18  N   UNL     1      43.683   3.748  10.476  0.00  0.00    +0.000 N 
ATOM     19  C   UNL     1      44.654   3.422   9.502  0.00  0.00    +0.000 A 
ATOM     20  C   UNL     1      44.942   2.082   9.261  0.00  0.00    +0.000 A 
ATOM     21  C   UNL     1      45.894   1.751   8.293  0.00  0.00    +0.000 A 
ATOM     22  C   UNL     1      46.538   2.761   7.576  0.00  0.00    +0.000 A 
ATOM     23  C   UNL     1      46.198   4.064   7.884  0.00  0.00    +0.000 A 
ATOM     24  N   UNL     1      45.288   4.406   8.827  0.00  0.00    +0.000 NA
ATOM     25  H   UNL     1      42.813   3.291  10.212  0.00  0.00    +0.000 HD
BRANCH  22  26
ATOM     26  C   UNL     1      47.527   2.403   6.529  0.00  0.00    +0.000 C 
ATOM     27  N   UNL     1      47.435   2.989   5.300  0.00  0.00    +0.000 N 
ATOM     28  O   UNL     1      48.407   1.587   6.756  0.00  0.00    +0.000 OA
ATOM     29  H   UNL     1      46.759   3.674   5.009  0.00  0.00    +0.000 HD
ATOM     30  H   UNL     1      48.131   2.705   4.620  0.00  0.00    +0.000 HD
ENDBRANCH  22  26
ENDBRANCH  17  18
ENDBRANCH  16  17
ENDBRANCH   5  16
TORSDOF 6
ENDMDL
MODEL 3
REMARK VINA RESULT:    -7.537      1.848      2.716
REMARK INTER + INTRA:         -11.023
REMARK INTER:                 -10.086
REMARK INTRA:                  -0.936
REMARK UNBOUND:                -1.062
REMARK  Name = 
REMARK  7 active torsions:
REMARK  status: ('A' for Active; 'I' for Inactive)
REMARK    1  A    between atoms: C_1  and  C_2
REMARK    2  A    between atoms: C_2  and  C_3
REMARK    3  A    between atoms: C_7  and  C_8
REMARK    4  A    between atoms: C_8  and  C_9
REMARK    5  A    between atoms: C_9  and  N_10
REMARK    6  A    between atoms: C_14  and  C_15
REMARK    7  A    between atoms: C_23  and  O_24
REMARK                            x       y       z     vdW  Elec       q    Type
REMARK                         _______ _______ _______ _____ _____    ______ ____
ROOT
ATOM      1  C   UNL     1      46.409   7.222  12.955  0.00  0.00    +0.000 A 
ATOM      2  C   UNL     1      45.867   8.179  12.086  0.00  0.00    +0.000 A 
ATOM      3  C   UNL     1      44.707   7.916  11.355  0.00  0.00    +0.000 A 
ATOM      4  C   UNL     1      44.069   6.677  11.461  0.00  0.00    +0.000 A 
ATOM      5  C   UNL     1      44.580   5.694  12.313  0.00  0.00    +0.000 A 
ATOM      6  C   UNL     1      45.721   6.009  13.072  0.00  0.00    +0.000 A 
ENDROOT
BRANCH   1   8
ATOM      7  C   UNL     1      48.847   7.344  12.557  0.00  0.00    +0.000 C 
ATOM      8  C   UNL     1      47.764   7.452  13.658  0.00  0.00    +0.000 C 
ATOM      9  C   UNL     1      47.783   8.858  14.314  0.00  0.00    +0.000 C 
ATOM     10  C   UNL     1      49.046   9.139  15.136  0.00  0.00    +0.000 C 
ATOM     11  C   UNL     1      49.335   8.062  16.178  0.00  0.00    +0.000 C 
ATOM     12  C   UNL     1      49.339   6.665  15.568  0.00  0.00    +0.000 C 
ATOM     13  C   UNL     1      48.072   6.389  14.760  0.00  0.00    +0.000 C 
BRANCH  11  14
ATOM     14  O   UNL     1      48.378   8.130  17.234  0.00  0.00    +0.000 OA
ATOM     15  H   UNL     1      48.841   8.070  18.086  0.00  0.00    +0.000 HD
ENDBRANCH  11  14
ENDBRANCH   1   8
BRANCH   5  16
ATOM     16  C   UNL     1      43.960   4.305  12.360  0.00  0.00    +0.000 C 
BRANCH  16  17
ATOM     17  C   UNL     1      43.420   3.823  11.005  0.00  0.00    +0.000 C 
BRANCH  17  18
ATOM     18  N   UNL     1      43.914   2.502  10.620  0.00  0.00    +0.000 N 
ATOM     19  C   UNL     1      44.787   2.593   9.511  0.00  0.00    +0.000 A 
ATOM     20  C   UNL     1      45.356   1.428   9.006  0.00  0.00    +0.000 A 
ATOM     21  C   UNL     1      46.212   1.509   7.904  0.00  0.00    +0.000 A 
ATOM     22  C   UNL     1      46.481   2.747   7.320  0.00  0.00    +0.000 A 
ATOM     23  C   UNL     1      45.880   3.853   7.890  0.00  0.00    +0.000 A 
ATOM     24  N   UNL     1      45.058   3.798   8.965  0.00  0.00    +0.000 NA
ATOM     25  H   UNL     1      43.153   1.875  10.366  0.00  0.00    +0.000 HD
BRANCH  22  26
ATOM     26  C   UNL     1      47.368   2.824   6.133  0.00  0.00    +0.000 C 
ATOM     27  N   UNL     1      48.693   2.532   6.275  0.00  0.00    +0.000 N 
ATOM     28  O   UNL     1      46.925   3.153   5.043  0.00  0.00    +0.000 OA
ATOM     29  H   UNL     1      49.160   2.247   7.119  0.00  0.00    +0.000 HD
ATOM     30  H   UNL     1      49.256   2.606   5.435  0.00  0.00    +0.000 HD
ENDBRANCH  22  26
ENDBRANCH  17  18
ENDBRANCH  16  17
ENDBRANCH   5  16
TORSDOF 6
ENDMDL
MODEL 4
REMARK VINA RESULT:    -7.309      4.196      7.667
REMARK INTER + INTRA:         -10.721
REMARK INTER:                  -9.489
REMARK INTRA:                  -1.232
REMARK UNBOUND:                -1.062
REMARK  Name = 
REMARK  7 active torsions:
REMARK  status: ('A' for Active; 'I' for Inactive)
REMARK    1  A    between atoms: C_1  and  C_2
REMARK    2  A    between atoms: C_2  and  C_3
REMARK    3  A    between atoms: C_7  and  C_8
REMARK    4  A    between atoms: C_8  and  C_9
REMARK    5  A    between atoms: C_9  and  N_10
REMARK    6  A    between atoms: C_14  and  C_15
REMARK    7  A    between atoms: C_23  and  O_24
REMARK                            x       y       z     vdW  Elec       q    Type
REMARK                         _______ _______ _______ _____ _____    ______ ____
ROOT
ATOM      1  C   UNL     1      45.567   7.186  11.582  0.00  0.00    +0.000 A 
ATOM      2  C   UNL     1      44.683   8.261  11.419  0.00  0.00    +0.000 A 
ATOM      3  C   UNL     1      45.057   9.562  11.761  0.00  0.00    +0.000 A 
ATOM      4  C   UNL     1      46.322   9.817  12.295  0.00  0.00    +0.000 A 
ATOM      5  C   UNL     1      47.232   8.772  12.478  0.00  0.00    +0.000 A 
ATOM      6  C   UNL     1      46.843   7.482  12.077  0.00  0.00    +0.000 A 
ENDROOT
BRANCH   1   8
ATOM      7  C   UNL     1      45.570   5.371   9.902  0.00  0.00    +0.000 C 
ATOM      8  C   UNL     1      45.115   5.730  11.338  0.00  0.00    +0.000 C 
ATOM      9  C   UNL     1      45.781   4.792  12.378  0.00  0.00    +0.000 C 
ATOM     10  C   UNL     1      45.307   3.336  12.291  0.00  0.00    +0.000 C 
ATOM     11  C   UNL     1      43.788   3.197  12.345  0.00  0.00    +0.000 C 
ATOM     12  C   UNL     1      43.097   4.094  11.325  0.00  0.00    +0.000 C 
ATOM     13  C   UNL     1      43.567   5.545  11.426  0.00  0.00    +0.000 C 
BRANCH  11  14
ATOM     14  O   UNL     1      43.313   3.494  13.657  0.00  0.00    +0.000 OA
ATOM     15  H   UNL     1      43.294   4.458  13.776  0.00  0.00    +0.000 HD
ENDBRANCH  11  14
ENDBRANCH   1   8
BRANCH   5  16
ATOM     16  C   UNL     1      48.572   9.016  13.156  0.00  0.00    +0.000 C 
BRANCH  16  17
ATOM     17  C   UNL     1      49.370   7.731  13.429  0.00  0.00    +0.000 C 
BRANCH  17  18
ATOM     18  N   UNL     1      49.931   7.673  14.777  0.00  0.00    +0.000 N 
ATOM     19  C   UNL     1      49.351   6.619  15.521  0.00  0.00    +0.000 A 
ATOM     20  C   UNL     1      49.767   6.412  16.832  0.00  0.00    +0.000 A 
ATOM     21  C   UNL     1      49.191   5.379  17.576  0.00  0.00    +0.000 A 
ATOM     22  C   UNL     1      48.205   4.574  17.003  0.00  0.00    +0.000 A 
ATOM     23  C   UNL     1      47.858   4.843  15.693  0.00  0.00    +0.000 A 
ATOM     24  N   UNL     1      48.413   5.831  14.952  0.00  0.00    +0.000 NA
ATOM     25  H   UNL     1      49.772   8.538  15.289  0.00  0.00    +0.000 HD
BRANCH  22  26
ATOM     26  C   UNL     1      47.577   3.496  17.807  0.00  0.00    +0.000 C 
ATOM     27  N   UNL     1      48.147   3.133  18.992  0.00  0.00    +0.000 N 
ATOM     28  O   UNL     1      46.569   2.930  17.412  0.00  0.00    +0.000 OA
ATOM     29  H   UNL     1      48.969   3.533  19.412  0.00  0.00    +0.000 HD
ATOM     30  H   UNL     1      47.683   2.388  19.498  0.00  0.00    +0.000 HD
ENDBRANCH  22  26
ENDBRANCH  17  18
ENDBRANCH  16  17
ENDBRANCH   5  16
TORSDOF 6
ENDMDL
MODEL 5
REMARK VINA RESULT:    -6.883      4.842      7.855
REMARK INTER + INTRA:         -10.158
REMARK INTER:                 -10.184
REMARK INTRA:                   0.025
REMARK UNBOUND:                -1.062
REMARK  Name = 
REMARK  7 active torsions:
REMARK  status: ('A' for Active; 'I' for Inactive)
REMARK    1  A    between atoms: C_1  and  C_2
REMARK    2  A    between atoms: C_2  and  C_3
REMARK    3  A    between atoms: C_7  and  C_8
REMARK    4  A    between atoms: C_8  and  C_9
REMARK    5  A    between atoms: C_9  and  N_10
REMARK    6  A    between atoms: C_14  and  C_15
REMARK    7  A    between atoms: C_23  and  O_24
REMARK                            x       y       z     vdW  Elec       q    Type
REMARK                         _______ _______ _______ _____ _____    ______ ____
ROOT
ATOM      1  C   UNL     1      46.903   6.100  12.491  0.00  0.00    +0.000 A 
ATOM      2  C   UNL     1      47.360   7.004  11.523  0.00  0.00    +0.000 A 
ATOM      3  C   UNL     1      48.462   7.825  11.766  0.00  0.00    +0.000 A 
ATOM      4  C   UNL     1      49.125   7.777  12.995  0.00  0.00    +0.000 A 
ATOM      5  C   UNL     1      48.698   6.891  13.988  0.00  0.00    +0.000 A 
ATOM      6  C   UNL     1      47.616   6.043  13.695  0.00  0.00    +0.000 A 
ENDROOT
BRANCH   1   8
ATOM      7  C   UNL     1      45.942   3.827  12.667  0.00  0.00    +0.000 C 
ATOM      8  C   UNL     1      45.604   5.289  12.285  0.00  0.00    +0.000 C 
ATOM      9  C   UNL     1      44.483   5.853  13.196  0.00  0.00    +0.000 C 
ATOM     10  C   UNL     1      43.119   5.187  12.982  0.00  0.00    +0.000 C 
ATOM     11  C   UNL     1      42.672   5.194  11.523  0.00  0.00    +0.000 C 
ATOM     12  C   UNL     1      43.744   4.632  10.596  0.00  0.00    +0.000 C 
ATOM     13  C   UNL     1      45.097   5.310  10.808  0.00  0.00    +0.000 C 
BRANCH  11  14
ATOM     14  O   UNL     1      42.325   6.518  11.120  0.00  0.00    +0.000 OA
ATOM     15  H   UNL     1      41.388   6.536  10.865  0.00  0.00    +0.000 HD
ENDBRANCH  11  14
ENDBRANCH   1   8
BRANCH   5  16
ATOM     16  C   UNL     1      49.340   6.901  15.368  0.00  0.00    +0.000 C 
BRANCH  16  17
ATOM     17  C   UNL     1      48.369   6.548  16.505  0.00  0.00    +0.000 C 
BRANCH  17  18
ATOM     18  N   UNL     1      47.882   5.171  16.447  0.00  0.00    +0.000 N 
ATOM     19  C   UNL     1      48.909   4.258  16.783  0.00  0.00    +0.000 A 
ATOM     20  C   UNL     1      48.626   2.897  16.781  0.00  0.00    +0.000 A 
ATOM     21  C   UNL     1      49.638   1.988  17.103  0.00  0.00    +0.000 A 
ATOM     22  C   UNL     1      50.917   2.452  17.415  0.00  0.00    +0.000 A 
ATOM     23  C   UNL     1      51.109   3.820  17.401  0.00  0.00    +0.000 A 
ATOM     24  N   UNL     1      50.139   4.717  17.104  0.00  0.00    +0.000 NA
ATOM     25  H   UNL     1      47.546   4.930  15.517  0.00  0.00    +0.000 HD
BRANCH  22  26
ATOM     26  C   UNL     1      51.995   1.481  17.728  0.00  0.00    +0.000 C 
ATOM     27  N   UNL     1      51.658   0.219  18.120  0.00  0.00    +0.000 N 
ATOM     28  O   UNL     1      53.170   1.807  17.649  0.00  0.00    +0.000 OA
ATOM     29  H   UNL     1      50.729  -0.155  18.213  0.00  0.00    +0.000 HD
ATOM     30  H   UNL     1      52.432  -0.403  18.329  0.00  0.00    +0.000 HD
ENDBRANCH  22  26
ENDBRANCH  17  18
ENDBRANCH  16  17
ENDBRANCH   5  16
TORSDOF 6
ENDMDL
MODEL 6
REMARK VINA RESULT:    -6.875      3.775      6.180
REMARK INTER + INTRA:         -10.147
REMARK INTER:                  -8.985
REMARK INTRA:                  -1.162
REMARK UNBOUND:                -1.062
REMARK  Name = 
REMARK  7 active torsions:
REMARK  status: ('A' for Active; 'I' for Inactive)
REMARK    1  A    between atoms: C_1  and  C_2
REMARK    2  A    between atoms: C_2  and  C_3
REMARK    3  A    between atoms: C_7  and  C_8
REMARK    4  A    between atoms: C_8  and  C_9
REMARK    5  A    between atoms: C_9  and  N_10
REMARK    6  A    between atoms: C_14  and  C_15
REMARK    7  A    between atoms: C_23  and  O_24
REMARK                            x       y       z     vdW  Elec       q    Type
REMARK                         _______ _______ _______ _____ _____    ______ ____
ROOT
ATOM      1  C   UNL     1      48.685   6.729  16.889  0.00  0.00    +0.000 A 
ATOM      2  C   UNL     1      48.546   7.877  17.681  0.00  0.00    +0.000 A 
ATOM      3  C   UNL     1      48.660   9.154  17.127  0.00  0.00    +0.000 A 
ATOM      4  C   UNL     1      48.935   9.314  15.767  0.00  0.00    +0.000 A 
ATOM      5  C   UNL     1      49.085   8.195  14.944  0.00  0.00    +0.000 A 
ATOM      6  C   UNL     1      48.915   6.924  15.522  0.00  0.00    +0.000 A 
ENDROOT
BRANCH   1   8
ATOM      7  C   UNL     1      48.448   5.516  19.031  0.00  0.00    +0.000 C 
ATOM      8  C   UNL     1      48.699   5.318  17.516  0.00  0.00    +0.000 C 
ATOM      9  C   UNL     1      47.581   4.450  16.880  0.00  0.00    +0.000 C 
ATOM     10  C   UNL     1      47.584   2.993  17.356  0.00  0.00    +0.000 C 
ATOM     11  C   UNL     1      48.941   2.314  17.194  0.00  0.00    +0.000 C 
ATOM     12  C   UNL     1      50.065   3.131  17.820  0.00  0.00    +0.000 C 
ATOM     13  C   UNL     1      50.062   4.579  17.332  0.00  0.00    +0.000 C 
BRANCH  11  14
ATOM     14  O   UNL     1      49.216   2.085  15.813  0.00  0.00    +0.000 OA
ATOM     15  H   UNL     1      50.167   1.924  15.702  0.00  0.00    +0.000 HD
ENDBRANCH  11  14
ENDBRANCH   1   8
BRANCH   5  16
ATOM     16  C   UNL     1      49.490   8.350  13.485  0.00  0.00    +0.000 C 
BRANCH  16  17
ATOM     17  C   UNL     1      49.232   7.096  12.635  0.00  0.00    +0.000 C 
BRANCH  17  18
ATOM     18  N   UNL     1      48.159   7.268  11.657  0.00  0.00    +0.000 N 
ATOM     19  C   UNL     1      47.049   6.453  11.976  0.00  0.00    +0.000 A 
ATOM     20  C   UNL     1      45.929   6.488  11.152  0.00  0.00    +0.000 A 
ATOM     21  C   UNL     1      44.832   5.677  11.455  0.00  0.00    +0.000 A 
ATOM     22  C   UNL     1      44.872   4.840  12.572  0.00  0.00    +0.000 A 
ATOM     23  C   UNL     1      46.019   4.874  13.340  0.00  0.00    +0.000 A 
ATOM     24  N   UNL     1      47.087   5.661  13.071  0.00  0.00    +0.000 NA
ATOM     25  H   UNL     1      48.464   7.024  10.718  0.00  0.00    +0.000 HD
BRANCH  22  26
ATOM     26  C   UNL     1      43.715   3.961  12.873  0.00  0.00    +0.000 C 
ATOM     27  N   UNL     1      43.795   2.632  12.575  0.00  0.00    +0.000 N 
ATOM     28  O   UNL     1      42.697   4.418  13.372  0.00  0.00    +0.000 OA
ATOM     29  H   UNL     1      44.581   2.152  12.171  0.00  0.00    +0.000 HD
ATOM     30  H   UNL     1      42.975   2.077  12.794  0.00  0.00    +0.000 HD
ENDBRANCH  22  26
ENDBRANCH  17  18
ENDBRANCH  16  17
ENDBRANCH   5  16
TORSDOF 6
ENDMDL
MODEL 7
REMARK VINA RESULT:    -6.628      4.206      8.130
REMARK INTER + INTRA:          -9.821
REMARK INTER:                  -8.492
REMARK INTRA:                  -1.329
REMARK UNBOUND:                -1.062
REMARK  Name = 
REMARK  7 active torsions:
REMARK  status: ('A' for Active; 'I' for Inactive)
REMARK    1  A    between atoms: C_1  and  C_2
REMARK    2  A    between atoms: C_2  and  C_3
REMARK    3  A    between atoms: C_7  and  C_8
REMARK    4  A    between atoms: C_8  and  C_9
REMARK    5  A    between atoms: C_9  and  N_10
REMARK    6  A    between atoms: C_14  and  C_15
REMARK    7  A    between atoms: C_23  and  O_24
REMARK                            x       y       z     vdW  Elec       q    Type
REMARK                         _______ _______ _______ _____ _____    ______ ____
ROOT
ATOM      1  C   UNL     1      46.174   6.840  12.336  0.00  0.00    +0.000 A 
ATOM      2  C   UNL     1      45.383   7.994  12.423  0.00  0.00    +0.000 A 
ATOM      3  C   UNL     1      45.949   9.266  12.315  0.00  0.00    +0.000 A 
ATOM      4  C   UNL     1      47.326   9.416  12.137  0.00  0.00    +0.000 A 
ATOM      5  C   UNL     1      48.150   8.290  12.050  0.00  0.00    +0.000 A 
ATOM      6  C   UNL     1      47.543   7.023  12.112  0.00  0.00    +0.000 A 
ENDROOT
BRANCH   1   8
ATOM      7  C   UNL     1      46.493   4.767  13.647  0.00  0.00    +0.000 C 
ATOM      8  C   UNL     1      45.579   5.438  12.593  0.00  0.00    +0.000 C 
ATOM      9  C   UNL     1      44.129   5.573  13.127  0.00  0.00    +0.000 C 
ATOM     10  C   UNL     1      43.410   4.231  13.307  0.00  0.00    +0.000 C 
ATOM     11  C   UNL     1      43.435   3.365  12.050  0.00  0.00    +0.000 C 
ATOM     12  C   UNL     1      44.848   3.197  11.503  0.00  0.00    +0.000 C 
ATOM     13  C   UNL     1      45.553   4.540  11.316  0.00  0.00    +0.000 C 
BRANCH  11  14
ATOM     14  O   UNL     1      42.587   3.926  11.049  0.00  0.00    +0.000 OA
ATOM     15  H   UNL     1      42.418   3.256  10.366  0.00  0.00    +0.000 HD
ENDBRANCH  11  14
ENDBRANCH   1   8
BRANCH   5  16
ATOM     16  C   UNL     1      49.662   8.437  11.962  0.00  0.00    +0.000 C 
BRANCH  16  17
ATOM     17  C   UNL     1      50.400   8.000  13.237  0.00  0.00    +0.000 C 
BRANCH  17  18
ATOM     18  N   UNL     1      50.040   8.788  14.415  0.00  0.00    +0.000 N 
ATOM     19  C   UNL     1      49.523   7.959  15.437  0.00  0.00    +0.000 A 
ATOM     20  C   UNL     1      49.126   8.539  16.638  0.00  0.00    +0.000 A 
ATOM     21  C   UNL     1      48.605   7.728  17.650  0.00  0.00    +0.000 A 
ATOM     22  C   UNL     1      48.482   6.352  17.445  0.00  0.00    +0.000 A 
ATOM     23  C   UNL     1      48.908   5.859  16.227  0.00  0.00    +0.000 A 
ATOM     24  N   UNL     1      49.426   6.626  15.239  0.00  0.00    +0.000 NA
ATOM     25  H   UNL     1      49.334   9.488  14.197  0.00  0.00    +0.000 HD
BRANCH  22  26
ATOM     26  C   UNL     1      47.902   5.500  18.513  0.00  0.00    +0.000 C 
ATOM     27  N   UNL     1      46.558   5.543  18.740  0.00  0.00    +0.000 N 
ATOM     28  O   UNL     1      48.617   4.775  19.189  0.00  0.00    +0.000 OA
ATOM     29  H   UNL     1      45.881   6.096  18.243  0.00  0.00    +0.000 HD
ATOM     30  H   UNL     1      46.214   4.946  19.485  0.00  0.00    +0.000 HD
ENDBRANCH  22  26
ENDBRANCH  17  18
ENDBRANCH  16  17
ENDBRANCH   5  16
TORSDOF 6
ENDMDL
MODEL 8
REMARK VINA RESULT:    -6.172      4.497      6.103
REMARK INTER + INTRA:          -9.219
REMARK INTER:                  -8.411
REMARK INTRA:                  -0.808
REMARK UNBOUND:                -1.062
REMARK  Name = 
REMARK  7 active torsions:
REMARK  status: ('A' for Active; 'I' for Inactive)
REMARK    1  A    between atoms: C_1  and  C_2
REMARK    2  A    between atoms: C_2  and  C_3
REMARK    3  A    between atoms: C_7  and  C_8
REMARK    4  A    between atoms: C_8  and  C_9
REMARK    5  A    between atoms: C_9  and  N_10
REMARK    6  A    between atoms: C_14  and  C_15
REMARK    7  A    between atoms: C_23  and  O_24
REMARK                            x       y       z     vdW  Elec       q    Type
REMARK                         _______ _______ _______ _____ _____    ______ ____
ROOT
ATOM      1  C   UNL     1      49.104   6.842  19.073  0.00  0.00    +0.000 A 
ATOM      2  C   UNL     1      50.224   6.137  19.534  0.00  0.00    +0.000 A 
ATOM      3  C   UNL     1      50.390   4.780  19.250  0.00  0.00    +0.000 A 
ATOM      4  C   UNL     1      49.426   4.087  18.513  0.00  0.00    +0.000 A 
ATOM      5  C   UNL     1      48.292   4.753  18.039  0.00  0.00    +0.000 A 
ATOM      6  C   UNL     1      48.180   6.130  18.299  0.00  0.00    +0.000 A 
ENDROOT
BRANCH   1   8
ATOM      7  C   UNL     1      49.244   8.397  20.991  0.00  0.00    +0.000 C 
ATOM      8  C   UNL     1      48.844   8.303  19.498  0.00  0.00    +0.000 C 
ATOM      9  C   UNL     1      49.706   9.262  18.635  0.00  0.00    +0.000 C 
ATOM     10  C   UNL     1      49.436  10.747  18.903  0.00  0.00    +0.000 C 
ATOM     11  C   UNL     1      47.959  11.116  18.794  0.00  0.00    +0.000 C 
ATOM     12  C   UNL     1      47.080  10.204  19.641  0.00  0.00    +0.000 C 
ATOM     13  C   UNL     1      47.348   8.726  19.359  0.00  0.00    +0.000 C 
BRANCH  11  14
ATOM     14  O   UNL     1      47.540  11.069  17.431  0.00  0.00    +0.000 OA
ATOM     15  H   UNL     1      47.750  10.194  17.065  0.00  0.00    +0.000 HD
ENDBRANCH  11  14
ENDBRANCH   1   8
BRANCH   5  16
ATOM     16  C   UNL     1      47.183   3.992  17.327  0.00  0.00    +0.000 C 
BRANCH  16  17
ATOM     17  C   UNL     1      47.387   3.878  15.809  0.00  0.00    +0.000 C 
BRANCH  17  18
ATOM     18  N   UNL     1      47.082   5.113  15.088  0.00  0.00    +0.000 N 
ATOM     19  C   UNL     1      46.414   4.837  13.873  0.00  0.00    +0.000 A 
ATOM     20  C   UNL     1      46.044   5.897  13.052  0.00  0.00    +0.000 A 
ATOM     21  C   UNL     1      45.392   5.632  11.845  0.00  0.00    +0.000 A 
ATOM     22  C   UNL     1      45.127   4.313  11.472  0.00  0.00    +0.000 A 
ATOM     23  C   UNL     1      45.522   3.322  12.349  0.00  0.00    +0.000 A 
ATOM     24  N   UNL     1      46.143   3.559  13.529  0.00  0.00    +0.000 NA
ATOM     25  H   UNL     1      47.926   5.637  14.867  0.00  0.00    +0.000 HD
BRANCH  22  26
ATOM     26  C   UNL     1      44.460   4.035  10.176  0.00  0.00    +0.000 C 
ATOM     27  N   UNL     1      44.823   4.755   9.075  0.00  0.00    +0.000 N 
ATOM     28  O   UNL     1      43.589   3.183  10.092  0.00  0.00    +0.000 OA
ATOM     29  H   UNL     1      45.527   5.471   9.029  0.00  0.00    +0.000 HD
ATOM     30  H   UNL     1      44.332   4.531   8.216  0.00  0.00    +0.000 HD
ENDBRANCH  22  26
ENDBRANCH  17  18
ENDBRANCH  16  17
ENDBRANCH   5  16
TORSDOF 6
ENDMDL
MODEL 9
REMARK VINA RESULT:    -5.814      3.985      6.633
REMARK INTER + INTRA:          -8.745
REMARK INTER:                  -7.474
REMARK INTRA:                  -1.272
REMARK UNBOUND:                -1.062
REMARK  Name = 
REMARK  7 active torsions:
REMARK  status: ('A' for Active; 'I' for Inactive)
REMARK    1  A    between atoms: C_1  and  C_2
REMARK    2  A    between atoms: C_2  and  C_3
REMARK    3  A    between atoms: C_7  and  C_8
REMARK    4  A    between atoms: C_8  and  C_9
REMARK    5  A    between atoms: C_9  and  N_10
REMARK    6  A    between atoms: C_14  and  C_15
REMARK    7  A    between atoms: C_23  and  O_24
REMARK                            x       y       z     vdW  Elec       q    Type
REMARK                         _______ _______ _______ _____ _____    ______ ____
ROOT
ATOM      1  C   UNL     1      49.466   6.903  17.640  0.00  0.00    +0.000 A 
ATOM      2  C   UNL     1      50.167   7.545  18.670  0.00  0.00    +0.000 A 
ATOM      3  C   UNL     1      50.313   8.934  18.687  0.00  0.00    +0.000 A 
ATOM      4  C   UNL     1      49.776   9.715  17.661  0.00  0.00    +0.000 A 
ATOM      5  C   UNL     1      49.073   9.113  16.614  0.00  0.00    +0.000 A 
ATOM      6  C   UNL     1      48.901   7.718  16.652  0.00  0.00    +0.000 A 
ENDROOT
BRANCH   1   8
ATOM      7  C   UNL     1      50.881   4.899  17.329  0.00  0.00    +0.000 C 
ATOM      8  C   UNL     1      49.419   5.363  17.540  0.00  0.00    +0.000 C 
ATOM      9  C   UNL     1      48.835   4.769  18.848  0.00  0.00    +0.000 C 
ATOM     10  C   UNL     1      48.642   3.249  18.804  0.00  0.00    +0.000 C 
ATOM     11  C   UNL     1      47.828   2.783  17.600  0.00  0.00    +0.000 C 
ATOM     12  C   UNL     1      48.381   3.335  16.291  0.00  0.00    +0.000 C 
ATOM     13  C   UNL     1      48.560   4.852  16.339  0.00  0.00    +0.000 C 
BRANCH  11  14
ATOM     14  O   UNL     1      46.462   3.164  17.751  0.00  0.00    +0.000 OA
ATOM     15  H   UNL     1      46.422   4.049  18.150  0.00  0.00    +0.000 HD
ENDBRANCH  11  14
ENDBRANCH   1   8
BRANCH   5  16
ATOM     16  C   UNL     1      48.574   9.936  15.436  0.00  0.00    +0.000 C 
BRANCH  16  17
ATOM     17  C   UNL     1      48.417   9.128  14.138  0.00  0.00    +0.000 C 
BRANCH  17  18
ATOM     18  N   UNL     1      47.064   9.176  13.586  0.00  0.00    +0.000 N 
ATOM     19  C   UNL     1      46.614   7.881  13.239  0.00  0.00    +0.000 A 
ATOM     20  C   UNL     1      45.342   7.734  12.696  0.00  0.00    +0.000 A 
ATOM     21  C   UNL     1      44.894   6.458  12.342  0.00  0.00    +0.000 A 
ATOM     22  C   UNL     1      45.724   5.352  12.528  0.00  0.00    +0.000 A 
ATOM     23  C   UNL     1      46.968   5.588  13.080  0.00  0.00    +0.000 A 
ATOM     24  N   UNL     1      47.416   6.813  13.441  0.00  0.00    +0.000 NA
ATOM     25  H   UNL     1      47.019   9.755  12.750  0.00  0.00    +0.000 HD
BRANCH  22  26
ATOM     26  C   UNL     1      45.254   4.004  12.123  0.00  0.00    +0.000 C 
ATOM     27  N   UNL     1      44.724   3.831  10.878  0.00  0.00    +0.000 N 
ATOM     28  O   UNL     1      45.328   3.060  12.895  0.00  0.00    +0.000 OA
ATOM     29  H   UNL     1      44.621   4.533  10.165  0.00  0.00    +0.000 HD
ATOM     30  H   UNL     1      44.412   2.893  10.654  0.00  0.00    +0.000 HD
ENDBRANCH  22  26
ENDBRANCH  17  18
ENDBRANCH  16  17
ENDBRANCH   5  16
TORSDOF 6
ENDMDL
