MODEL 1
REMARK VINA RESULT:    -9.179      0.000      0.000
REMARK INTER + INTRA:         -12.249
REMARK INTER:                 -11.326
REMARK INTRA:                  -0.923
REMARK UNBOUND:                -0.923
REMARK  Name = 
REMARK  4 active torsions:
REMARK  status: ('A' for Active; 'I' for Inactive)
REMARK    1  A    between atoms: C_2  and  C_4
REMARK    2  A    between atoms: N_8  and  C_9
REMARK    3  A    between atoms: C_9  and  C_10
REMARK    4  A    between atoms: C_14  and  C_15
REMARK                            x       y       z     vdW  Elec       q    Type
REMARK                         _______ _______ _______ _____ _____    ______ ____
ROOT
ATOM      1  C   UNL     1      43.511   4.923  11.003  0.00  0.00    +0.000 C 
ENDROOT
BRANCH   1   6
ATOM      2  C   UNL     1      46.416   2.313   7.672  0.00  0.00    +0.000 A 
ATOM      3  C   UNL     1      45.675   1.840   8.748  0.00  0.00    +0.000 A 
ATOM      4  C   UNL     1      44.834   2.718   9.433  0.00  0.00    +0.000 A 
ATOM      5  C   UNL     1      44.759   4.052   9.046  0.00  0.00    +0.000 A 
ATOM      6  N   UNL     1      43.894   4.961   9.608  0.00  0.00    +0.000 N 
ATOM      7  N   UNL     1      45.485   4.519   8.014  0.00  0.00    +0.000 NA
ATOM      8  C   UNL     1      46.299   3.653   7.353  0.00  0.00    +0.000 A 
ATOM      9  H   UNL     1      44.108   5.878   9.228  0.00  0.00    +0.000 HD
BRANCH   2  11
ATOM     10  N   UNL     1      48.298   2.061   6.157  0.00  0.00    +0.000 N 
ATOM     11  C   UNL     1      47.304   1.447   6.869  0.00  0.00    +0.000 C 
ATOM     12  O   UNL     1      47.180   0.229   6.865  0.00  0.00    +0.000 OA
ATOM     13  H   UNL     1      48.958   1.452   5.690  0.00  0.00    +0.000 HD
ATOM     14  H   UNL     1      48.587   3.012   6.332  0.00  0.00    +0.000 HD
ENDBRANCH   2  11
ENDBRANCH   1   6
BRANCH   1  15
ATOM     15  C   UNL     1      44.664   5.151  11.950  0.00  0.00    +0.000 A 
ATOM     16  C   UNL     1      45.050   4.165  12.865  0.00  0.00    +0.000 A 
ATOM     17  C   UNL     1      46.194   4.337  13.640  0.00  0.00    +0.000 A 
ATOM     18  C   UNL     1      46.978   5.484  13.491  0.00  0.00    +0.000 A 
ATOM     19  C   UNL     1      46.642   6.486  12.564  0.00  0.00    +0.000 A 
ATOM     20  C   UNL     1      45.453   6.310  11.830  0.00  0.00    +0.000 A 
BRANCH  19  21
ATOM     21  C   UNL     1      47.550   7.624  12.282  0.00  0.00    +0.000 A 
ATOM     22  C   UNL     1      48.933   7.414  12.090  0.00  0.00    +0.000 A 
ATOM     23  C   UNL     1      49.792   8.453  11.715  0.00  0.00    +0.000 A 
ATOM     24  C   UNL     1      49.285   9.731  11.517  0.00  0.00    +0.000 A 
ATOM     25  C   UNL     1      47.932   9.961  11.720  0.00  0.00    +0.000 A 
ATOM     26  F   UNL     1      47.438  11.190  11.517  0.00  0.00    +0.000 F 
ATOM     27  C   UNL     1      47.073   8.935  12.108  0.00  0.00    +0.000 A 
ENDBRANCH  19  21
ENDBRANCH   1  15
TORSDOF 4
ENDMDL
MODEL 2
REMARK VINA RESULT:    -8.174      2.848      4.315
REMARK INTER + INTRA:         -11.009
REMARK INTER:                 -10.230
REMARK INTRA:                  -0.779
REMARK UNBOUND:                -0.923
REMARK  Name = 
REMARK  4 active torsions:
REMARK  status: ('A' for Active; 'I' for Inactive)
REMARK    1  A    between atoms: C_2  and  C_4
REMARK    2  A    between atoms: N_8  and  C_9
REMARK    3  A    between atoms: C_9  and  C_10
REMARK    4  A    between atoms: C_14  and  C_15
REMARK                            x       y       z     vdW  Elec       q    Type
REMARK                         _______ _______ _______ _____ _____    ______ ____
ROOT
ATOM      1  C   UNL     1      44.481   4.951  11.575  0.00  0.00    +0.000 C 
ENDROOT
BRANCH   1   6
ATOM      2  C   UNL     1      46.542   2.609   7.498  0.00  0.00    +0.000 A 
ATOM      3  C   UNL     1      45.976   2.050   8.638  0.00  0.00    +0.000 A 
ATOM      4  C   UNL     1      45.337   2.883   9.558  0.00  0.00    +0.000 A 
ATOM      5  C   UNL     1      45.289   4.256   9.337  0.00  0.00    +0.000 A 
ATOM      6  N   UNL     1      44.607   5.134  10.145  0.00  0.00    +0.000 N 
ATOM      7  N   UNL     1      45.848   4.804   8.242  0.00  0.00    +0.000 NA
ATOM      8  C   UNL     1      46.466   3.983   7.352  0.00  0.00    +0.000 A 
ATOM      9  H   UNL     1      44.815   6.078   9.832  0.00  0.00    +0.000 HD
BRANCH   2  11
ATOM     10  N   UNL     1      47.959   2.471   5.530  0.00  0.00    +0.000 N 
ATOM     11  C   UNL     1      47.205   1.801   6.455  0.00  0.00    +0.000 C 
ATOM     12  O   UNL     1      47.114   0.580   6.435  0.00  0.00    +0.000 OA
ATOM     13  H   UNL     1      48.486   1.900   4.881  0.00  0.00    +0.000 HD
ATOM     14  H   UNL     1      48.261   3.426   5.661  0.00  0.00    +0.000 HD
ENDBRANCH   2  11
ENDBRANCH   1   6
BRANCH   1  15
ATOM     15  C   UNL     1      45.709   5.371  12.346  0.00  0.00    +0.000 A 
ATOM     16  C   UNL     1      46.385   6.557  12.034  0.00  0.00    +0.000 A 
ATOM     17  C   UNL     1      47.435   6.997  12.834  0.00  0.00    +0.000 A 
ATOM     18  C   UNL     1      47.806   6.270  13.969  0.00  0.00    +0.000 A 
ATOM     19  C   UNL     1      47.137   5.090  14.334  0.00  0.00    +0.000 A 
ATOM     20  C   UNL     1      46.112   4.641  13.479  0.00  0.00    +0.000 A 
BRANCH  19  21
ATOM     21  C   UNL     1      47.413   4.402  15.619  0.00  0.00    +0.000 A 
ATOM     22  C   UNL     1      47.900   3.078  15.639  0.00  0.00    +0.000 A 
ATOM     23  C   UNL     1      48.272   2.445  16.831  0.00  0.00    +0.000 A 
ATOM     24  C   UNL     1      48.167   3.128  18.037  0.00  0.00    +0.000 A 
ATOM     25  C   UNL     1      47.672   4.424  18.039  0.00  0.00    +0.000 A 
ATOM     26  F   UNL     1      47.581   5.090  19.198  0.00  0.00    +0.000 F 
ATOM     27  C   UNL     1      47.286   5.055  16.857  0.00  0.00    +0.000 A 
ENDBRANCH  19  21
ENDBRANCH   1  15
TORSDOF 4
ENDMDL
MODEL 3
REMARK VINA RESULT:    -7.910      2.365      2.954
REMARK INTER + INTRA:         -10.683
REMARK INTER:                  -9.900
REMARK INTRA:                  -0.783
REMARK UNBOUND:                -0.923
REMARK  Name = 
REMARK  4 active torsions:
REMARK  status: ('A' for Active; 'I' for Inactive)
REMARK    1  A    between atoms: C_2  and  C_4
REMARK    2  A    between atoms: N_8  and  C_9
REMARK    3  A    between atoms: C_9  and  C_10
REMARK    4  A    between atoms: C_14  and  C_15
REMARK                            x       y       z     vdW  Elec       q    Type
REMARK                         _______ _______ _______ _____ _____    ______ ____
ROOT
ATOM      1  C   UNL     1      43.558   3.981  11.183  0.00  0.00    +0.000 C 
ENDROOT
BRANCH   1   6
ATOM      2  C   UNL     1      46.610   2.569   7.304  0.00  0.00    +0.000 A 
ATOM      3  C   UNL     1      46.363   3.841   7.808  0.00  0.00    +0.000 A 
ATOM      4  C   UNL     1      45.607   3.975   8.973  0.00  0.00    +0.000 A 
ATOM      5  C   UNL     1      45.097   2.845   9.604  0.00  0.00    +0.000 A 
ATOM      6  N   UNL     1      44.418   2.881  10.800  0.00  0.00    +0.000 N 
ATOM      7  N   UNL     1      45.321   1.612   9.113  0.00  0.00    +0.000 NA
ATOM      8  C   UNL     1      46.060   1.494   7.979  0.00  0.00    +0.000 A 
ATOM      9  H   UNL     1      44.063   1.949  10.990  0.00  0.00    +0.000 HD
BRANCH   2  11
ATOM     10  N   UNL     1      47.210   3.149   5.022  0.00  0.00    +0.000 N 
ATOM     11  C   UNL     1      47.429   2.331   6.098  0.00  0.00    +0.000 C 
ATOM     12  O   UNL     1      48.291   1.463   6.069  0.00  0.00    +0.000 OA
ATOM     13  H   UNL     1      47.842   3.040   4.239  0.00  0.00    +0.000 HD
ATOM     14  H   UNL     1      46.702   4.019   5.093  0.00  0.00    +0.000 HD
ENDBRANCH   2  11
ENDBRANCH   1   6
BRANCH   1  15
ATOM     15  C   UNL     1      44.293   5.108  11.866  0.00  0.00    +0.000 A 
ATOM     16  C   UNL     1      45.352   4.851  12.744  0.00  0.00    +0.000 A 
ATOM     17  C   UNL     1      46.104   5.901  13.264  0.00  0.00    +0.000 A 
ATOM     18  C   UNL     1      45.821   7.218  12.894  0.00  0.00    +0.000 A 
ATOM     19  C   UNL     1      44.784   7.520  11.995  0.00  0.00    +0.000 A 
ATOM     20  C   UNL     1      44.008   6.443  11.523  0.00  0.00    +0.000 A 
BRANCH  19  21
ATOM     21  C   UNL     1      44.580   8.892  11.470  0.00  0.00    +0.000 A 
ATOM     22  C   UNL     1      45.492   9.925  11.777  0.00  0.00    +0.000 A 
ATOM     23  C   UNL     1      45.384  11.199  11.207  0.00  0.00    +0.000 A 
ATOM     24  C   UNL     1      44.358  11.469  10.310  0.00  0.00    +0.000 A 
ATOM     25  C   UNL     1      43.441  10.472  10.011  0.00  0.00    +0.000 A 
ATOM     26  F   UNL     1      42.458  10.726   9.136  0.00  0.00    +0.000 F 
ATOM     27  C   UNL     1      43.533   9.206  10.586  0.00  0.00    +0.000 A 
ENDBRANCH  19  21
ENDBRANCH   1  15
TORSDOF 4
ENDMDL
MODEL 4
REMARK VINA RESULT:    -7.813      4.344      7.244
REMARK INTER + INTRA:         -10.563
REMARK INTER:                  -9.787
REMARK INTRA:                  -0.776
REMARK UNBOUND:                -0.923
REMARK  Name = 
REMARK  4 active torsions:
REMARK  status: ('A' for Active; 'I' for Inactive)
REMARK    1  A    between atoms: C_2  and  C_4
REMARK    2  A    between atoms: N_8  and  C_9
REMARK    3  A    between atoms: C_9  and  C_10
REMARK    4  A    between atoms: C_14  and  C_15
REMARK                            x       y       z     vdW  Elec       q    Type
REMARK                         _______ _______ _______ _____ _____    ______ ____
ROOT
ATOM      1  C   UNL     1      44.645   7.062  11.762  0.00  0.00    +0.000 C 
ENDROOT
BRANCH   1   6
ATOM      2  C   UNL     1      49.548   7.997  12.961  0.00  0.00    +0.000 A 
ATOM      3  C   UNL     1      48.821   8.415  11.853  0.00  0.00    +0.000 A 
ATOM      4  C   UNL     1      47.448   8.165  11.807  0.00  0.00    +0.000 A 
ATOM      5  C   UNL     1      46.829   7.491  12.855  0.00  0.00    +0.000 A 
ATOM      6  N   UNL     1      45.472   7.281  12.929  0.00  0.00    +0.000 N 
ATOM      7  N   UNL     1      47.531   7.071  13.923  0.00  0.00    +0.000 NA
ATOM      8  C   UNL     1      48.867   7.322  13.958  0.00  0.00    +0.000 A 
ATOM      9  H   UNL     1      45.289   6.679  13.727  0.00  0.00    +0.000 HD
BRANCH   2  11
ATOM     10  N   UNL     1      51.788   8.007  12.022  0.00  0.00    +0.000 N 
ATOM     11  C   UNL     1      50.996   8.250  13.111  0.00  0.00    +0.000 C 
ATOM     12  O   UNL     1      51.466   8.691  14.151  0.00  0.00    +0.000 OA
ATOM     13  H   UNL     1      52.760   8.275  12.105  0.00  0.00    +0.000 HD
ATOM     14  H   UNL     1      51.415   7.892  11.091  0.00  0.00    +0.000 HD
ENDBRANCH   2  11
ENDBRANCH   1   6
BRANCH   1  15
ATOM     15  C   UNL     1      44.395   5.602  11.468  0.00  0.00    +0.000 A 
ATOM     16  C   UNL     1      43.352   4.910  12.093  0.00  0.00    +0.000 A 
ATOM     17  C   UNL     1      43.051   3.604  11.716  0.00  0.00    +0.000 A 
ATOM     18  C   UNL     1      43.775   2.984  10.694  0.00  0.00    +0.000 A 
ATOM     19  C   UNL     1      44.813   3.652  10.022  0.00  0.00    +0.000 A 
ATOM     20  C   UNL     1      45.128   4.954  10.458  0.00  0.00    +0.000 A 
BRANCH  19  21
ATOM     21  C   UNL     1      45.476   3.066   8.831  0.00  0.00    +0.000 A 
ATOM     22  C   UNL     1      45.914   3.889   7.771  0.00  0.00    +0.000 A 
ATOM     23  C   UNL     1      46.639   3.376   6.689  0.00  0.00    +0.000 A 
ATOM     24  C   UNL     1      46.947   2.022   6.645  0.00  0.00    +0.000 A 
ATOM     25  C   UNL     1      46.508   1.194   7.668  0.00  0.00    +0.000 A 
ATOM     26  F   UNL     1      46.815  -0.110   7.635  0.00  0.00    +0.000 F 
ATOM     27  C   UNL     1      45.773   1.695   8.741  0.00  0.00    +0.000 A 
ENDBRANCH  19  21
ENDBRANCH   1  15
TORSDOF 4
ENDMDL
MODEL 5
REMARK VINA RESULT:    -7.765      4.371      7.396
REMARK INTER + INTRA:         -10.504
REMARK INTER:                 -10.089
REMARK INTRA:                  -0.415
REMARK UNBOUND:                -0.923
REMARK  Name = 
REMARK  4 active torsions:
REMARK  status: ('A' for Active; 'I' for Inactive)
REMARK    1  A    between atoms: C_2  and  C_4
REMARK    2  A    between atoms: N_8  and  C_9
REMARK    3  A    between atoms: C_9  and  C_10
REMARK    4  A    between atoms: C_14  and  C_15
REMARK                            x       y       z     vdW  Elec       q    Type
REMARK                         _______ _______ _______ _____ _____    ______ ____
ROOT
ATOM      1  C   UNL     1      45.463   7.068  11.781  0.00  0.00    +0.000 C 
ENDROOT
BRANCH   1   6
ATOM      2  C   UNL     1      47.910   4.917  15.748  0.00  0.00    +0.000 A 
ATOM      3  C   UNL     1      46.813   4.448  15.035  0.00  0.00    +0.000 A 
ATOM      4  C   UNL     1      46.404   5.132  13.889  0.00  0.00    +0.000 A 
ATOM      5  C   UNL     1      47.081   6.278  13.485  0.00  0.00    +0.000 A 
ATOM      6  N   UNL     1      46.799   6.960  12.325  0.00  0.00    +0.000 N 
ATOM      7  N   UNL     1      48.135   6.745  14.180  0.00  0.00    +0.000 NA
ATOM      8  C   UNL     1      48.525   6.069  15.293  0.00  0.00    +0.000 A 
ATOM      9  H   UNL     1      47.356   7.809  12.314  0.00  0.00    +0.000 HD
BRANCH   2  11
ATOM     10  N   UNL     1      47.520   3.811  17.876  0.00  0.00    +0.000 N 
ATOM     11  C   UNL     1      48.434   4.237  16.950  0.00  0.00    +0.000 C 
ATOM     12  O   UNL     1      49.631   4.031  17.100  0.00  0.00    +0.000 OA
ATOM     13  H   UNL     1      47.882   3.262  18.645  0.00  0.00    +0.000 HD
ATOM     14  H   UNL     1      46.534   3.734  17.672  0.00  0.00    +0.000 HD
ENDBRANCH   2  11
ENDBRANCH   1   6
BRANCH   1  15
ATOM     15  C   UNL     1      44.890   5.747  11.328  0.00  0.00    +0.000 A 
ATOM     16  C   UNL     1      43.626   5.325  11.757  0.00  0.00    +0.000 A 
ATOM     17  C   UNL     1      43.056   4.169  11.230  0.00  0.00    +0.000 A 
ATOM     18  C   UNL     1      43.732   3.436  10.251  0.00  0.00    +0.000 A 
ATOM     19  C   UNL     1      44.990   3.838   9.773  0.00  0.00    +0.000 A 
ATOM     20  C   UNL     1      45.565   4.983  10.359  0.00  0.00    +0.000 A 
BRANCH  19  21
ATOM     21  C   UNL     1      45.641   3.163   8.623  0.00  0.00    +0.000 A 
ATOM     22  C   UNL     1      46.126   3.910   7.528  0.00  0.00    +0.000 A 
ATOM     23  C   UNL     1      46.839   3.311   6.484  0.00  0.00    +0.000 A 
ATOM     24  C   UNL     1      47.090   1.944   6.514  0.00  0.00    +0.000 A 
ATOM     25  C   UNL     1      46.605   1.191   7.573  0.00  0.00    +0.000 A 
ATOM     26  F   UNL     1      46.856  -0.125   7.611  0.00  0.00    +0.000 F 
ATOM     27  C   UNL     1      45.880   1.779   8.608  0.00  0.00    +0.000 A 
ENDBRANCH  19  21
ENDBRANCH   1  15
TORSDOF 4
ENDMDL
MODEL 6
REMARK VINA RESULT:    -7.529      2.019      2.659
REMARK INTER + INTRA:         -10.214
REMARK INTER:                 -10.068
REMARK INTRA:                  -0.146
REMARK UNBOUND:                -0.923
REMARK  Name = 
REMARK  4 active torsions:
REMARK  status: ('A' for Active; 'I' for Inactive)
REMARK    1  A    between atoms: C_2  and  C_4
REMARK    2  A    between atoms: N_8  and  C_9
REMARK    3  A    between atoms: C_9  and  C_10
REMARK    4  A    between atoms: C_14  and  C_15
REMARK                            x       y       z     vdW  Elec       q    Type
REMARK                         _______ _______ _______ _____ _____    ______ ____
ROOT
ATOM      1  C   UNL     1      43.540   3.770  11.051  0.00  0.00    +0.000 C 
ENDROOT
BRANCH   1   6
ATOM      2  C   UNL     1      46.674   2.572   7.166  0.00  0.00    +0.000 A 
ATOM      3  C   UNL     1      46.207   3.818   7.563  0.00  0.00    +0.000 A 
ATOM      4  C   UNL     1      45.478   3.925   8.749  0.00  0.00    +0.000 A 
ATOM      5  C   UNL     1      45.213   2.788   9.506  0.00  0.00    +0.000 A 
ATOM      6  N   UNL     1      44.579   2.817  10.726  0.00  0.00    +0.000 N 
ATOM      7  N   UNL     1      45.650   1.576   9.118  0.00  0.00    +0.000 NA
ATOM      8  C   UNL     1      46.361   1.485   7.963  0.00  0.00    +0.000 A 
ATOM      9  H   UNL     1      44.414   1.858  11.019  0.00  0.00    +0.000 HD
BRANCH   2  11
ATOM     10  N   UNL     1      47.335   3.287   4.941  0.00  0.00    +0.000 N 
ATOM     11  C   UNL     1      47.483   2.371   5.946  0.00  0.00    +0.000 C 
ATOM     12  O   UNL     1      48.278   1.446   5.849  0.00  0.00    +0.000 OA
ATOM     13  H   UNL     1      47.964   3.196   4.153  0.00  0.00    +0.000 HD
ATOM     14  H   UNL     1      46.893   4.185   5.081  0.00  0.00    +0.000 HD
ENDBRANCH   2  11
ENDBRANCH   1   6
BRANCH   1  15
ATOM     15  C   UNL     1      44.045   5.184  11.197  0.00  0.00    +0.000 A 
ATOM     16  C   UNL     1      43.177   6.275  11.081  0.00  0.00    +0.000 A 
ATOM     17  C   UNL     1      43.630   7.564  11.348  0.00  0.00    +0.000 A 
ATOM     18  C   UNL     1      44.950   7.774  11.757  0.00  0.00    +0.000 A 
ATOM     19  C   UNL     1      45.848   6.705  11.913  0.00  0.00    +0.000 A 
ATOM     20  C   UNL     1      45.377   5.417  11.588  0.00  0.00    +0.000 A 
BRANCH  19  21
ATOM     21  C   UNL     1      47.196   6.896  12.501  0.00  0.00    +0.000 A 
ATOM     22  C   UNL     1      48.231   7.497  11.752  0.00  0.00    +0.000 A 
ATOM     23  C   UNL     1      49.477   7.789  12.318  0.00  0.00    +0.000 A 
ATOM     24  C   UNL     1      49.717   7.490  13.654  0.00  0.00    +0.000 A 
ATOM     25  C   UNL     1      48.718   6.882  14.400  0.00  0.00    +0.000 A 
ATOM     26  F   UNL     1      48.941   6.604  15.692  0.00  0.00    +0.000 F 
ATOM     27  C   UNL     1      47.479   6.574  13.839  0.00  0.00    +0.000 A 
ENDBRANCH  19  21
ENDBRANCH   1  15
TORSDOF 4
ENDMDL
MODEL 7
REMARK VINA RESULT:    -7.084      2.003      2.777
REMARK INTER + INTRA:          -9.664
REMARK INTER:                  -9.028
REMARK INTRA:                  -0.636
REMARK UNBOUND:                -0.923
REMARK  Name = 
REMARK  4 active torsions:
REMARK  status: ('A' for Active; 'I' for Inactive)
REMARK    1  A    between atoms: C_2  and  C_4
REMARK    2  A    between atoms: N_8  and  C_9
REMARK    3  A    between atoms: C_9  and  C_10
REMARK    4  A    between atoms: C_14  and  C_15
REMARK                            x       y       z     vdW  Elec       q    Type
REMARK                         _______ _______ _______ _____ _____    ______ ____
ROOT
ATOM      1  C   UNL     1      44.556   5.746  10.921  0.00  0.00    +0.000 C 
ENDROOT
BRANCH   1   6
ATOM      2  C   UNL     1      46.431   2.067   7.871  0.00  0.00    +0.000 A 
ATOM      3  C   UNL     1      45.692   1.944   9.042  0.00  0.00    +0.000 A 
ATOM      4  C   UNL     1      45.155   3.090   9.630  0.00  0.00    +0.000 A 
ATOM      5  C   UNL     1      45.378   4.336   9.054  0.00  0.00    +0.000 A 
ATOM      6  N   UNL     1      44.815   5.502   9.518  0.00  0.00    +0.000 N 
ATOM      7  N   UNL     1      46.104   4.463   7.928  0.00  0.00    +0.000 NA
ATOM      8  C   UNL     1      46.620   3.340   7.363  0.00  0.00    +0.000 A 
ATOM      9  H   UNL     1      45.214   6.276   8.996  0.00  0.00    +0.000 HD
BRANCH   2  11
ATOM     10  N   UNL     1      46.697  -0.337   7.643  0.00  0.00    +0.000 N 
ATOM     11  C   UNL     1      47.005   0.906   7.161  0.00  0.00    +0.000 C 
ATOM     12  O   UNL     1      47.700   1.044   6.163  0.00  0.00    +0.000 OA
ATOM     13  H   UNL     1      47.015  -1.124   7.093  0.00  0.00    +0.000 HD
ATOM     14  H   UNL     1      45.939  -0.498   8.291  0.00  0.00    +0.000 HD
ENDBRANCH   2  11
ENDBRANCH   1   6
BRANCH   1  15
ATOM     15  C   UNL     1      45.202   7.007  11.441  0.00  0.00    +0.000 A 
ATOM     16  C   UNL     1      44.514   8.225  11.433  0.00  0.00    +0.000 A 
ATOM     17  C   UNL     1      45.071   9.350  12.034  0.00  0.00    +0.000 A 
ATOM     18  C   UNL     1      46.313   9.265  12.670  0.00  0.00    +0.000 A 
ATOM     19  C   UNL     1      47.026   8.055  12.725  0.00  0.00    +0.000 A 
ATOM     20  C   UNL     1      46.461   6.945  12.066  0.00  0.00    +0.000 A 
BRANCH  19  21
ATOM     21  C   UNL     1      48.261   7.913  13.534  0.00  0.00    +0.000 A 
ATOM     22  C   UNL     1      48.255   7.173  14.737  0.00  0.00    +0.000 A 
ATOM     23  C   UNL     1      49.427   6.932  15.461  0.00  0.00    +0.000 A 
ATOM     24  C   UNL     1      50.641   7.423  14.995  0.00  0.00    +0.000 A 
ATOM     25  C   UNL     1      50.663   8.169  13.825  0.00  0.00    +0.000 A 
ATOM     26  F   UNL     1      51.834   8.634  13.366  0.00  0.00    +0.000 F 
ATOM     27  C   UNL     1      49.497   8.426  13.107  0.00  0.00    +0.000 A 
ENDBRANCH  19  21
ENDBRANCH   1  15
TORSDOF 4
ENDMDL
MODEL 8
REMARK VINA RESULT:    -7.052      5.226      8.107
REMARK INTER + INTRA:          -9.625
REMARK INTER:                  -9.087
REMARK INTRA:                  -0.538
REMARK UNBOUND:                -0.923
REMARK  Name = 
REMARK  4 active torsions:
REMARK  status: ('A' for Active; 'I' for Inactive)
REMARK    1  A    between atoms: C_2  and  C_4
REMARK    2  A    between atoms: N_8  and  C_9
REMARK    3  A    between atoms: C_9  and  C_10
REMARK    4  A    between atoms: C_14  and  C_15
REMARK                            x       y       z     vdW  Elec       q    Type
REMARK                         _______ _______ _______ _____ _____    ______ ____
ROOT
ATOM      1  C   UNL     1      46.392   6.053  13.264  0.00  0.00    +0.000 C 
ENDROOT
BRANCH   1   6
ATOM      2  C   UNL     1      49.623   5.096  17.137  0.00  0.00    +0.000 A 
ATOM      3  C   UNL     1      49.448   6.267  16.409  0.00  0.00    +0.000 A 
ATOM      4  C   UNL     1      48.399   6.347  15.492  0.00  0.00    +0.000 A 
ATOM      5  C   UNL     1      47.556   5.257  15.304  0.00  0.00    +0.000 A 
ATOM      6  N   UNL     1      46.450   5.282  14.487  0.00  0.00    +0.000 N 
ATOM      7  N   UNL     1      47.729   4.116  15.995  0.00  0.00    +0.000 NA
ATOM      8  C   UNL     1      48.753   4.050  16.887  0.00  0.00    +0.000 A 
ATOM      9  H   UNL     1      46.070   4.341  14.440  0.00  0.00    +0.000 HD
BRANCH   2  11
ATOM     10  N   UNL     1      51.844   4.331  17.755  0.00  0.00    +0.000 N 
ATOM     11  C   UNL     1      50.683   4.935  18.153  0.00  0.00    +0.000 C 
ATOM     12  O   UNL     1      50.545   5.355  19.295  0.00  0.00    +0.000 OA
ATOM     13  H   UNL     1      52.597   4.314  18.431  0.00  0.00    +0.000 HD
ATOM     14  H   UNL     1      52.088   4.207  16.783  0.00  0.00    +0.000 HD
ENDBRANCH   2  11
ENDBRANCH   1   6
BRANCH   1  15
ATOM     15  C   UNL     1      45.389   5.524  12.267  0.00  0.00    +0.000 A 
ATOM     16  C   UNL     1      44.070   5.990  12.257  0.00  0.00    +0.000 A 
ATOM     17  C   UNL     1      43.193   5.592  11.252  0.00  0.00    +0.000 A 
ATOM     18  C   UNL     1      43.632   4.744  10.232  0.00  0.00    +0.000 A 
ATOM     19  C   UNL     1      44.955   4.274  10.188  0.00  0.00    +0.000 A 
ATOM     20  C   UNL     1      45.807   4.653  11.245  0.00  0.00    +0.000 A 
BRANCH  19  21
ATOM     21  C   UNL     1      45.475   3.510   9.028  0.00  0.00    +0.000 A 
ATOM     22  C   UNL     1      46.020   4.178   7.910  0.00  0.00    +0.000 A 
ATOM     23  C   UNL     1      46.616   3.481   6.852  0.00  0.00    +0.000 A 
ATOM     24  C   UNL     1      46.684   2.094   6.891  0.00  0.00    +0.000 A 
ATOM     25  C   UNL     1      46.136   1.419   7.972  0.00  0.00    +0.000 A 
ATOM     26  F   UNL     1      46.212   0.082   8.019  0.00  0.00    +0.000 F 
ATOM     27  C   UNL     1      45.528   2.106   9.022  0.00  0.00    +0.000 A 
ENDBRANCH  19  21
ENDBRANCH   1  15
TORSDOF 4
ENDMDL
MODEL 9
REMARK VINA RESULT:    -6.693      5.500      8.259
REMARK INTER + INTRA:          -9.182
REMARK INTER:                  -8.635
REMARK INTRA:                  -0.547
REMARK UNBOUND:                -0.923
REMARK  Name = 
REMARK  4 active torsions:
REMARK  status: ('A' for Active; 'I' for Inactive)
REMARK    1  A    between atoms: C_2  and  C_4
REMARK    2  A    between atoms: N_8  and  C_9
REMARK    3  A    between atoms: C_9  and  C_10
REMARK    4  A    between atoms: C_14  and  C_15
REMARK                            x       y       z     vdW  Elec       q    Type
REMARK                         _______ _______ _______ _____ _____    ______ ____
ROOT
ATOM      1  C   UNL     1      48.152   7.217  14.168  0.00  0.00    +0.000 C 
ENDROOT
BRANCH   1   6
ATOM      2  C   UNL     1      50.907   4.698  17.692  0.00  0.00    +0.000 A 
ATOM      3  C   UNL     1      51.188   5.899  17.053  0.00  0.00    +0.000 A 
ATOM      4  C   UNL     1      50.217   6.477  16.234  0.00  0.00    +0.000 A 
ATOM      5  C   UNL     1      48.994   5.841  16.052  0.00  0.00    +0.000 A 
ATOM      6  N   UNL     1      47.953   6.383  15.334  0.00  0.00    +0.000 N 
ATOM      7  N   UNL     1      48.721   4.671  16.657  0.00  0.00    +0.000 NA
ATOM      8  C   UNL     1      49.673   4.119  17.454  0.00  0.00    +0.000 A 
ATOM      9  H   UNL     1      47.220   5.683  15.263  0.00  0.00    +0.000 HD
BRANCH   2  11
ATOM     10  N   UNL     1      51.729   4.292  19.942  0.00  0.00    +0.000 N 
ATOM     11  C   UNL     1      51.860   4.034  18.604  0.00  0.00    +0.000 C 
ATOM     12  O   UNL     1      52.711   3.258  18.189  0.00  0.00    +0.000 OA
ATOM     13  H   UNL     1      52.322   3.758  20.563  0.00  0.00    +0.000 HD
ATOM     14  H   UNL     1      50.899   4.712  20.337  0.00  0.00    +0.000 HD
ENDBRANCH   2  11
ENDBRANCH   1   6
BRANCH   1  15
ATOM     15  C   UNL     1      46.947   7.281  13.262  0.00  0.00    +0.000 A 
ATOM     16  C   UNL     1      46.284   8.491  13.029  0.00  0.00    +0.000 A 
ATOM     17  C   UNL     1      45.257   8.560  12.092  0.00  0.00    +0.000 A 
ATOM     18  C   UNL     1      44.897   7.426  11.359  0.00  0.00    +0.000 A 
ATOM     19  C   UNL     1      45.554   6.197  11.542  0.00  0.00    +0.000 A 
ATOM     20  C   UNL     1      46.555   6.144  12.532  0.00  0.00    +0.000 A 
BRANCH  19  21
ATOM     21  C   UNL     1      45.293   5.034  10.659  0.00  0.00    +0.000 A 
ATOM     22  C   UNL     1      44.548   3.929  11.123  0.00  0.00    +0.000 A 
ATOM     23  C   UNL     1      44.195   2.870  10.279  0.00  0.00    +0.000 A 
ATOM     24  C   UNL     1      44.577   2.894   8.943  0.00  0.00    +0.000 A 
ATOM     25  C   UNL     1      45.326   3.963   8.474  0.00  0.00    +0.000 A 
ATOM     26  F   UNL     1      45.686   3.996   7.183  0.00  0.00    +0.000 F 
ATOM     27  C   UNL     1      45.695   5.014   9.312  0.00  0.00    +0.000 A 
ENDBRANCH  19  21
ENDBRANCH   1  15
TORSDOF 4
ENDMDL
