MODEL 1
REMARK VINA RESULT:    -8.584      0.000      0.000
REMARK INTER + INTRA:         -10.771
REMARK INTER:                 -10.090
REMARK INTRA:                  -0.681
REMARK UNBOUND:                -0.681
REMARK  Name = 
REMARK  3 active torsions:
REMARK  status: ('A' for Active; 'I' for Inactive)
REMARK    1  A    between atoms: C_2  and  C_4
REMARK    2  A    between atoms: N_8  and  C_9
REMARK    3  A    between atoms: C_9  and  C_10
REMARK                            x       y       z     vdW  Elec       q    Type
REMARK                         _______ _______ _______ _____ _____    ______ ____
ROOT
ATOM      1  C   UNL     1      46.543   2.665   7.502  0.00  0.00    +0.000 A 
ATOM      2  C   UNL     1      46.231   4.012   7.667  0.00  0.00    +0.000 A 
ATOM      3  C   UNL     1      45.360   4.396   8.686  0.00  0.00    +0.000 A 
ATOM      4  C   UNL     1      44.818   3.432   9.529  0.00  0.00    +0.000 A 
ATOM      5  N   UNL     1      43.880   3.717  10.523  0.00  0.00    +0.000 N 
ATOM      6  N   UNL     1      45.099   2.117   9.367  0.00  0.00    +0.000 NA
ATOM      7  C   UNL     1      45.941   1.759   8.362  0.00  0.00    +0.000 A 
ATOM      8  H   UNL     1      43.724   2.835  11.009  0.00  0.00    +0.000 HD
ENDROOT
BRANCH   1  10
ATOM      9  N   UNL     1      47.705   3.046   5.409  0.00  0.00    +0.000 N 
ATOM     10  C   UNL     1      47.443   2.178   6.435  0.00  0.00    +0.000 C 
ATOM     11  O   UNL     1      47.945   1.065   6.477  0.00  0.00    +0.000 OA
ATOM     12  H   UNL     1      48.381   2.742   4.719  0.00  0.00    +0.000 HD
ATOM     13  H   UNL     1      47.518   4.038   5.471  0.00  0.00    +0.000 HD
ENDBRANCH   1  10
BRANCH   5  14
ATOM     14  C   UNL     1      43.856   4.927  11.361  0.00  0.00    +0.000 C 
ATOM     15  C   UNL     1      42.537   5.125  12.103  0.00  0.00    +0.000 C 
ATOM     16  C   UNL     1      42.971   6.131  11.093  0.00  0.00    +0.000 C 
BRANCH  14  17
ATOM     17  C   UNL     1      45.160   5.174  12.116  0.00  0.00    +0.000 A 
ATOM     18  C   UNL     1      45.947   6.319  11.880  0.00  0.00    +0.000 A 
ATOM     19  C   UNL     1      47.126   6.563  12.593  0.00  0.00    +0.000 A 
ATOM     20  C   UNL     1      47.544   5.662  13.566  0.00  0.00    +0.000 A 
ATOM     21  C   UNL     1      46.784   4.527  13.809  0.00  0.00    +0.000 A 
ATOM     22  F   UNL     1      47.184   3.656  14.746  0.00  0.00    +0.000 F 
ATOM     23  C   UNL     1      45.612   4.278  13.100  0.00  0.00    +0.000 A 
ENDBRANCH  14  17
ENDBRANCH   5  14
TORSDOF 3
ENDMDL
MODEL 2
REMARK VINA RESULT:    -6.898      3.760      6.185
REMARK INTER + INTRA:          -8.789
REMARK INTER:                  -8.374
REMARK INTRA:                  -0.415
REMARK UNBOUND:                -0.681
REMARK  Name = 
REMARK  3 active torsions:
REMARK  status: ('A' for Active; 'I' for Inactive)
REMARK    1  A    between atoms: C_2  and  C_4
REMARK    2  A    between atoms: N_8  and  C_9
REMARK    3  A    between atoms: C_9  and  C_10
REMARK                            x       y       z     vdW  Elec       q    Type
REMARK                         _______ _______ _______ _____ _____    ______ ____
ROOT
ATOM      1  C   UNL     1      48.290   6.747  13.606  0.00  0.00    +0.000 A 
ATOM      2  C   UNL     1      47.596   5.595  13.972  0.00  0.00    +0.000 A 
ATOM      3  C   UNL     1      46.494   5.190  13.220  0.00  0.00    +0.000 A 
ATOM      4  C   UNL     1      46.103   5.935  12.114  0.00  0.00    +0.000 A 
ATOM      5  N   UNL     1      44.968   5.647  11.353  0.00  0.00    +0.000 N 
ATOM      6  N   UNL     1      46.757   7.066  11.759  0.00  0.00    +0.000 NA
ATOM      7  C   UNL     1      47.823   7.453  12.509  0.00  0.00    +0.000 A 
ATOM      8  H   UNL     1      44.980   6.316  10.585  0.00  0.00    +0.000 HD
ENDROOT
BRANCH   1  10
ATOM      9  N   UNL     1      49.968   8.458  13.971  0.00  0.00    +0.000 N 
ATOM     10  C   UNL     1      49.457   7.250  14.362  0.00  0.00    +0.000 C 
ATOM     11  O   UNL     1      49.928   6.628  15.302  0.00  0.00    +0.000 OA
ATOM     12  H   UNL     1      50.717   8.838  14.536  0.00  0.00    +0.000 HD
ATOM     13  H   UNL     1      49.459   9.102  13.381  0.00  0.00    +0.000 HD
ENDBRANCH   1  10
BRANCH   5  14
ATOM     14  C   UNL     1      44.470   4.301  11.027  0.00  0.00    +0.000 C 
ATOM     15  C   UNL     1      42.969   4.137  11.253  0.00  0.00    +0.000 C 
ATOM     16  C   UNL     1      43.927   3.322  12.052  0.00  0.00    +0.000 C 
BRANCH  14  17
ATOM     17  C   UNL     1      45.082   3.713   9.758  0.00  0.00    +0.000 A 
ATOM     18  C   UNL     1      45.601   4.534   8.737  0.00  0.00    +0.000 A 
ATOM     19  C   UNL     1      46.191   3.997   7.587  0.00  0.00    +0.000 A 
ATOM     20  C   UNL     1      46.278   2.618   7.435  0.00  0.00    +0.000 A 
ATOM     21  C   UNL     1      45.769   1.793   8.427  0.00  0.00    +0.000 A 
ATOM     22  F   UNL     1      45.851   0.463   8.285  0.00  0.00    +0.000 F 
ATOM     23  C   UNL     1      45.178   2.323   9.572  0.00  0.00    +0.000 A 
ENDBRANCH  14  17
ENDBRANCH   5  14
TORSDOF 3
ENDMDL
MODEL 3
REMARK VINA RESULT:    -6.452      3.871      6.337
REMARK INTER + INTRA:          -8.264
REMARK INTER:                  -8.494
REMARK INTRA:                   0.230
REMARK UNBOUND:                -0.681
REMARK  Name = 
REMARK  3 active torsions:
REMARK  status: ('A' for Active; 'I' for Inactive)
REMARK    1  A    between atoms: C_2  and  C_4
REMARK    2  A    between atoms: N_8  and  C_9
REMARK    3  A    between atoms: C_9  and  C_10
REMARK                            x       y       z     vdW  Elec       q    Type
REMARK                         _______ _______ _______ _____ _____    ______ ____
ROOT
ATOM      1  C   UNL     1      47.858   5.801  14.645  0.00  0.00    +0.000 A 
ATOM      2  C   UNL     1      47.503   6.098  13.331  0.00  0.00    +0.000 A 
ATOM      3  C   UNL     1      46.714   5.199  12.613  0.00  0.00    +0.000 A 
ATOM      4  C   UNL     1      46.287   4.022  13.217  0.00  0.00    +0.000 A 
ATOM      5  N   UNL     1      45.562   3.032  12.550  0.00  0.00    +0.000 N 
ATOM      6  N   UNL     1      46.640   3.714  14.487  0.00  0.00    +0.000 NA
ATOM      7  C   UNL     1      47.419   4.596  15.169  0.00  0.00    +0.000 A 
ATOM      8  H   UNL     1      45.342   2.334  13.259  0.00  0.00    +0.000 HD
ENDROOT
BRANCH   1  10
ATOM      9  N   UNL     1      48.223   7.955  15.696  0.00  0.00    +0.000 N 
ATOM     10  C   UNL     1      48.704   6.694  15.464  0.00  0.00    +0.000 C 
ATOM     11  O   UNL     1      49.770   6.320  15.928  0.00  0.00    +0.000 OA
ATOM     12  H   UNL     1      48.766   8.540  16.319  0.00  0.00    +0.000 HD
ATOM     13  H   UNL     1      47.255   8.207  15.547  0.00  0.00    +0.000 HD
ENDBRANCH   1  10
BRANCH   5  14
ATOM     14  C   UNL     1      44.526   3.265  11.530  0.00  0.00    +0.000 C 
ATOM     15  C   UNL     1      43.490   4.306  11.944  0.00  0.00    +0.000 C 
ATOM     16  C   UNL     1      43.064   2.899  11.703  0.00  0.00    +0.000 C 
BRANCH  14  17
ATOM     17  C   UNL     1      45.072   3.308  10.104  0.00  0.00    +0.000 A 
ATOM     18  C   UNL     1      45.294   4.527   9.433  0.00  0.00    +0.000 A 
ATOM     19  C   UNL     1      45.823   4.569   8.138  0.00  0.00    +0.000 A 
ATOM     20  C   UNL     1      46.145   3.384   7.484  0.00  0.00    +0.000 A 
ATOM     21  C   UNL     1      45.928   2.175   8.127  0.00  0.00    +0.000 A 
ATOM     22  F   UNL     1      46.238   1.031   7.501  0.00  0.00    +0.000 F 
ATOM     23  C   UNL     1      45.399   2.128   9.415  0.00  0.00    +0.000 A 
ENDBRANCH  14  17
ENDBRANCH   5  14
TORSDOF 3
ENDMDL
