MODEL 1
REMARK VINA RESULT:    -7.888      0.000      0.000
REMARK INTER + INTRA:         -11.899
REMARK INTER:                 -10.655
REMARK INTRA:                  -1.244
REMARK UNBOUND:                -1.244
REMARK  Name = 
REMARK  6 active torsions:
REMARK  status: ('A' for Active; 'I' for Inactive)
REMARK    1  A    between atoms: C_2  and  C_25
REMARK    2  A    between atoms: N_3  and  C_4
REMARK    3  A    between atoms: C_4  and  C_5
REMARK    4  A    between atoms: C_8  and  C_9
REMARK    5  A    between atoms: C_9  and  N_10
REMARK    6  A    between atoms: C_11  and  C_13
REMARK                            x       y       z     vdW  Elec       q    Type
REMARK                         _______ _______ _______ _____ _____    ______ ____
ROOT
ATOM      1  C   UNL     1      45.120   5.557  11.274  0.00  0.00    +0.000 C 
ATOM      2  C   UNL     1      44.300   6.682  11.912  0.00  0.00    +0.000 C 
ATOM      3  C   UNL     1      45.111   7.467  12.931  0.00  0.00    +0.000 C 
ATOM      4  C   UNL     1      46.400   8.051  12.337  0.00  0.00    +0.000 C 
ATOM      5  C   UNL     1      47.227   6.929  11.692  0.00  0.00    +0.000 C 
ATOM      6  C   UNL     1      46.416   6.123  10.675  0.00  0.00    +0.000 C 
ENDROOT
BRANCH   1   7
ATOM      7  C   UNL     1      44.301   4.833  10.195  0.00  0.00    +0.000 C 
BRANCH   7  10
ATOM      8  O   UNL     1      44.644   2.109   9.489  0.00  0.00    +0.000 OA
ATOM      9  C   UNL     1      45.233   2.974   8.843  0.00  0.00    +0.000 C 
ATOM     10  N   UNL     1      45.136   4.315   9.130  0.00  0.00    +0.000 N 
ATOM     11  H   UNL     1      45.528   4.973   8.473  0.00  0.00    +0.000 HD
BRANCH   9  12
ATOM     12  C   UNL     1      46.069   2.655   7.705  0.00  0.00    +0.000 A 
ATOM     13  C   UNL     1      46.296   3.316   6.508  0.00  0.00    +0.000 A 
ATOM     14  C   UNL     1      47.194   2.539   5.736  0.00  0.00    +0.000 A 
ATOM     15  C   UNL     1      47.515   1.430   6.482  0.00  0.00    +0.000 A 
ATOM     16  N   UNL     1      46.852   1.520   7.676  0.00  0.00    +0.000 N 
ATOM     17  H   UNL     1      46.901   0.853   8.438  0.00  0.00    +0.000 HD
ENDBRANCH   9  12
ENDBRANCH   7  10
ENDBRANCH   1   7
BRANCH   4  18
ATOM     18  C   UNL     1      47.232   8.792  13.402  0.00  0.00    +0.000 C 
BRANCH  18  19
ATOM     19  N   UNL     1      47.526   7.967  14.559  0.00  0.00    +0.000 N 
ATOM     20  C   UNL     1      48.801   7.519  14.819  0.00  0.00    +0.000 C 
ATOM     21  O   UNL     1      49.768   7.864  14.144  0.00  0.00    +0.000 OA
ATOM     22  H   UNL     1      46.762   7.440  14.965  0.00  0.00    +0.000 HD
BRANCH  20  23
ATOM     23  C   UNL     1      48.953   6.656  15.997  0.00  0.00    +0.000 A 
ATOM     24  C   UNL     1      49.844   7.010  17.004  0.00  0.00    +0.000 A 
ATOM     25  S   UNL     1      49.854   5.926  18.320  0.00  0.00    +0.000 S 
ATOM     26  C   UNL     1      48.707   4.917  17.573  0.00  0.00    +0.000 A 
ATOM     27  N   UNL     1      48.277   3.772  18.173  0.00  0.00    +0.000 NA
ATOM     28  C   UNL     1      47.422   3.094  17.482  0.00  0.00    +0.000 A 
ATOM     29  N   UNL     1      46.955   3.456  16.244  0.00  0.00    +0.000 N 
ATOM     30  C   UNL     1      47.362   4.599  15.604  0.00  0.00    +0.000 A 
ATOM     31  O   UNL     1      46.927   4.895  14.502  0.00  0.00    +0.000 OA
ATOM     32  C   UNL     1      48.314   5.408  16.340  0.00  0.00    +0.000 A 
ATOM     33  H   UNL     1      46.288   2.882  15.752  0.00  0.00    +0.000 HD
ENDBRANCH  20  23
ENDBRANCH  18  19
ENDBRANCH   4  18
TORSDOF 6
ENDMDL
MODEL 2
REMARK VINA RESULT:    -7.696      2.241      2.792
REMARK INTER + INTRA:         -11.640
REMARK INTER:                 -10.766
REMARK INTRA:                  -0.875
REMARK UNBOUND:                -1.244
REMARK  Name = 
REMARK  6 active torsions:
REMARK  status: ('A' for Active; 'I' for Inactive)
REMARK    1  A    between atoms: C_2  and  C_25
REMARK    2  A    between atoms: N_3  and  C_4
REMARK    3  A    between atoms: C_4  and  C_5
REMARK    4  A    between atoms: C_8  and  C_9
REMARK    5  A    between atoms: C_9  and  N_10
REMARK    6  A    between atoms: C_11  and  C_13
REMARK                            x       y       z     vdW  Elec       q    Type
REMARK                         _______ _______ _______ _____ _____    ______ ____
ROOT
ATOM      1  C   UNL     1      44.758   4.456  12.246  0.00  0.00    +0.000 C 
ATOM      2  C   UNL     1      45.189   5.697  11.460  0.00  0.00    +0.000 C 
ATOM      3  C   UNL     1      46.011   6.651  12.313  0.00  0.00    +0.000 C 
ATOM      4  C   UNL     1      47.250   5.980  12.922  0.00  0.00    +0.000 C 
ATOM      5  C   UNL     1      46.826   4.731  13.710  0.00  0.00    +0.000 C 
ATOM      6  C   UNL     1      45.986   3.771  12.865  0.00  0.00    +0.000 C 
ENDROOT
BRANCH   1   7
ATOM      7  C   UNL     1      43.998   3.476  11.339  0.00  0.00    +0.000 C 
BRANCH   7  10
ATOM      8  O   UNL     1      44.171   4.113   8.582  0.00  0.00    +0.000 OA
ATOM      9  C   UNL     1      44.898   3.233   9.040  0.00  0.00    +0.000 C 
ATOM     10  N   UNL     1      44.865   2.851  10.360  0.00  0.00    +0.000 N 
ATOM     11  H   UNL     1      45.585   2.228  10.695  0.00  0.00    +0.000 HD
BRANCH   9  12
ATOM     12  C   UNL     1      45.872   2.534   8.229  0.00  0.00    +0.000 A 
ATOM     13  C   UNL     1      46.796   2.981   7.298  0.00  0.00    +0.000 A 
ATOM     14  C   UNL     1      47.484   1.857   6.781  0.00  0.00    +0.000 A 
ATOM     15  C   UNL     1      46.985   0.747   7.418  0.00  0.00    +0.000 A 
ATOM     16  N   UNL     1      46.032   1.165   8.307  0.00  0.00    +0.000 N 
ATOM     17  H   UNL     1      45.495   0.573   8.931  0.00  0.00    +0.000 HD
ENDBRANCH   9  12
ENDBRANCH   7  10
ENDBRANCH   1   7
BRANCH   4  18
ATOM     18  C   UNL     1      48.034   6.949  13.827  0.00  0.00    +0.000 C 
BRANCH  18  19
ATOM     19  N   UNL     1      47.930   6.611  15.235  0.00  0.00    +0.000 N 
ATOM     20  C   UNL     1      49.047   6.372  16.004  0.00  0.00    +0.000 C 
ATOM     21  O   UNL     1      50.186   6.519  15.568  0.00  0.00    +0.000 OA
ATOM     22  H   UNL     1      47.056   6.212  15.558  0.00  0.00    +0.000 HD
BRANCH  20  23
ATOM     23  C   UNL     1      48.799   5.997  17.402  0.00  0.00    +0.000 A 
ATOM     24  C   UNL     1      49.029   4.692  17.819  0.00  0.00    +0.000 A 
ATOM     25  S   UNL     1      48.742   4.445  19.482  0.00  0.00    +0.000 S 
ATOM     26  C   UNL     1      48.253   6.059  19.696  0.00  0.00    +0.000 A 
ATOM     27  N   UNL     1      47.849   6.519  20.914  0.00  0.00    +0.000 NA
ATOM     28  C   UNL     1      47.484   7.758  20.925  0.00  0.00    +0.000 A 
ATOM     29  N   UNL     1      47.488   8.582  19.829  0.00  0.00    +0.000 N 
ATOM     30  C   UNL     1      47.885   8.161  18.585  0.00  0.00    +0.000 A 
ATOM     31  O   UNL     1      47.877   8.920  17.629  0.00  0.00    +0.000 OA
ATOM     32  C   UNL     1      48.317   6.779  18.516  0.00  0.00    +0.000 A 
ATOM     33  H   UNL     1      47.189   9.542  19.901  0.00  0.00    +0.000 HD
ENDBRANCH  20  23
ENDBRANCH  18  19
ENDBRANCH   4  18
TORSDOF 6
ENDMDL
MODEL 3
REMARK VINA RESULT:    -7.522      1.861      2.332
REMARK INTER + INTRA:         -11.405
REMARK INTER:                 -10.515
REMARK INTRA:                  -0.890
REMARK UNBOUND:                -1.244
REMARK  Name = 
REMARK  6 active torsions:
REMARK  status: ('A' for Active; 'I' for Inactive)
REMARK    1  A    between atoms: C_2  and  C_25
REMARK    2  A    between atoms: N_3  and  C_4
REMARK    3  A    between atoms: C_4  and  C_5
REMARK    4  A    between atoms: C_8  and  C_9
REMARK    5  A    between atoms: C_9  and  N_10
REMARK    6  A    between atoms: C_11  and  C_13
REMARK                            x       y       z     vdW  Elec       q    Type
REMARK                         _______ _______ _______ _____ _____    ______ ____
ROOT
ATOM      1  C   UNL     1      45.009   4.518  12.376  0.00  0.00    +0.000 C 
ATOM      2  C   UNL     1      45.566   5.629  11.481  0.00  0.00    +0.000 C 
ATOM      3  C   UNL     1      46.439   6.600  12.261  0.00  0.00    +0.000 C 
ATOM      4  C   UNL     1      47.599   5.903  12.985  0.00  0.00    +0.000 C 
ATOM      5  C   UNL     1      47.048   4.783  13.883  0.00  0.00    +0.000 C 
ATOM      6  C   UNL     1      46.157   3.808  13.111  0.00  0.00    +0.000 C 
ENDROOT
BRANCH   1   7
ATOM      7  C   UNL     1      44.197   3.510  11.548  0.00  0.00    +0.000 C 
BRANCH   7  10
ATOM      8  O   UNL     1      44.164   4.061   8.767  0.00  0.00    +0.000 OA
ATOM      9  C   UNL     1      44.935   3.205   9.199  0.00  0.00    +0.000 C 
ATOM     10  N   UNL     1      45.001   2.865  10.529  0.00  0.00    +0.000 N 
ATOM     11  H   UNL     1      45.753   2.263  10.830  0.00  0.00    +0.000 HD
BRANCH   9  12
ATOM     12  C   UNL     1      45.859   2.493   8.343  0.00  0.00    +0.000 A 
ATOM     13  C   UNL     1      46.112   1.140   8.175  0.00  0.00    +0.000 A 
ATOM     14  C   UNL     1      47.145   0.998   7.216  0.00  0.00    +0.000 A 
ATOM     15  C   UNL     1      47.489   2.262   6.801  0.00  0.00    +0.000 A 
ATOM     16  N   UNL     1      46.694   3.155   7.467  0.00  0.00    +0.000 N 
ATOM     17  H   UNL     1      46.707   4.163   7.360  0.00  0.00    +0.000 HD
ENDBRANCH   9  12
ENDBRANCH   7  10
ENDBRANCH   1   7
BRANCH   4  18
ATOM     18  C   UNL     1      48.434   6.898  13.813  0.00  0.00    +0.000 C 
BRANCH  18  19
ATOM     19  N   UNL     1      48.209   6.768  15.241  0.00  0.00    +0.000 N 
ATOM     20  C   UNL     1      48.985   7.441  16.157  0.00  0.00    +0.000 C 
ATOM     21  O   UNL     1      49.843   8.252  15.820  0.00  0.00    +0.000 OA
ATOM     22  H   UNL     1      47.732   5.935  15.567  0.00  0.00    +0.000 HD
BRANCH  20  23
ATOM     23  C   UNL     1      48.680   7.186  17.571  0.00  0.00    +0.000 A 
ATOM     24  C   UNL     1      48.254   8.229  18.386  0.00  0.00    +0.000 A 
ATOM     25  S   UNL     1      47.893   7.746  19.982  0.00  0.00    +0.000 S 
ATOM     26  C   UNL     1      48.338   6.138  19.657  0.00  0.00    +0.000 A 
ATOM     27  N   UNL     1      48.282   5.181  20.626  0.00  0.00    +0.000 NA
ATOM     28  C   UNL     1      48.671   4.010  20.244  0.00  0.00    +0.000 A 
ATOM     29  N   UNL     1      49.109   3.705  18.981  0.00  0.00    +0.000 N 
ATOM     30  C   UNL     1      49.183   4.637  17.977  0.00  0.00    +0.000 A 
ATOM     31  O   UNL     1      49.578   4.335  16.862  0.00  0.00    +0.000 OA
ATOM     32  C   UNL     1      48.747   5.970  18.346  0.00  0.00    +0.000 A 
ATOM     33  H   UNL     1      49.402   2.770  18.744  0.00  0.00    +0.000 HD
ENDBRANCH  20  23
ENDBRANCH  18  19
ENDBRANCH   4  18
TORSDOF 6
ENDMDL
MODEL 4
REMARK VINA RESULT:    -7.399      1.766      2.032
REMARK INTER + INTRA:         -11.239
REMARK INTER:                 -10.340
REMARK INTRA:                  -0.899
REMARK UNBOUND:                -1.244
REMARK  Name = 
REMARK  6 active torsions:
REMARK  status: ('A' for Active; 'I' for Inactive)
REMARK    1  A    between atoms: C_2  and  C_25
REMARK    2  A    between atoms: N_3  and  C_4
REMARK    3  A    between atoms: C_4  and  C_5
REMARK    4  A    between atoms: C_8  and  C_9
REMARK    5  A    between atoms: C_9  and  N_10
REMARK    6  A    between atoms: C_11  and  C_13
REMARK                            x       y       z     vdW  Elec       q    Type
REMARK                         _______ _______ _______ _____ _____    ______ ____
ROOT
ATOM      1  C   UNL     1      44.312   4.208  12.136  0.00  0.00    +0.000 C 
ATOM      2  C   UNL     1      44.160   5.599  11.514  0.00  0.00    +0.000 C 
ATOM      3  C   UNL     1      44.867   6.667  12.334  0.00  0.00    +0.000 C 
ATOM      4  C   UNL     1      46.358   6.363  12.541  0.00  0.00    +0.000 C 
ATOM      5  C   UNL     1      46.519   4.967  13.162  0.00  0.00    +0.000 C 
ATOM      6  C   UNL     1      45.799   3.886  12.351  0.00  0.00    +0.000 C 
ENDROOT
BRANCH   1   7
ATOM      7  C   UNL     1      43.656   3.141  11.246  0.00  0.00    +0.000 C 
BRANCH   7  10
ATOM      8  O   UNL     1      44.141   4.092   8.620  0.00  0.00    +0.000 OA
ATOM      9  C   UNL     1      44.772   3.119   9.031  0.00  0.00    +0.000 C 
ATOM     10  N   UNL     1      44.585   2.584  10.283  0.00  0.00    +0.000 N 
ATOM     11  H   UNL     1      45.235   1.882  10.604  0.00  0.00    +0.000 HD
BRANCH   9  12
ATOM     12  C   UNL     1      45.786   2.462   8.235  0.00  0.00    +0.000 A 
ATOM     13  C   UNL     1      46.701   2.948   7.314  0.00  0.00    +0.000 A 
ATOM     14  C   UNL     1      47.445   1.854   6.809  0.00  0.00    +0.000 A 
ATOM     15  C   UNL     1      46.988   0.724   7.443  0.00  0.00    +0.000 A 
ATOM     16  N   UNL     1      46.005   1.102   8.318  0.00  0.00    +0.000 N 
ATOM     17  H   UNL     1      45.488   0.488   8.937  0.00  0.00    +0.000 HD
ENDBRANCH   9  12
ENDBRANCH   7  10
ENDBRANCH   1   7
BRANCH   4  18
ATOM     18  C   UNL     1      47.039   7.428  13.421  0.00  0.00    +0.000 C 
BRANCH  18  19
ATOM     19  N   UNL     1      48.163   6.900  14.172  0.00  0.00    +0.000 N 
ATOM     20  C   UNL     1      48.758   7.622  15.182  0.00  0.00    +0.000 C 
ATOM     21  O   UNL     1      48.319   8.705  15.560  0.00  0.00    +0.000 OA
ATOM     22  H   UNL     1      48.721   6.177  13.734  0.00  0.00    +0.000 HD
BRANCH  20  23
ATOM     23  C   UNL     1      49.914   6.990  15.831  0.00  0.00    +0.000 A 
ATOM     24  C   UNL     1      51.170   7.575  15.728  0.00  0.00    +0.000 A 
ATOM     25  S   UNL     1      52.385   6.740  16.586  0.00  0.00    +0.000 S 
ATOM     26  C   UNL     1      51.288   5.541  17.087  0.00  0.00    +0.000 A 
ATOM     27  N   UNL     1      51.693   4.491  17.855  0.00  0.00    +0.000 NA
ATOM     28  C   UNL     1      50.759   3.645  18.141  0.00  0.00    +0.000 A 
ATOM     29  N   UNL     1      49.455   3.754  17.730  0.00  0.00    +0.000 N 
ATOM     30  C   UNL     1      49.006   4.793  16.956  0.00  0.00    +0.000 A 
ATOM     31  O   UNL     1      47.838   4.861  16.606  0.00  0.00    +0.000 OA
ATOM     32  C   UNL     1      50.011   5.780  16.613  0.00  0.00    +0.000 A 
ATOM     33  H   UNL     1      48.771   3.059  17.985  0.00  0.00    +0.000 HD
ENDBRANCH  20  23
ENDBRANCH  18  19
ENDBRANCH   4  18
TORSDOF 6
ENDMDL
MODEL 5
REMARK VINA RESULT:    -7.142      2.493      3.396
REMARK INTER + INTRA:         -10.891
REMARK INTER:                 -10.248
REMARK INTRA:                  -0.643
REMARK UNBOUND:                -1.244
REMARK  Name = 
REMARK  6 active torsions:
REMARK  status: ('A' for Active; 'I' for Inactive)
REMARK    1  A    between atoms: C_2  and  C_25
REMARK    2  A    between atoms: N_3  and  C_4
REMARK    3  A    between atoms: C_4  and  C_5
REMARK    4  A    between atoms: C_8  and  C_9
REMARK    5  A    between atoms: C_9  and  N_10
REMARK    6  A    between atoms: C_11  and  C_13
REMARK                            x       y       z     vdW  Elec       q    Type
REMARK                         _______ _______ _______ _____ _____    ______ ____
ROOT
ATOM      1  C   UNL     1      44.157   4.363  11.399  0.00  0.00    +0.000 C 
ATOM      2  C   UNL     1      44.786   5.693  11.825  0.00  0.00    +0.000 C 
ATOM      3  C   UNL     1      45.368   5.621  13.228  0.00  0.00    +0.000 C 
ATOM      4  C   UNL     1      46.404   4.499  13.381  0.00  0.00    +0.000 C 
ATOM      5  C   UNL     1      45.782   3.161  12.953  0.00  0.00    +0.000 C 
ATOM      6  C   UNL     1      45.180   3.226  11.547  0.00  0.00    +0.000 C 
ENDROOT
BRANCH   1   7
ATOM      7  C   UNL     1      43.648   4.441   9.952  0.00  0.00    +0.000 C 
BRANCH   7  10
ATOM      8  O   UNL     1      45.888   5.285   8.432  0.00  0.00    +0.000 OA
ATOM      9  C   UNL     1      45.523   4.113   8.361  0.00  0.00    +0.000 C 
ATOM     10  N   UNL     1      44.437   3.627   9.049  0.00  0.00    +0.000 N 
ATOM     11  H   UNL     1      44.284   2.629   9.055  0.00  0.00    +0.000 HD
BRANCH   9  12
ATOM     12  C   UNL     1      46.220   3.133   7.556  0.00  0.00    +0.000 A 
ATOM     13  C   UNL     1      46.757   3.195   6.279  0.00  0.00    +0.000 A 
ATOM     14  C   UNL     1      47.309   1.928   5.969  0.00  0.00    +0.000 A 
ATOM     15  C   UNL     1      47.118   1.122   7.066  0.00  0.00    +0.000 A 
ATOM     16  N   UNL     1      46.483   1.863   8.026  0.00  0.00    +0.000 N 
ATOM     17  H   UNL     1      46.220   1.542   8.951  0.00  0.00    +0.000 HD
ENDBRANCH   9  12
ENDBRANCH   7  10
ENDBRANCH   1   7
BRANCH   4  18
ATOM     18  C   UNL     1      46.937   4.410  14.824  0.00  0.00    +0.000 C 
BRANCH  18  19
ATOM     19  N   UNL     1      47.596   5.629  15.255  0.00  0.00    +0.000 N 
ATOM     20  C   UNL     1      48.562   5.618  16.235  0.00  0.00    +0.000 C 
ATOM     21  O   UNL     1      48.981   4.576  16.731  0.00  0.00    +0.000 OA
ATOM     22  H   UNL     1      47.111   6.505  15.098  0.00  0.00    +0.000 HD
BRANCH  20  23
ATOM     23  C   UNL     1      49.117   6.926  16.608  0.00  0.00    +0.000 A 
ATOM     24  C   UNL     1      50.075   7.526  15.801  0.00  0.00    +0.000 A 
ATOM     25  S   UNL     1      50.569   9.063  16.353  0.00  0.00    +0.000 S 
ATOM     26  C   UNL     1      49.559   8.961  17.716  0.00  0.00    +0.000 A 
ATOM     27  N   UNL     1      49.513   9.965  18.637  0.00  0.00    +0.000 NA
ATOM     28  C   UNL     1      48.719   9.743  19.632  0.00  0.00    +0.000 A 
ATOM     29  N   UNL     1      47.964   8.609  19.790  0.00  0.00    +0.000 N 
ATOM     30  C   UNL     1      47.980   7.576  18.889  0.00  0.00    +0.000 A 
ATOM     31  O   UNL     1      47.296   6.579  19.059  0.00  0.00    +0.000 OA
ATOM     32  C   UNL     1      48.847   7.775  17.744  0.00  0.00    +0.000 A 
ATOM     33  H   UNL     1      47.363   8.494  20.592  0.00  0.00    +0.000 HD
ENDBRANCH  20  23
ENDBRANCH  18  19
ENDBRANCH   4  18
TORSDOF 6
ENDMDL
MODEL 6
REMARK VINA RESULT:    -6.802      1.752      2.262
REMARK INTER + INTRA:         -10.432
REMARK INTER:                  -9.530
REMARK INTRA:                  -0.902
REMARK UNBOUND:                -1.244
REMARK  Name = 
REMARK  6 active torsions:
REMARK  status: ('A' for Active; 'I' for Inactive)
REMARK    1  A    between atoms: C_2  and  C_25
REMARK    2  A    between atoms: N_3  and  C_4
REMARK    3  A    between atoms: C_4  and  C_5
REMARK    4  A    between atoms: C_8  and  C_9
REMARK    5  A    between atoms: C_9  and  N_10
REMARK    6  A    between atoms: C_11  and  C_13
REMARK                            x       y       z     vdW  Elec       q    Type
REMARK                         _______ _______ _______ _____ _____    ______ ____
ROOT
ATOM      1  C   UNL     1      44.983   5.468  11.048  0.00  0.00    +0.000 C 
ATOM      2  C   UNL     1      45.945   5.225  12.215  0.00  0.00    +0.000 C 
ATOM      3  C   UNL     1      46.690   6.490  12.608  0.00  0.00    +0.000 C 
ATOM      4  C   UNL     1      45.745   7.647  12.963  0.00  0.00    +0.000 C 
ATOM      5  C   UNL     1      44.774   7.896  11.799  0.00  0.00    +0.000 C 
ATOM      6  C   UNL     1      44.029   6.624  11.385  0.00  0.00    +0.000 C 
ENDROOT
BRANCH   1   7
ATOM      7  C   UNL     1      44.189   4.194  10.724  0.00  0.00    +0.000 C 
BRANCH   7  10
ATOM      8  O   UNL     1      44.685   4.285   7.935  0.00  0.00    +0.000 OA
ATOM      9  C   UNL     1      45.173   3.373   8.601  0.00  0.00    +0.000 C 
ATOM     10  N   UNL     1      44.967   3.245   9.953  0.00  0.00    +0.000 N 
ATOM     11  H   UNL     1      45.512   2.560  10.456  0.00  0.00    +0.000 HD
BRANCH   9  12
ATOM     12  C   UNL     1      46.028   2.361   8.018  0.00  0.00    +0.000 A 
ATOM     13  C   UNL     1      47.072   2.440   7.109  0.00  0.00    +0.000 A 
ATOM     14  C   UNL     1      47.546   1.128   6.863  0.00  0.00    +0.000 A 
ATOM     15  C   UNL     1      46.799   0.275   7.639  0.00  0.00    +0.000 A 
ATOM     16  N   UNL     1      45.903   1.027   8.349  0.00  0.00    +0.000 N 
ATOM     17  H   UNL     1      45.225   0.677   9.017  0.00  0.00    +0.000 HD
ENDBRANCH   9  12
ENDBRANCH   7  10
ENDBRANCH   1   7
BRANCH   4  18
ATOM     18  C   UNL     1      46.522   8.933  13.303  0.00  0.00    +0.000 C 
BRANCH  18  19
ATOM     19  N   UNL     1      47.259   8.830  14.549  0.00  0.00    +0.000 N 
ATOM     20  C   UNL     1      48.619   9.038  14.601  0.00  0.00    +0.000 C 
ATOM     21  O   UNL     1      49.264   9.407  13.623  0.00  0.00    +0.000 OA
ATOM     22  H   UNL     1      46.851   8.274  15.291  0.00  0.00    +0.000 HD
BRANCH  20  23
ATOM     23  C   UNL     1      49.249   8.860  15.916  0.00  0.00    +0.000 A 
ATOM     24  C   UNL     1      49.784   9.957  16.580  0.00  0.00    +0.000 A 
ATOM     25  S   UNL     1      50.426   9.579  18.115  0.00  0.00    +0.000 S 
ATOM     26  C   UNL     1      50.057   7.930  17.927  0.00  0.00    +0.000 A 
ATOM     27  N   UNL     1      50.367   7.023  18.896  0.00  0.00    +0.000 NA
ATOM     28  C   UNL     1      50.050   5.804  18.610  0.00  0.00    +0.000 A 
ATOM     29  N   UNL     1      49.449   5.408  17.443  0.00  0.00    +0.000 N 
ATOM     30  C   UNL     1      49.121   6.286  16.442  0.00  0.00    +0.000 A 
ATOM     31  O   UNL     1      48.586   5.902  15.414  0.00  0.00    +0.000 OA
ATOM     32  C   UNL     1      49.444   7.673  16.714  0.00  0.00    +0.000 A 
ATOM     33  H   UNL     1      49.227   4.438  17.276  0.00  0.00    +0.000 HD
ENDBRANCH  20  23
ENDBRANCH  18  19
ENDBRANCH   4  18
TORSDOF 6
ENDMDL
MODEL 7
REMARK VINA RESULT:    -6.524      3.162      5.010
REMARK INTER + INTRA:         -10.057
REMARK INTER:                  -9.217
REMARK INTRA:                  -0.840
REMARK UNBOUND:                -1.244
REMARK  Name = 
REMARK  6 active torsions:
REMARK  status: ('A' for Active; 'I' for Inactive)
REMARK    1  A    between atoms: C_2  and  C_25
REMARK    2  A    between atoms: N_3  and  C_4
REMARK    3  A    between atoms: C_4  and  C_5
REMARK    4  A    between atoms: C_8  and  C_9
REMARK    5  A    between atoms: C_9  and  N_10
REMARK    6  A    between atoms: C_11  and  C_13
REMARK                            x       y       z     vdW  Elec       q    Type
REMARK                         _______ _______ _______ _____ _____    ______ ____
ROOT
ATOM      1  C   UNL     1      44.486   4.111  12.081  0.00  0.00    +0.000 C 
ATOM      2  C   UNL     1      44.893   5.519  11.639  0.00  0.00    +0.000 C 
ATOM      3  C   UNL     1      45.695   6.240  12.712  0.00  0.00    +0.000 C 
ATOM      4  C   UNL     1      46.947   5.460  13.138  0.00  0.00    +0.000 C 
ATOM      5  C   UNL     1      46.547   4.044  13.579  0.00  0.00    +0.000 C 
ATOM      6  C   UNL     1      45.727   3.315  12.513  0.00  0.00    +0.000 C 
ENDROOT
BRANCH   1   7
ATOM      7  C   UNL     1      43.746   3.380  10.950  0.00  0.00    +0.000 C 
BRANCH   7  10
ATOM      8  O   UNL     1      44.484   4.260   8.359  0.00  0.00    +0.000 OA
ATOM      9  C   UNL     1      44.975   3.223   8.802  0.00  0.00    +0.000 C 
ATOM     10  N   UNL     1      44.657   2.716  10.039  0.00  0.00    +0.000 N 
ATOM     11  H   UNL     1      45.203   1.945  10.393  0.00  0.00    +0.000 HD
BRANCH   9  12
ATOM     12  C   UNL     1      45.950   2.450   8.061  0.00  0.00    +0.000 A 
ATOM     13  C   UNL     1      46.242   1.095   8.047  0.00  0.00    +0.000 A 
ATOM     14  C   UNL     1      47.316   0.883   7.149  0.00  0.00    +0.000 A 
ATOM     15  C   UNL     1      47.647   2.105   6.616  0.00  0.00    +0.000 A 
ATOM     16  N   UNL     1      46.804   3.040   7.153  0.00  0.00    +0.000 N 
ATOM     17  H   UNL     1      46.798   4.031   6.940  0.00  0.00    +0.000 HD
ENDBRANCH   9  12
ENDBRANCH   7  10
ENDBRANCH   1   7
BRANCH   4  18
ATOM     18  C   UNL     1      47.711   6.182  14.264  0.00  0.00    +0.000 C 
BRANCH  18  19
ATOM     19  N   UNL     1      48.869   6.910  13.779  0.00  0.00    +0.000 N 
ATOM     20  C   UNL     1      48.923   8.286  13.817  0.00  0.00    +0.000 C 
ATOM     21  O   UNL     1      48.043   8.962  14.342  0.00  0.00    +0.000 OA
ATOM     22  H   UNL     1      49.467   6.446  13.106  0.00  0.00    +0.000 HD
BRANCH  20  23
ATOM     23  C   UNL     1      50.133   8.899  13.254  0.00  0.00    +0.000 A 
ATOM     24  C   UNL     1      51.375   8.610  13.805  0.00  0.00    +0.000 A 
ATOM     25  S   UNL     1      52.674   9.364  12.996  0.00  0.00    +0.000 S 
ATOM     26  C   UNL     1      51.621  10.143  11.911  0.00  0.00    +0.000 A 
ATOM     27  N   UNL     1      52.096  10.977  10.944  0.00  0.00    +0.000 NA
ATOM     28  C   UNL     1      51.182  11.516  10.207  0.00  0.00    +0.000 A 
ATOM     29  N   UNL     1      49.836  11.297  10.347  0.00  0.00    +0.000 N 
ATOM     30  C   UNL     1      49.316  10.467  11.307  0.00  0.00    +0.000 A 
ATOM     31  O   UNL     1      48.111  10.292  11.406  0.00  0.00    +0.000 OA
ATOM     32  C   UNL     1      50.298   9.823  12.158  0.00  0.00    +0.000 A 
ATOM     33  H   UNL     1      49.170  11.750   9.740  0.00  0.00    +0.000 HD
ENDBRANCH  20  23
ENDBRANCH  18  19
ENDBRANCH   4  18
TORSDOF 6
ENDMDL
MODEL 8
REMARK VINA RESULT:    -6.354      1.969      2.353
REMARK INTER + INTRA:          -9.828
REMARK INTER:                  -8.945
REMARK INTRA:                  -0.883
REMARK UNBOUND:                -1.244
REMARK  Name = 
REMARK  6 active torsions:
REMARK  status: ('A' for Active; 'I' for Inactive)
REMARK    1  A    between atoms: C_2  and  C_25
REMARK    2  A    between atoms: N_3  and  C_4
REMARK    3  A    between atoms: C_4  and  C_5
REMARK    4  A    between atoms: C_8  and  C_9
REMARK    5  A    between atoms: C_9  and  N_10
REMARK    6  A    between atoms: C_11  and  C_13
REMARK                            x       y       z     vdW  Elec       q    Type
REMARK                         _______ _______ _______ _____ _____    ______ ____
ROOT
ATOM      1  C   UNL     1      46.435   6.580  11.464  0.00  0.00    +0.000 C 
ATOM      2  C   UNL     1      46.794   5.593  12.579  0.00  0.00    +0.000 C 
ATOM      3  C   UNL     1      47.817   6.175  13.542  0.00  0.00    +0.000 C 
ATOM      4  C   UNL     1      47.355   7.500  14.166  0.00  0.00    +0.000 C 
ATOM      5  C   UNL     1      46.990   8.494  13.053  0.00  0.00    +0.000 C 
ATOM      6  C   UNL     1      45.971   7.914  12.070  0.00  0.00    +0.000 C 
ENDROOT
BRANCH   1   7
ATOM      7  C   UNL     1      45.344   5.996  10.553  0.00  0.00    +0.000 C 
BRANCH   7  10
ATOM      8  O   UNL     1      44.088   3.661   9.552  0.00  0.00    +0.000 OA
ATOM      9  C   UNL     1      45.199   3.972   9.126  0.00  0.00    +0.000 C 
ATOM     10  N   UNL     1      45.885   5.077   9.572  0.00  0.00    +0.000 N 
ATOM     11  H   UNL     1      46.721   5.350   9.078  0.00  0.00    +0.000 HD
BRANCH   9  12
ATOM     12  C   UNL     1      45.877   3.210   8.100  0.00  0.00    +0.000 A 
ATOM     13  C   UNL     1      46.317   3.551   6.831  0.00  0.00    +0.000 A 
ATOM     14  C   UNL     1      46.897   2.401   6.239  0.00  0.00    +0.000 A 
ATOM     15  C   UNL     1      46.819   1.387   7.163  0.00  0.00    +0.000 A 
ATOM     16  N   UNL     1      46.225   1.888   8.289  0.00  0.00    +0.000 N 
ATOM     17  H   UNL     1      46.043   1.378   9.146  0.00  0.00    +0.000 HD
ENDBRANCH   9  12
ENDBRANCH   7  10
ENDBRANCH   1   7
BRANCH   4  18
ATOM     18  C   UNL     1      48.431   8.098  15.093  0.00  0.00    +0.000 C 
BRANCH  18  19
ATOM     19  N   UNL     1      49.351   7.098  15.602  0.00  0.00    +0.000 N 
ATOM     20  C   UNL     1      49.501   6.877  16.953  0.00  0.00    +0.000 C 
ATOM     21  O   UNL     1      48.806   7.444  17.791  0.00  0.00    +0.000 OA
ATOM     22  H   UNL     1      50.120   6.821  15.004  0.00  0.00    +0.000 HD
BRANCH  20  23
ATOM     23  C   UNL     1      50.498   5.868  17.335  0.00  0.00    +0.000 A 
ATOM     24  C   UNL     1      51.731   6.269  17.835  0.00  0.00    +0.000 A 
ATOM     25  S   UNL     1      52.744   4.970  18.278  0.00  0.00    +0.000 S 
ATOM     26  C   UNL     1      51.593   3.825  17.772  0.00  0.00    +0.000 A 
ATOM     27  N   UNL     1      51.841   2.488  17.861  0.00  0.00    +0.000 NA
ATOM     28  C   UNL     1      50.889   1.736  17.419  0.00  0.00    +0.000 A 
ATOM     29  N   UNL     1      49.707   2.198  16.898  0.00  0.00    +0.000 N 
ATOM     30  C   UNL     1      49.417   3.534  16.789  0.00  0.00    +0.000 A 
ATOM     31  O   UNL     1      48.355   3.913  16.321  0.00  0.00    +0.000 OA
ATOM     32  C   UNL     1      50.448   4.426  17.281  0.00  0.00    +0.000 A 
ATOM     33  H   UNL     1      49.001   1.559  16.567  0.00  0.00    +0.000 HD
ENDBRANCH  20  23
ENDBRANCH  18  19
ENDBRANCH   4  18
TORSDOF 6
ENDMDL
MODEL 9
REMARK VINA RESULT:    -5.919      3.270      4.390
REMARK INTER + INTRA:          -9.239
REMARK INTER:                  -8.590
REMARK INTRA:                  -0.649
REMARK UNBOUND:                -1.244
REMARK  Name = 
REMARK  6 active torsions:
REMARK  status: ('A' for Active; 'I' for Inactive)
REMARK    1  A    between atoms: C_2  and  C_25
REMARK    2  A    between atoms: N_3  and  C_4
REMARK    3  A    between atoms: C_4  and  C_5
REMARK    4  A    between atoms: C_8  and  C_9
REMARK    5  A    between atoms: C_9  and  N_10
REMARK    6  A    between atoms: C_11  and  C_13
REMARK                            x       y       z     vdW  Elec       q    Type
REMARK                         _______ _______ _______ _____ _____    ______ ____
ROOT
ATOM      1  C   UNL     1      46.856   7.298  13.122  0.00  0.00    +0.000 C 
ATOM      2  C   UNL     1      47.735   8.425  13.671  0.00  0.00    +0.000 C 
ATOM      3  C   UNL     1      48.047   8.232  15.147  0.00  0.00    +0.000 C 
ATOM      4  C   UNL     1      48.713   6.880  15.439  0.00  0.00    +0.000 C 
ATOM      5  C   UNL     1      47.838   5.743  14.888  0.00  0.00    +0.000 C 
ATOM      6  C   UNL     1      47.507   5.935  13.406  0.00  0.00    +0.000 C 
ENDROOT
BRANCH   1   7
ATOM      7  C   UNL     1      46.623   7.477  11.614  0.00  0.00    +0.000 C 
BRANCH   7  10
ATOM      8  O   UNL     1      44.069   6.283  11.320  0.00  0.00    +0.000 OA
ATOM      9  C   UNL     1      45.052   5.721  10.840  0.00  0.00    +0.000 C 
ATOM     10  N   UNL     1      46.326   6.222  10.953  0.00  0.00    +0.000 N 
ATOM     11  H   UNL     1      47.060   5.786  10.414  0.00  0.00    +0.000 HD
BRANCH   9  12
ATOM     12  C   UNL     1      44.949   4.486  10.092  0.00  0.00    +0.000 A 
ATOM     13  C   UNL     1      45.409   4.121   8.836  0.00  0.00    +0.000 A 
ATOM     14  C   UNL     1      45.003   2.788   8.585  0.00  0.00    +0.000 A 
ATOM     15  C   UNL     1      44.322   2.355   9.698  0.00  0.00    +0.000 A 
ATOM     16  N   UNL     1      44.315   3.375  10.610  0.00  0.00    +0.000 N 
ATOM     17  H   UNL     1      43.897   3.348  11.533  0.00  0.00    +0.000 HD
ENDBRANCH   9  12
ENDBRANCH   7  10
ENDBRANCH   1   7
BRANCH   4  18
ATOM     18  C   UNL     1      48.967   6.684  16.946  0.00  0.00    +0.000 C 
BRANCH  18  19
ATOM     19  N   UNL     1      50.174   5.926  17.218  0.00  0.00    +0.000 N 
ATOM     20  C   UNL     1      50.161   4.819  18.036  0.00  0.00    +0.000 C 
ATOM     21  O   UNL     1      49.122   4.362  18.505  0.00  0.00    +0.000 OA
ATOM     22  H   UNL     1      51.062   6.400  17.100  0.00  0.00    +0.000 HD
BRANCH  20  23
ATOM     23  C   UNL     1      51.459   4.170  18.263  0.00  0.00    +0.000 A 
ATOM     24  C   UNL     1      52.479   4.867  18.897  0.00  0.00    +0.000 A 
ATOM     25  S   UNL     1      53.897   3.945  19.127  0.00  0.00    +0.000 S 
ATOM     26  C   UNL     1      53.217   2.598  18.344  0.00  0.00    +0.000 A 
ATOM     27  N   UNL     1      53.925   1.446  18.180  0.00  0.00    +0.000 NA
ATOM     28  C   UNL     1      53.293   0.514  17.548  0.00  0.00    +0.000 A 
ATOM     29  N   UNL     1      52.013   0.627  17.067  0.00  0.00    +0.000 N 
ATOM     30  C   UNL     1      51.265   1.767  17.210  0.00  0.00    +0.000 A 
ATOM     31  O   UNL     1      50.128   1.837  16.769  0.00  0.00    +0.000 OA
ATOM     32  C   UNL     1      51.923   2.845  17.922  0.00  0.00    +0.000 A 
ATOM     33  H   UNL     1      51.573  -0.138  16.579  0.00  0.00    +0.000 HD
ENDBRANCH  20  23
ENDBRANCH  18  19
ENDBRANCH   4  18
TORSDOF 6
ENDMDL
