MODEL 1
REMARK VINA RESULT:    -8.534      0.000      0.000
REMARK INTER + INTRA:         -12.627
REMARK INTER:                 -11.528
REMARK INTRA:                  -1.099
REMARK UNBOUND:                -1.099
REMARK  Name = 
REMARK  6 active torsions:
REMARK  status: ('A' for Active; 'I' for Inactive)
REMARK    1  A    between atoms: C_2  and  C_20
REMARK    2  A    between atoms: N_3  and  C_4
REMARK    3  A    between atoms: C_4  and  C_5
REMARK    4  A    between atoms: C_8  and  C_9
REMARK    5  A    between atoms: C_9  and  C_10
REMARK    6  A    between atoms: C_10  and  C_11
REMARK                            x       y       z     vdW  Elec       q    Type
REMARK                         _______ _______ _______ _____ _____    ______ ____
ROOT
ATOM      1  C   UNL     1      47.053   7.889  13.323  0.00  0.00    +0.000 C 
ENDROOT
BRANCH   1   2
ATOM      2  C   UNL     1      46.187   7.010  12.459  0.00  0.00    +0.000 A 
ATOM      3  C   UNL     1      44.913   6.631  12.895  0.00  0.00    +0.000 A 
ATOM      4  C   UNL     1      44.103   5.809  12.105  0.00  0.00    +0.000 A 
ATOM      5  C   UNL     1      44.550   5.345  10.861  0.00  0.00    +0.000 A 
ATOM      6  C   UNL     1      45.836   5.704  10.436  0.00  0.00    +0.000 A 
ATOM      7  C   UNL     1      46.650   6.521  11.230  0.00  0.00    +0.000 A 
BRANCH   5   8
ATOM      8  C   UNL     1      43.697   4.425  10.015  0.00  0.00    +0.000 C 
BRANCH   8   9
ATOM      9  C   UNL     1      44.312   4.100   8.652  0.00  0.00    +0.000 C 
BRANCH   9  10
ATOM     10  C   UNL     1      45.009   2.749   8.652  0.00  0.00    +0.000 C 
ATOM     11  O   UNL     1      44.629   1.816   9.359  0.00  0.00    +0.000 OA
ATOM     12  N   UNL     1      46.081   2.618   7.794  0.00  0.00    +0.000 N 
ATOM     13  C   UNL     1      46.680   3.639   6.955  0.00  0.00    +0.000 C 
ATOM     14  C   UNL     1      47.245   2.841   5.794  0.00  0.00    +0.000 C 
ATOM     15  C   UNL     1      47.713   1.545   6.449  0.00  0.00    +0.000 C 
ATOM     16  C   UNL     1      46.771   1.349   7.635  0.00  0.00    +0.000 C 
ENDBRANCH   9  10
ENDBRANCH   8   9
ENDBRANCH   5   8
ENDBRANCH   1   2
BRANCH   1  19
ATOM     17  O   UNL     1      49.668   6.964  13.867  0.00  0.00    +0.000 OA
ATOM     18  C   UNL     1      48.795   6.834  14.721  0.00  0.00    +0.000 C 
ATOM     19  N   UNL     1      47.490   7.200  14.509  0.00  0.00    +0.000 N 
ATOM     20  H   UNL     1      46.864   7.256  15.304  0.00  0.00    +0.000 HD
BRANCH  18  21
ATOM     21  C   UNL     1      49.078   6.211  16.020  0.00  0.00    +0.000 A 
ATOM     22  C   UNL     1      50.040   6.755  16.859  0.00  0.00    +0.000 A 
ATOM     23  S   UNL     1      50.256   5.876  18.306  0.00  0.00    +0.000 S 
ATOM     24  C   UNL     1      49.038   4.767  17.881  0.00  0.00    +0.000 A 
ATOM     25  N   UNL     1      48.697   3.744  18.710  0.00  0.00    +0.000 NA
ATOM     26  C   UNL     1      47.727   3.006  18.281  0.00  0.00    +0.000 A 
ATOM     27  N   UNL     1      47.072   3.194  17.092  0.00  0.00    +0.000 N 
ATOM     28  C   UNL     1      47.436   4.161  16.190  0.00  0.00    +0.000 A 
ATOM     29  O   UNL     1      46.923   4.207  15.074  0.00  0.00    +0.000 OA
ATOM     30  C   UNL     1      48.489   5.049  16.644  0.00  0.00    +0.000 A 
ATOM     31  H   UNL     1      46.341   2.564  16.796  0.00  0.00    +0.000 HD
ENDBRANCH  18  21
ENDBRANCH   1  19
TORSDOF 6
ENDMDL
MODEL 2
REMARK VINA RESULT:    -7.655      1.850      2.449
REMARK INTER + INTRA:         -11.439
REMARK INTER:                 -10.231
REMARK INTRA:                  -1.209
REMARK UNBOUND:                -1.099
REMARK  Name = 
REMARK  6 active torsions:
REMARK  status: ('A' for Active; 'I' for Inactive)
REMARK    1  A    between atoms: C_2  and  C_20
REMARK    2  A    between atoms: N_3  and  C_4
REMARK    3  A    between atoms: C_4  and  C_5
REMARK    4  A    between atoms: C_8  and  C_9
REMARK    5  A    between atoms: C_9  and  C_10
REMARK    6  A    between atoms: C_10  and  C_11
REMARK                            x       y       z     vdW  Elec       q    Type
REMARK                         _______ _______ _______ _____ _____    ______ ____
ROOT
ATOM      1  C   UNL     1      48.853   6.985  13.575  0.00  0.00    +0.000 C 
ENDROOT
BRANCH   1   2
ATOM      2  C   UNL     1      47.439   6.505  13.373  0.00  0.00    +0.000 A 
ATOM      3  C   UNL     1      46.456   7.390  12.917  0.00  0.00    +0.000 A 
ATOM      4  C   UNL     1      45.138   6.959  12.733  0.00  0.00    +0.000 A 
ATOM      5  C   UNL     1      44.773   5.634  13.002  0.00  0.00    +0.000 A 
ATOM      6  C   UNL     1      45.753   4.755  13.482  0.00  0.00    +0.000 A 
ATOM      7  C   UNL     1      47.071   5.187  13.674  0.00  0.00    +0.000 A 
BRANCH   5   8
ATOM      8  C   UNL     1      43.343   5.167  12.842  0.00  0.00    +0.000 C 
BRANCH   8   9
ATOM      9  C   UNL     1      42.966   4.830  11.397  0.00  0.00    +0.000 C 
BRANCH   9  10
ATOM     10  C   UNL     1      43.419   3.432  11.004  0.00  0.00    +0.000 C 
ATOM     11  O   UNL     1      42.947   2.422  11.525  0.00  0.00    +0.000 OA
ATOM     12  N   UNL     1      44.374   3.359  10.012  0.00  0.00    +0.000 N 
ATOM     13  C   UNL     1      45.063   4.455   9.356  0.00  0.00    +0.000 C 
ATOM     14  C   UNL     1      45.379   3.889   7.984  0.00  0.00    +0.000 C 
ATOM     15  C   UNL     1      45.673   2.419   8.265  0.00  0.00    +0.000 C 
ATOM     16  C   UNL     1      44.818   2.080   9.485  0.00  0.00    +0.000 C 
ENDBRANCH   9  10
ENDBRANCH   8   9
ENDBRANCH   5   8
ENDBRANCH   1   2
BRANCH   1  19
ATOM     17  O   UNL     1      48.241   8.747  15.699  0.00  0.00    +0.000 OA
ATOM     18  C   UNL     1      48.877   7.723  15.932  0.00  0.00    +0.000 C 
ATOM     19  N   UNL     1      49.267   6.851  14.947  0.00  0.00    +0.000 N 
ATOM     20  H   UNL     1      49.610   5.935  15.214  0.00  0.00    +0.000 HD
BRANCH  18  21
ATOM     21  C   UNL     1      49.327   7.391  17.289  0.00  0.00    +0.000 A 
ATOM     22  C   UNL     1      50.199   8.236  17.961  0.00  0.00    +0.000 A 
ATOM     23  S   UNL     1      50.639   7.669  19.509  0.00  0.00    +0.000 S 
ATOM     24  C   UNL     1      49.642   6.299  19.354  0.00  0.00    +0.000 A 
ATOM     25  N   UNL     1      49.539   5.386  20.356  0.00  0.00    +0.000 NA
ATOM     26  C   UNL     1      48.713   4.421  20.121  0.00  0.00    +0.000 A 
ATOM     27  N   UNL     1      47.987   4.281  18.967  0.00  0.00    +0.000 N 
ATOM     28  C   UNL     1      48.120   5.132  17.899  0.00  0.00    +0.000 A 
ATOM     29  O   UNL     1      47.564   4.894  16.830  0.00  0.00    +0.000 OA
ATOM     30  C   UNL     1      48.999   6.263  18.130  0.00  0.00    +0.000 A 
ATOM     31  H   UNL     1      47.380   3.487  18.827  0.00  0.00    +0.000 HD
ENDBRANCH  18  21
ENDBRANCH   1  19
TORSDOF 6
ENDMDL
MODEL 3
REMARK VINA RESULT:    -7.647      2.533      3.129
REMARK INTER + INTRA:         -11.428
REMARK INTER:                 -10.485
REMARK INTRA:                  -0.943
REMARK UNBOUND:                -1.099
REMARK  Name = 
REMARK  6 active torsions:
REMARK  status: ('A' for Active; 'I' for Inactive)
REMARK    1  A    between atoms: C_2  and  C_20
REMARK    2  A    between atoms: N_3  and  C_4
REMARK    3  A    between atoms: C_4  and  C_5
REMARK    4  A    between atoms: C_8  and  C_9
REMARK    5  A    between atoms: C_9  and  C_10
REMARK    6  A    between atoms: C_10  and  C_11
REMARK                            x       y       z     vdW  Elec       q    Type
REMARK                         _______ _______ _______ _____ _____    ______ ____
ROOT
ATOM      1  C   UNL     1      48.375   6.887  14.069  0.00  0.00    +0.000 C 
ENDROOT
BRANCH   1   2
ATOM      2  C   UNL     1      47.322   6.150  13.285  0.00  0.00    +0.000 A 
ATOM      3  C   UNL     1      46.764   4.971  13.792  0.00  0.00    +0.000 A 
ATOM      4  C   UNL     1      45.791   4.273  13.070  0.00  0.00    +0.000 A 
ATOM      5  C   UNL     1      45.355   4.736  11.822  0.00  0.00    +0.000 A 
ATOM      6  C   UNL     1      45.932   5.903  11.303  0.00  0.00    +0.000 A 
ATOM      7  C   UNL     1      46.911   6.599  12.022  0.00  0.00    +0.000 A 
BRANCH   5   8
ATOM      8  C   UNL     1      44.330   3.969  11.015  0.00  0.00    +0.000 C 
BRANCH   8   9
ATOM      9  C   UNL     1      44.945   2.937  10.067  0.00  0.00    +0.000 C 
BRANCH   9  10
ATOM     10  C   UNL     1      45.206   3.519   8.687  0.00  0.00    +0.000 C 
ATOM     11  O   UNL     1      44.819   4.643   8.367  0.00  0.00    +0.000 OA
ATOM     12  N   UNL     1      45.924   2.724   7.818  0.00  0.00    +0.000 N 
ATOM     13  C   UNL     1      46.386   1.365   8.029  0.00  0.00    +0.000 C 
ATOM     14  C   UNL     1      47.631   1.289   7.165  0.00  0.00    +0.000 C 
ATOM     15  C   UNL     1      47.281   2.154   5.959  0.00  0.00    +0.000 C 
ATOM     16  C   UNL     1      46.316   3.205   6.505  0.00  0.00    +0.000 C 
ENDBRANCH   9  10
ENDBRANCH   8   9
ENDBRANCH   5   8
ENDBRANCH   1   2
BRANCH   1  19
ATOM     17  O   UNL     1      50.154   5.992  16.076  0.00  0.00    +0.000 OA
ATOM     18  C   UNL     1      49.057   6.439  16.401  0.00  0.00    +0.000 C 
ATOM     19  N   UNL     1      48.116   6.833  15.484  0.00  0.00    +0.000 N 
ATOM     20  H   UNL     1      47.319   7.373  15.804  0.00  0.00    +0.000 HD
BRANCH  18  21
ATOM     21  C   UNL     1      48.648   6.521  17.808  0.00  0.00    +0.000 A 
ATOM     22  C   UNL     1      48.759   5.409  18.632  0.00  0.00    +0.000 A 
ATOM     23  S   UNL     1      48.202   5.682  20.221  0.00  0.00    +0.000 S 
ATOM     24  C   UNL     1      47.838   7.308  19.876  0.00  0.00    +0.000 A 
ATOM     25  N   UNL     1      47.332   8.134  20.830  0.00  0.00    +0.000 NA
ATOM     26  C   UNL     1      47.145   9.352  20.442  0.00  0.00    +0.000 A 
ATOM     27  N   UNL     1      47.410   9.817  19.180  0.00  0.00    +0.000 N 
ATOM     28  C   UNL     1      47.843   9.001  18.166  0.00  0.00    +0.000 A 
ATOM     29  O   UNL     1      47.930   9.421  17.013  0.00  0.00    +0.000 OA
ATOM     30  C   UNL     1      48.116   7.633  18.561  0.00  0.00    +0.000 A 
ATOM     31  H   UNL     1      47.213  10.774  18.926  0.00  0.00    +0.000 HD
ENDBRANCH  18  21
ENDBRANCH   1  19
TORSDOF 6
ENDMDL
MODEL 4
REMARK VINA RESULT:    -7.078      4.914      9.621
REMARK INTER + INTRA:         -10.659
REMARK INTER:                  -9.845
REMARK INTRA:                  -0.815
REMARK UNBOUND:                -1.099
REMARK  Name = 
REMARK  6 active torsions:
REMARK  status: ('A' for Active; 'I' for Inactive)
REMARK    1  A    between atoms: C_2  and  C_20
REMARK    2  A    between atoms: N_3  and  C_4
REMARK    3  A    between atoms: C_4  and  C_5
REMARK    4  A    between atoms: C_8  and  C_9
REMARK    5  A    between atoms: C_9  and  C_10
REMARK    6  A    between atoms: C_10  and  C_11
REMARK                            x       y       z     vdW  Elec       q    Type
REMARK                         _______ _______ _______ _____ _____    ______ ____
ROOT
ATOM      1  C   UNL     1      47.145   3.432  16.845  0.00  0.00    +0.000 C 
ENDROOT
BRANCH   1   2
ATOM      2  C   UNL     1      48.623   3.392  17.134  0.00  0.00    +0.000 A 
ATOM      3  C   UNL     1      49.347   2.212  16.930  0.00  0.00    +0.000 A 
ATOM      4  C   UNL     1      50.717   2.159  17.203  0.00  0.00    +0.000 A 
ATOM      5  C   UNL     1      51.395   3.285  17.687  0.00  0.00    +0.000 A 
ATOM      6  C   UNL     1      50.665   4.459  17.914  0.00  0.00    +0.000 A 
ATOM      7  C   UNL     1      49.291   4.510  17.649  0.00  0.00    +0.000 A 
BRANCH   5   8
ATOM      8  C   UNL     1      52.870   3.229  18.020  0.00  0.00    +0.000 C 
BRANCH   8   9
ATOM      9  C   UNL     1      53.544   1.921  17.601  0.00  0.00    +0.000 C 
BRANCH   9  10
ATOM     10  C   UNL     1      54.283   1.267  18.759  0.00  0.00    +0.000 C 
ATOM     11  O   UNL     1      54.354   1.793  19.869  0.00  0.00    +0.000 OA
ATOM     12  N   UNL     1      54.849   0.036  18.501  0.00  0.00    +0.000 N 
ATOM     13  C   UNL     1      54.901  -0.673  17.236  0.00  0.00    +0.000 C 
ATOM     14  C   UNL     1      54.941  -2.129  17.661  0.00  0.00    +0.000 C 
ATOM     15  C   UNL     1      55.771  -2.104  18.941  0.00  0.00    +0.000 C 
ATOM     16  C   UNL     1      55.500  -0.730  19.550  0.00  0.00    +0.000 C 
ENDBRANCH   9  10
ENDBRANCH   8   9
ENDBRANCH   5   8
ENDBRANCH   1   2
BRANCH   1  19
ATOM     17  O   UNL     1      47.152   2.988  14.052  0.00  0.00    +0.000 OA
ATOM     18  C   UNL     1      46.801   4.082  14.486  0.00  0.00    +0.000 C 
ATOM     19  N   UNL     1      46.831   4.395  15.821  0.00  0.00    +0.000 N 
ATOM     20  H   UNL     1      46.350   5.228  16.138  0.00  0.00    +0.000 HD
BRANCH  18  21
ATOM     21  C   UNL     1      46.385   5.166  13.589  0.00  0.00    +0.000 A 
ATOM     22  C   UNL     1      47.272   6.183  13.264  0.00  0.00    +0.000 A 
ATOM     23  S   UNL     1      46.600   7.371  12.241  0.00  0.00    +0.000 S 
ATOM     24  C   UNL     1      45.116   6.543  12.157  0.00  0.00    +0.000 A 
ATOM     25  N   UNL     1      44.084   7.021  11.413  0.00  0.00    +0.000 NA
ATOM     26  C   UNL     1      43.033   6.269  11.405  0.00  0.00    +0.000 A 
ATOM     27  N   UNL     1      42.919   5.083  12.084  0.00  0.00    +0.000 N 
ATOM     28  C   UNL     1      43.904   4.605  12.911  0.00  0.00    +0.000 A 
ATOM     29  O   UNL     1      43.710   3.617  13.615  0.00  0.00    +0.000 OA
ATOM     30  C   UNL     1      45.125   5.387  12.917  0.00  0.00    +0.000 A 
ATOM     31  H   UNL     1      42.060   4.554  12.065  0.00  0.00    +0.000 HD
ENDBRANCH  18  21
ENDBRANCH   1  19
TORSDOF 6
ENDMDL
MODEL 5
REMARK VINA RESULT:    -6.947      3.711      5.118
REMARK INTER + INTRA:         -10.482
REMARK INTER:                  -9.578
REMARK INTRA:                  -0.905
REMARK UNBOUND:                -1.099
REMARK  Name = 
REMARK  6 active torsions:
REMARK  status: ('A' for Active; 'I' for Inactive)
REMARK    1  A    between atoms: C_2  and  C_20
REMARK    2  A    between atoms: N_3  and  C_4
REMARK    3  A    between atoms: C_4  and  C_5
REMARK    4  A    between atoms: C_8  and  C_9
REMARK    5  A    between atoms: C_9  and  C_10
REMARK    6  A    between atoms: C_10  and  C_11
REMARK                            x       y       z     vdW  Elec       q    Type
REMARK                         _______ _______ _______ _____ _____    ______ ____
ROOT
ATOM      1  C   UNL     1      48.047   6.816  13.636  0.00  0.00    +0.000 C 
ENDROOT
BRANCH   1   2
ATOM      2  C   UNL     1      46.988   6.178  12.775  0.00  0.00    +0.000 A 
ATOM      3  C   UNL     1      46.731   6.675  11.493  0.00  0.00    +0.000 A 
ATOM      4  C   UNL     1      45.745   6.096  10.687  0.00  0.00    +0.000 A 
ATOM      5  C   UNL     1      44.992   5.008  11.146  0.00  0.00    +0.000 A 
ATOM      6  C   UNL     1      45.232   4.527  12.440  0.00  0.00    +0.000 A 
ATOM      7  C   UNL     1      46.214   5.110  13.251  0.00  0.00    +0.000 A 
BRANCH   5   8
ATOM      8  C   UNL     1      43.898   4.399  10.298  0.00  0.00    +0.000 C 
BRANCH   8   9
ATOM      9  C   UNL     1      44.340   4.071   8.870  0.00  0.00    +0.000 C 
BRANCH   9  10
ATOM     10  C   UNL     1      44.984   2.697   8.777  0.00  0.00    +0.000 C 
ATOM     11  O   UNL     1      44.572   1.736   9.426  0.00  0.00    +0.000 OA
ATOM     12  N   UNL     1      46.045   2.581   7.903  0.00  0.00    +0.000 N 
ATOM     13  C   UNL     1      46.677   3.630   7.126  0.00  0.00    +0.000 C 
ATOM     14  C   UNL     1      47.203   2.887   5.911  0.00  0.00    +0.000 C 
ATOM     15  C   UNL     1      47.624   1.535   6.477  0.00  0.00    +0.000 C 
ATOM     16  C   UNL     1      46.683   1.300   7.657  0.00  0.00    +0.000 C 
ENDBRANCH   9  10
ENDBRANCH   8   9
ENDBRANCH   5   8
ENDBRANCH   1   2
BRANCH   1  19
ATOM     17  O   UNL     1      49.208   9.208  12.673  0.00  0.00    +0.000 OA
ATOM     18  C   UNL     1      49.820   8.150  12.549  0.00  0.00    +0.000 C 
ATOM     19  N   UNL     1      49.297   6.941  12.933  0.00  0.00    +0.000 N 
ATOM     20  H   UNL     1      49.914   6.139  12.991  0.00  0.00    +0.000 HD
BRANCH  18  21
ATOM     21  C   UNL     1      51.141   8.098  11.913  0.00  0.00    +0.000 A 
ATOM     22  C   UNL     1      51.288   7.530  10.655  0.00  0.00    +0.000 A 
ATOM     23  S   UNL     1      52.899   7.526  10.093  0.00  0.00    +0.000 S 
ATOM     24  C   UNL     1      53.449   8.326  11.491  0.00  0.00    +0.000 A 
ATOM     25  N   UNL     1      54.760   8.651  11.647  0.00  0.00    +0.000 NA
ATOM     26  C   UNL     1      55.028   9.294  12.735  0.00  0.00    +0.000 A 
ATOM     27  N   UNL     1      54.103   9.634  13.687  0.00  0.00    +0.000 N 
ATOM     28  C   UNL     1      52.787   9.256  13.610  0.00  0.00    +0.000 A 
ATOM     29  O   UNL     1      52.019   9.451  14.550  0.00  0.00    +0.000 OA
ATOM     30  C   UNL     1      52.422   8.573  12.384  0.00  0.00    +0.000 A 
ATOM     31  H   UNL     1      54.379  10.111  14.533  0.00  0.00    +0.000 HD
ENDBRANCH  18  21
ENDBRANCH   1  19
TORSDOF 6
ENDMDL
MODEL 6
REMARK VINA RESULT:    -6.726      2.518      3.303
REMARK INTER + INTRA:         -10.184
REMARK INTER:                  -9.040
REMARK INTRA:                  -1.144
REMARK UNBOUND:                -1.099
REMARK  Name = 
REMARK  6 active torsions:
REMARK  status: ('A' for Active; 'I' for Inactive)
REMARK    1  A    between atoms: C_2  and  C_20
REMARK    2  A    between atoms: N_3  and  C_4
REMARK    3  A    between atoms: C_4  and  C_5
REMARK    4  A    between atoms: C_8  and  C_9
REMARK    5  A    between atoms: C_9  and  C_10
REMARK    6  A    between atoms: C_10  and  C_11
REMARK                            x       y       z     vdW  Elec       q    Type
REMARK                         _______ _______ _______ _____ _____    ______ ____
ROOT
ATOM      1  C   UNL     1      48.980   8.208  12.248  0.00  0.00    +0.000 C 
ENDROOT
BRANCH   1   2
ATOM      2  C   UNL     1      47.713   7.418  12.448  0.00  0.00    +0.000 A 
ATOM      3  C   UNL     1      47.733   6.238  13.200  0.00  0.00    +0.000 A 
ATOM      4  C   UNL     1      46.565   5.492  13.387  0.00  0.00    +0.000 A 
ATOM      5  C   UNL     1      45.352   5.906  12.824  0.00  0.00    +0.000 A 
ATOM      6  C   UNL     1      45.338   7.074  12.050  0.00  0.00    +0.000 A 
ATOM      7  C   UNL     1      46.508   7.819  11.856  0.00  0.00    +0.000 A 
BRANCH   5   8
ATOM      8  C   UNL     1      44.091   5.086  12.988  0.00  0.00    +0.000 C 
BRANCH   8   9
ATOM      9  C   UNL     1      43.328   4.865  11.679  0.00  0.00    +0.000 C 
BRANCH   9  10
ATOM     10  C   UNL     1      43.561   3.472  11.116  0.00  0.00    +0.000 C 
ATOM     11  O   UNL     1      42.969   2.484  11.549  0.00  0.00    +0.000 OA
ATOM     12  N   UNL     1      44.459   3.380  10.073  0.00  0.00    +0.000 N 
ATOM     13  C   UNL     1      45.273   4.437   9.504  0.00  0.00    +0.000 C 
ATOM     14  C   UNL     1      45.455   3.992   8.064  0.00  0.00    +0.000 C 
ATOM     15  C   UNL     1      45.545   2.473   8.170  0.00  0.00    +0.000 C 
ATOM     16  C   UNL     1      44.696   2.120   9.390  0.00  0.00    +0.000 C 
ENDBRANCH   9  10
ENDBRANCH   8   9
ENDBRANCH   5   8
ENDBRANCH   1   2
BRANCH   1  19
ATOM     17  O   UNL     1      50.623   9.722  13.981  0.00  0.00    +0.000 OA
ATOM     18  C   UNL     1      50.766   8.503  13.929  0.00  0.00    +0.000 C 
ATOM     19  N   UNL     1      50.052   7.709  13.069  0.00  0.00    +0.000 N 
ATOM     20  H   UNL     1      50.065   6.704  13.207  0.00  0.00    +0.000 HD
BRANCH  18  21
ATOM     21  C   UNL     1      51.769   7.812  14.748  0.00  0.00    +0.000 A 
ATOM     22  C   UNL     1      53.122   8.007  14.504  0.00  0.00    +0.000 A 
ATOM     23  S   UNL     1      54.136   7.095  15.529  0.00  0.00    +0.000 S 
ATOM     24  C   UNL     1      52.805   6.446  16.365  0.00  0.00    +0.000 A 
ATOM     25  N   UNL     1      52.976   5.584  17.402  0.00  0.00    +0.000 NA
ATOM     26  C   UNL     1      51.881   5.205  17.973  0.00  0.00    +0.000 A 
ATOM     27  N   UNL     1      50.626   5.604  17.593  0.00  0.00    +0.000 N 
ATOM     28  C   UNL     1      50.402   6.407  16.504  0.00  0.00    +0.000 A 
ATOM     29  O   UNL     1      49.259   6.625  16.106  0.00  0.00    +0.000 OA
ATOM     30  C   UNL     1      51.602   6.901  15.856  0.00  0.00    +0.000 A 
ATOM     31  H   UNL     1      49.804   5.249  18.059  0.00  0.00    +0.000 HD
ENDBRANCH  18  21
ENDBRANCH   1  19
TORSDOF 6
ENDMDL
MODEL 7
REMARK VINA RESULT:    -6.691      2.936      8.448
REMARK INTER + INTRA:         -10.136
REMARK INTER:                  -9.024
REMARK INTRA:                  -1.112
REMARK UNBOUND:                -1.099
REMARK  Name = 
REMARK  6 active torsions:
REMARK  status: ('A' for Active; 'I' for Inactive)
REMARK    1  A    between atoms: C_2  and  C_20
REMARK    2  A    between atoms: N_3  and  C_4
REMARK    3  A    between atoms: C_4  and  C_5
REMARK    4  A    between atoms: C_8  and  C_9
REMARK    5  A    between atoms: C_9  and  C_10
REMARK    6  A    between atoms: C_10  and  C_11
REMARK                            x       y       z     vdW  Elec       q    Type
REMARK                         _______ _______ _______ _____ _____    ______ ____
ROOT
ATOM      1  C   UNL     1      47.459   7.786  11.771  0.00  0.00    +0.000 C 
ENDROOT
BRANCH   1   2
ATOM      2  C   UNL     1      48.070   7.899  13.143  0.00  0.00    +0.000 A 
ATOM      3  C   UNL     1      47.710   8.953  13.988  0.00  0.00    +0.000 A 
ATOM      4  C   UNL     1      48.276   9.073  15.261  0.00  0.00    +0.000 A 
ATOM      5  C   UNL     1      49.218   8.142  15.717  0.00  0.00    +0.000 A 
ATOM      6  C   UNL     1      49.598   7.101  14.860  0.00  0.00    +0.000 A 
ATOM      7  C   UNL     1      49.036   6.984  13.582  0.00  0.00    +0.000 A 
BRANCH   5   8
ATOM      8  C   UNL     1      49.865   8.283  17.077  0.00  0.00    +0.000 C 
BRANCH   8   9
ATOM      9  C   UNL     1      49.509   7.153  18.046  0.00  0.00    +0.000 C 
BRANCH   9  10
ATOM     10  C   UNL     1      50.536   6.032  18.010  0.00  0.00    +0.000 C 
ATOM     11  O   UNL     1      51.709   6.208  18.336  0.00  0.00    +0.000 OA
ATOM     12  N   UNL     1      50.070   4.795  17.614  0.00  0.00    +0.000 N 
ATOM     13  C   UNL     1      48.742   4.452  17.143  0.00  0.00    +0.000 C 
ATOM     14  C   UNL     1      48.600   2.996  17.547  0.00  0.00    +0.000 C 
ATOM     15  C   UNL     1      50.008   2.438  17.364  0.00  0.00    +0.000 C 
ATOM     16  C   UNL     1      50.932   3.625  17.628  0.00  0.00    +0.000 C 
ENDBRANCH   9  10
ENDBRANCH   8   9
ENDBRANCH   5   8
ENDBRANCH   1   2
BRANCH   1  19
ATOM     17  O   UNL     1      44.687   7.364  12.135  0.00  0.00    +0.000 OA
ATOM     18  C   UNL     1      45.390   6.435  11.746  0.00  0.00    +0.000 C 
ATOM     19  N   UNL     1      46.750   6.544  11.606  0.00  0.00    +0.000 N 
ATOM     20  H   UNL     1      47.248   5.821  11.099  0.00  0.00    +0.000 HD
BRANCH  18  21
ATOM     21  C   UNL     1      44.826   5.111  11.465  0.00  0.00    +0.000 A 
ATOM     22  C   UNL     1      44.083   4.449  12.433  0.00  0.00    +0.000 A 
ATOM     23  S   UNL     1      43.540   2.908  11.940  0.00  0.00    +0.000 S 
ATOM     24  C   UNL     1      44.238   3.092  10.399  0.00  0.00    +0.000 A 
ATOM     25  N   UNL     1      44.126   2.121   9.455  0.00  0.00    +0.000 NA
ATOM     26  C   UNL     1      44.665   2.412   8.317  0.00  0.00    +0.000 A 
ATOM     27  N   UNL     1      45.316   3.586   8.042  0.00  0.00    +0.000 N 
ATOM     28  C   UNL     1      45.523   4.558   8.988  0.00  0.00    +0.000 A 
ATOM     29  O   UNL     1      46.236   5.530   8.746  0.00  0.00    +0.000 OA
ATOM     30  C   UNL     1      44.895   4.302  10.269  0.00  0.00    +0.000 A 
ATOM     31  H   UNL     1      45.745   3.744   7.142  0.00  0.00    +0.000 HD
ENDBRANCH  18  21
ENDBRANCH   1  19
TORSDOF 6
ENDMDL
MODEL 8
REMARK VINA RESULT:    -5.856      2.863      4.369
REMARK INTER + INTRA:          -9.009
REMARK INTER:                  -8.389
REMARK INTRA:                  -0.620
REMARK UNBOUND:                -1.099
REMARK  Name = 
REMARK  6 active torsions:
REMARK  status: ('A' for Active; 'I' for Inactive)
REMARK    1  A    between atoms: C_2  and  C_20
REMARK    2  A    between atoms: N_3  and  C_4
REMARK    3  A    between atoms: C_4  and  C_5
REMARK    4  A    between atoms: C_8  and  C_9
REMARK    5  A    between atoms: C_9  and  C_10
REMARK    6  A    between atoms: C_10  and  C_11
REMARK                            x       y       z     vdW  Elec       q    Type
REMARK                         _______ _______ _______ _____ _____    ______ ____
ROOT
ATOM      1  C   UNL     1      45.933   7.300  13.525  0.00  0.00    +0.000 C 
ENDROOT
BRANCH   1   2
ATOM      2  C   UNL     1      45.513   6.114  12.697  0.00  0.00    +0.000 A 
ATOM      3  C   UNL     1      45.516   6.196  11.300  0.00  0.00    +0.000 A 
ATOM      4  C   UNL     1      45.121   5.105  10.520  0.00  0.00    +0.000 A 
ATOM      5  C   UNL     1      44.713   3.907  11.119  0.00  0.00    +0.000 A 
ATOM      6  C   UNL     1      44.686   3.833  12.518  0.00  0.00    +0.000 A 
ATOM      7  C   UNL     1      45.074   4.928  13.300  0.00  0.00    +0.000 A 
BRANCH   5   8
ATOM      8  C   UNL     1      44.248   2.733  10.285  0.00  0.00    +0.000 C 
BRANCH   8   9
ATOM      9  C   UNL     1      44.562   2.877   8.794  0.00  0.00    +0.000 C 
BRANCH   9  10
ATOM     10  C   UNL     1      45.633   1.895   8.343  0.00  0.00    +0.000 C 
ATOM     11  O   UNL     1      45.725   0.764   8.817  0.00  0.00    +0.000 OA
ATOM     12  N   UNL     1      46.484   2.339   7.352  0.00  0.00    +0.000 N 
ATOM     13  C   UNL     1      46.539   3.657   6.749  0.00  0.00    +0.000 C 
ATOM     14  C   UNL     1      47.068   3.373   5.355  0.00  0.00    +0.000 C 
ATOM     15  C   UNL     1      48.047   2.224   5.573  0.00  0.00    +0.000 C 
ATOM     16  C   UNL     1      47.488   1.463   6.773  0.00  0.00    +0.000 C 
ENDBRANCH   9  10
ENDBRANCH   8   9
ENDBRANCH   5   8
ENDBRANCH   1   2
BRANCH   1  19
ATOM     17  O   UNL     1      47.608   9.550  13.166  0.00  0.00    +0.000 OA
ATOM     18  C   UNL     1      48.095   8.495  13.564  0.00  0.00    +0.000 C 
ATOM     19  N   UNL     1      47.361   7.344  13.702  0.00  0.00    +0.000 N 
ATOM     20  H   UNL     1      47.763   6.568  14.216  0.00  0.00    +0.000 HD
BRANCH  18  21
ATOM     21  C   UNL     1      49.528   8.374  13.858  0.00  0.00    +0.000 A 
ATOM     22  C   UNL     1      49.949   7.789  15.044  0.00  0.00    +0.000 A 
ATOM     23  S   UNL     1      51.645   7.771  15.229  0.00  0.00    +0.000 S 
ATOM     24  C   UNL     1      51.877   8.500  13.709  0.00  0.00    +0.000 A 
ATOM     25  N   UNL     1      53.124   8.756  13.233  0.00  0.00    +0.000 NA
ATOM     26  C   UNL     1      53.152   9.270  12.048  0.00  0.00    +0.000 A 
ATOM     27  N   UNL     1      52.042   9.561  11.299  0.00  0.00    +0.000 N 
ATOM     28  C   UNL     1      50.765   9.395  11.771  0.00  0.00    +0.000 A 
ATOM     29  O   UNL     1      49.798   9.802  11.130  0.00  0.00    +0.000 OA
ATOM     30  C   UNL     1      50.676   8.774  13.079  0.00  0.00    +0.000 A 
ATOM     31  H   UNL     1      52.126   9.992  10.390  0.00  0.00    +0.000 HD
ENDBRANCH  18  21
ENDBRANCH   1  19
TORSDOF 6
ENDMDL
