MODEL 1
REMARK VINA RESULT:    -8.759      0.000      0.000
REMARK INTER + INTRA:         -12.533
REMARK INTER:                 -11.575
REMARK INTRA:                  -0.958
REMARK UNBOUND:                -0.958
REMARK  Name = 
REMARK  10 active torsions:
REMARK  status: ('A' for Active; 'I' for Inactive)
REMARK    1  A    between atoms: C_1  and  C_2
REMARK    2  A    between atoms: C_2  and  C_3
REMARK    3  A    between atoms: C_6  and  N_7
REMARK    4  A    between atoms: C_10  and  C_11
REMARK    5  A    between atoms: C_11  and  C_12
REMARK    6  A    between atoms: C_11  and  C_13
REMARK    7  A    between atoms: C_11  and  C_14
REMARK    8  A    between atoms: C_14  and  N_15
REMARK    9  A    between atoms: N_15  and  C_16
REMARK   10  A    between atoms: C_19  and  N_20
REMARK                            x       y       z     vdW  Elec       q    Type
REMARK                         _______ _______ _______ _____ _____    ______ ____
ROOT
ATOM      1  C   UNL     1      43.962   4.330  11.598  0.00  0.00    +0.000 C 
ATOM      2  C   UNL     1      43.496   2.865  11.757  0.00  0.00    +0.000 C 
ATOM      3  C   UNL     1      42.909   5.244  12.265  0.00  0.00    +0.000 C 
ENDROOT
BRANCH   1   7
ATOM      4  N   UNL     1      47.868   7.053  12.757  0.00  0.00    +0.000 N 
ATOM      5  C   UNL     1      47.189   5.846  12.893  0.00  0.00    +0.000 A 
ATOM      6  C   UNL     1      46.075   5.657  12.096  0.00  0.00    +0.000 A 
ATOM      7  C   UNL     1      45.315   4.521  12.304  0.00  0.00    +0.000 A 
ATOM      8  N   UNL     1      45.718   3.587  13.191  0.00  0.00    +0.000 NA
ATOM      9  C   UNL     1      46.849   3.830  13.869  0.00  0.00    +0.000 A 
ATOM     10  N   UNL     1      47.598   4.936  13.782  0.00  0.00    +0.000 NA
ATOM     11  H   UNL     1      48.422   7.058  11.910  0.00  0.00    +0.000 HD
BRANCH   4  17
ATOM     12  C   UNL     1      50.405  10.897  13.080  0.00  0.00    +0.000 C 
ATOM     13  C   UNL     1      49.390   9.776  12.876  0.00  0.00    +0.000 C 
ATOM     14  C   UNL     1      48.838   9.826  11.449  0.00  0.00    +0.000 C 
ATOM     15  O   UNL     1      48.289   9.984  13.771  0.00  0.00    +0.000 OA
ATOM     16  C   UNL     1      48.043   8.798  14.555  0.00  0.00    +0.000 C 
ATOM     17  C   UNL     1      48.620   7.528  13.905  0.00  0.00    +0.000 C 
ATOM     18  S   UNL     1      50.163   8.169  13.229  0.00  0.00    +0.000 S 
ENDBRANCH   4  17
ENDBRANCH   1   7
BRANCH   1  19
ATOM     19  C   UNL     1      44.020   4.725  10.083  0.00  0.00    +0.000 C 
BRANCH  19  20
ATOM     20  N   UNL     1      43.950   3.576   9.175  0.00  0.00    +0.000 N 
ATOM     21  H   UNL     1      43.092   3.597   8.622  0.00  0.00    +0.000 HD
BRANCH  20  22
ATOM     22  C   UNL     1      45.074   3.285   8.399  0.00  0.00    +0.000 A 
ATOM     23  N   UNL     1      45.749   4.290   7.800  0.00  0.00    +0.000 NA
ATOM     24  C   UNL     1      46.898   3.974   7.151  0.00  0.00    +0.000 A 
ATOM     25  C   UNL     1      47.402   2.683   6.989  0.00  0.00    +0.000 A 
ATOM     26  C   UNL     1      46.711   1.667   7.638  0.00  0.00    +0.000 A 
ATOM     27  C   UNL     1      45.550   1.970   8.343  0.00  0.00    +0.000 A 
ATOM     28  F   UNL     1      44.874   0.977   8.943  0.00  0.00    +0.000 F 
BRANCH  25  29
ATOM     29  N   UNL     1      48.660   2.444   6.427  0.00  0.00    +0.000 N 
ATOM     30  H   UNL     1      48.783   1.514   6.039  0.00  0.00    +0.000 HD
ATOM     31  H   UNL     1      49.442   2.730   7.008  0.00  0.00    +0.000 HD
ENDBRANCH  25  29
ENDBRANCH  20  22
ENDBRANCH  19  20
ENDBRANCH   1  19
TORSDOF 6
ENDMDL
MODEL 2
REMARK VINA RESULT:    -8.317      2.846      3.777
REMARK INTER + INTRA:         -11.950
REMARK INTER:                 -11.174
REMARK INTRA:                  -0.775
REMARK UNBOUND:                -0.958
REMARK  Name = 
REMARK  10 active torsions:
REMARK  status: ('A' for Active; 'I' for Inactive)
REMARK    1  A    between atoms: C_1  and  C_2
REMARK    2  A    between atoms: C_2  and  C_3
REMARK    3  A    between atoms: C_6  and  N_7
REMARK    4  A    between atoms: C_10  and  C_11
REMARK    5  A    between atoms: C_11  and  C_12
REMARK    6  A    between atoms: C_11  and  C_13
REMARK    7  A    between atoms: C_11  and  C_14
REMARK    8  A    between atoms: C_14  and  N_15
REMARK    9  A    between atoms: N_15  and  C_16
REMARK   10  A    between atoms: C_19  and  N_20
REMARK                            x       y       z     vdW  Elec       q    Type
REMARK                         _______ _______ _______ _____ _____    ______ ____
ROOT
ATOM      1  C   UNL     1      44.241   4.547  11.866  0.00  0.00    +0.000 C 
ATOM      2  C   UNL     1      44.095   3.026  12.097  0.00  0.00    +0.000 C 
ATOM      3  C   UNL     1      42.978   5.242  12.424  0.00  0.00    +0.000 C 
ENDROOT
BRANCH   1   7
ATOM      4  N   UNL     1      47.137   4.674  15.818  0.00  0.00    +0.000 N 
ATOM      5  C   UNL     1      46.897   5.105  14.515  0.00  0.00    +0.000 A 
ATOM      6  C   UNL     1      45.684   4.757  13.951  0.00  0.00    +0.000 A 
ATOM      7  C   UNL     1      45.477   5.067  12.619  0.00  0.00    +0.000 A 
ATOM      8  N   UNL     1      46.399   5.776  11.935  0.00  0.00    +0.000 NA
ATOM      9  C   UNL     1      47.516   6.125  12.590  0.00  0.00    +0.000 A 
ATOM     10  N   UNL     1      47.825   5.800  13.852  0.00  0.00    +0.000 NA
ATOM     11  H   UNL     1      46.619   5.235  16.481  0.00  0.00    +0.000 HD
BRANCH   4  17
ATOM     12  C   UNL     1      49.047   5.634  19.909  0.00  0.00    +0.000 C 
ATOM     13  C   UNL     1      48.237   5.201  18.690  0.00  0.00    +0.000 C 
ATOM     14  C   UNL     1      46.767   5.585  18.879  0.00  0.00    +0.000 C 
ATOM     15  O   UNL     1      48.299   3.773  18.580  0.00  0.00    +0.000 OA
ATOM     16  C   UNL     1      48.737   3.386  17.262  0.00  0.00    +0.000 C 
ATOM     17  C   UNL     1      48.521   4.494  16.216  0.00  0.00    +0.000 C 
ATOM     18  S   UNL     1      48.928   5.956  17.188  0.00  0.00    +0.000 S 
ENDBRANCH   4  17
ENDBRANCH   1   7
BRANCH   1  19
ATOM     19  C   UNL     1      44.301   4.864  10.333  0.00  0.00    +0.000 C 
BRANCH  19  20
ATOM     20  N   UNL     1      44.160   3.677   9.483  0.00  0.00    +0.000 N 
ATOM     21  H   UNL     1      43.249   3.663   9.021  0.00  0.00    +0.000 HD
BRANCH  20  22
ATOM     22  C   UNL     1      45.204   3.371   8.607  0.00  0.00    +0.000 A 
ATOM     23  N   UNL     1      45.887   4.370   8.009  0.00  0.00    +0.000 NA
ATOM     24  C   UNL     1      46.964   4.031   7.256  0.00  0.00    +0.000 A 
ATOM     25  C   UNL     1      47.380   2.727   6.990  0.00  0.00    +0.000 A 
ATOM     26  C   UNL     1      46.684   1.714   7.638  0.00  0.00    +0.000 A 
ATOM     27  C   UNL     1      45.599   2.038   8.447  0.00  0.00    +0.000 A 
ATOM     28  F   UNL     1      44.916   1.050   9.046  0.00  0.00    +0.000 F 
BRANCH  25  29
ATOM     29  N   UNL     1      48.577   2.454   6.319  0.00  0.00    +0.000 N 
ATOM     30  H   UNL     1      48.743   3.025   5.496  0.00  0.00    +0.000 HD
ATOM     31  H   UNL     1      48.749   1.468   6.148  0.00  0.00    +0.000 HD
ENDBRANCH  25  29
ENDBRANCH  20  22
ENDBRANCH  19  20
ENDBRANCH   1  19
TORSDOF 6
ENDMDL
MODEL 3
REMARK VINA RESULT:    -7.791      1.910      2.680
REMARK INTER + INTRA:         -11.254
REMARK INTER:                 -10.535
REMARK INTRA:                  -0.719
REMARK UNBOUND:                -0.958
REMARK  Name = 
REMARK  10 active torsions:
REMARK  status: ('A' for Active; 'I' for Inactive)
REMARK    1  A    between atoms: C_1  and  C_2
REMARK    2  A    between atoms: C_2  and  C_3
REMARK    3  A    between atoms: C_6  and  N_7
REMARK    4  A    between atoms: C_10  and  C_11
REMARK    5  A    between atoms: C_11  and  C_12
REMARK    6  A    between atoms: C_11  and  C_13
REMARK    7  A    between atoms: C_11  and  C_14
REMARK    8  A    between atoms: C_14  and  N_15
REMARK    9  A    between atoms: N_15  and  C_16
REMARK   10  A    between atoms: C_19  and  N_20
REMARK                            x       y       z     vdW  Elec       q    Type
REMARK                         _______ _______ _______ _____ _____    ______ ____
ROOT
ATOM      1  C   UNL     1      44.246   4.838  11.402  0.00  0.00    +0.000 C 
ATOM      2  C   UNL     1      45.045   3.589  11.839  0.00  0.00    +0.000 C 
ATOM      3  C   UNL     1      42.808   4.707  11.956  0.00  0.00    +0.000 C 
ENDROOT
BRANCH   1   7
ATOM      4  N   UNL     1      47.590   7.036  14.230  0.00  0.00    +0.000 N 
ATOM      5  C   UNL     1      46.537   7.166  13.329  0.00  0.00    +0.000 A 
ATOM      6  C   UNL     1      45.865   6.011  12.974  0.00  0.00    +0.000 A 
ATOM      7  C   UNL     1      44.900   6.100  11.988  0.00  0.00    +0.000 A 
ATOM      8  N   UNL     1      44.566   7.300  11.471  0.00  0.00    +0.000 NA
ATOM      9  C   UNL     1      45.229   8.373  11.928  0.00  0.00    +0.000 A 
ATOM     10  N   UNL     1      46.226   8.362  12.822  0.00  0.00    +0.000 NA
ATOM     11  H   UNL     1      47.242   6.900  15.170  0.00  0.00    +0.000 HD
BRANCH   4  17
ATOM     12  C   UNL     1      50.515   8.247  17.591  0.00  0.00    +0.000 C 
ATOM     13  C   UNL     1      49.610   7.611  16.539  0.00  0.00    +0.000 C 
ATOM     14  C   UNL     1      48.758   6.512  17.180  0.00  0.00    +0.000 C 
ATOM     15  O   UNL     1      50.432   6.991  15.540  0.00  0.00    +0.000 OA
ATOM     16  C   UNL     1      50.066   7.455  14.225  0.00  0.00    +0.000 C 
ATOM     17  C   UNL     1      48.642   8.035  14.176  0.00  0.00    +0.000 C 
ATOM     18  S   UNL     1      48.571   8.885  15.763  0.00  0.00    +0.000 S 
ENDBRANCH   4  17
ENDBRANCH   1   7
BRANCH   1  19
ATOM     19  C   UNL     1      44.133   4.896   9.840  0.00  0.00    +0.000 C 
BRANCH  19  20
ATOM     20  N   UNL     1      44.151   3.576   9.201  0.00  0.00    +0.000 N 
ATOM     21  H   UNL     1      43.255   3.372   8.755  0.00  0.00    +0.000 HD
BRANCH  20  22
ATOM     22  C   UNL     1      45.237   3.260   8.382  0.00  0.00    +0.000 A 
ATOM     23  N   UNL     1      45.901   4.249   7.746  0.00  0.00    +0.000 NA
ATOM     24  C   UNL     1      47.017   3.910   7.051  0.00  0.00    +0.000 A 
ATOM     25  C   UNL     1      47.493   2.610   6.879  0.00  0.00    +0.000 A 
ATOM     26  C   UNL     1      46.814   1.611   7.566  0.00  0.00    +0.000 A 
ATOM     27  C   UNL     1      45.689   1.938   8.317  0.00  0.00    +0.000 A 
ATOM     28  F   UNL     1      45.024   0.960   8.953  0.00  0.00    +0.000 F 
BRANCH  25  29
ATOM     29  N   UNL     1      48.722   2.346   6.266  0.00  0.00    +0.000 N 
ATOM     30  H   UNL     1      48.657   1.994   5.317  0.00  0.00    +0.000 HD
ATOM     31  H   UNL     1      49.370   1.812   6.836  0.00  0.00    +0.000 HD
ENDBRANCH  25  29
ENDBRANCH  20  22
ENDBRANCH  19  20
ENDBRANCH   1  19
TORSDOF 6
ENDMDL
MODEL 4
REMARK VINA RESULT:    -6.996      2.267      3.076
REMARK INTER + INTRA:         -10.203
REMARK INTER:                  -9.449
REMARK INTRA:                  -0.754
REMARK UNBOUND:                -0.958
REMARK  Name = 
REMARK  10 active torsions:
REMARK  status: ('A' for Active; 'I' for Inactive)
REMARK    1  A    between atoms: C_1  and  C_2
REMARK    2  A    between atoms: C_2  and  C_3
REMARK    3  A    between atoms: C_6  and  N_7
REMARK    4  A    between atoms: C_10  and  C_11
REMARK    5  A    between atoms: C_11  and  C_12
REMARK    6  A    between atoms: C_11  and  C_13
REMARK    7  A    between atoms: C_11  and  C_14
REMARK    8  A    between atoms: C_14  and  N_15
REMARK    9  A    between atoms: N_15  and  C_16
REMARK   10  A    between atoms: C_19  and  N_20
REMARK                            x       y       z     vdW  Elec       q    Type
REMARK                         _______ _______ _______ _____ _____    ______ ____
ROOT
ATOM      1  C   UNL     1      44.399   6.243  11.718  0.00  0.00    +0.000 C 
ATOM      2  C   UNL     1      44.500   5.600  13.120  0.00  0.00    +0.000 C 
ATOM      3  C   UNL     1      42.949   6.066  11.211  0.00  0.00    +0.000 C 
ENDROOT
BRANCH   1   7
ATOM      4  N   UNL     1      47.310   9.945  13.076  0.00  0.00    +0.000 N 
ATOM      5  C   UNL     1      46.141   9.534  12.441  0.00  0.00    +0.000 A 
ATOM      6  C   UNL     1      45.807   8.196  12.541  0.00  0.00    +0.000 A 
ATOM      7  C   UNL     1      44.720   7.744  11.815  0.00  0.00    +0.000 A 
ATOM      8  N   UNL     1      43.960   8.613  11.118  0.00  0.00    +0.000 NA
ATOM      9  C   UNL     1      44.327   9.904  11.136  0.00  0.00    +0.000 A 
ATOM     10  N   UNL     1      45.405  10.408  11.748  0.00  0.00    +0.000 NA
ATOM     11  H   UNL     1      47.169  10.011  14.075  0.00  0.00    +0.000 HD
BRANCH   4  17
ATOM     12  C   UNL     1      51.849  10.780  12.956  0.00  0.00    +0.000 C 
ATOM     13  C   UNL     1      50.408  10.279  12.903  0.00  0.00    +0.000 C 
ATOM     14  C   UNL     1      50.312   8.901  13.564  0.00  0.00    +0.000 C 
ATOM     15  O   UNL     1      50.024  10.126  11.529  0.00  0.00    +0.000 OA
ATOM     16  C   UNL     1      48.800  10.840  11.264  0.00  0.00    +0.000 C 
ATOM     17  C   UNL     1      47.985  11.113  12.540  0.00  0.00    +0.000 C 
ATOM     18  S   UNL     1      49.305  11.477  13.710  0.00  0.00    +0.000 S 
ENDBRANCH   4  17
ENDBRANCH   1   7
BRANCH   1  19
ATOM     19  C   UNL     1      45.335   5.498  10.706  0.00  0.00    +0.000 C 
BRANCH  19  20
ATOM     20  N   UNL     1      44.615   4.882   9.587  0.00  0.00    +0.000 N 
ATOM     21  H   UNL     1      44.123   5.586   9.035  0.00  0.00    +0.000 HD
BRANCH  20  22
ATOM     22  C   UNL     1      45.307   3.969   8.788  0.00  0.00    +0.000 A 
ATOM     23  N   UNL     1      46.135   4.423   7.822  0.00  0.00    +0.000 NA
ATOM     24  C   UNL     1      46.872   3.505   7.145  0.00  0.00    +0.000 A 
ATOM     25  C   UNL     1      46.790   2.123   7.317  0.00  0.00    +0.000 A 
ATOM     26  C   UNL     1      45.956   1.678   8.335  0.00  0.00    +0.000 A 
ATOM     27  C   UNL     1      45.218   2.602   9.069  0.00  0.00    +0.000 A 
ATOM     28  F   UNL     1      44.394   2.159  10.032  0.00  0.00    +0.000 F 
BRANCH  25  29
ATOM     29  N   UNL     1      47.675   1.245   6.684  0.00  0.00    +0.000 N 
ATOM     30  H   UNL     1      47.620   1.243   5.670  0.00  0.00    +0.000 HD
ATOM     31  H   UNL     1      47.689   0.308   7.074  0.00  0.00    +0.000 HD
ENDBRANCH  25  29
ENDBRANCH  20  22
ENDBRANCH  19  20
ENDBRANCH   1  19
TORSDOF 6
ENDMDL
MODEL 5
REMARK VINA RESULT:    -6.695      5.084      8.459
REMARK INTER + INTRA:          -9.805
REMARK INTER:                  -8.682
REMARK INTRA:                  -1.123
REMARK UNBOUND:                -0.958
REMARK  Name = 
REMARK  10 active torsions:
REMARK  status: ('A' for Active; 'I' for Inactive)
REMARK    1  A    between atoms: C_1  and  C_2
REMARK    2  A    between atoms: C_2  and  C_3
REMARK    3  A    between atoms: C_6  and  N_7
REMARK    4  A    between atoms: C_10  and  C_11
REMARK    5  A    between atoms: C_11  and  C_12
REMARK    6  A    between atoms: C_11  and  C_13
REMARK    7  A    between atoms: C_11  and  C_14
REMARK    8  A    between atoms: C_14  and  N_15
REMARK    9  A    between atoms: N_15  and  C_16
REMARK   10  A    between atoms: C_19  and  N_20
REMARK                            x       y       z     vdW  Elec       q    Type
REMARK                         _______ _______ _______ _____ _____    ______ ____
ROOT
ATOM      1  C   UNL     1      48.050   4.601  17.862  0.00  0.00    +0.000 C 
ATOM      2  C   UNL     1      47.177   5.532  18.736  0.00  0.00    +0.000 C 
ATOM      3  C   UNL     1      47.345   3.228  17.771  0.00  0.00    +0.000 C 
ENDROOT
BRANCH   1   7
ATOM      4  N   UNL     1      46.704   4.863  13.157  0.00  0.00    +0.000 N 
ATOM      5  C   UNL     1      47.512   5.346  14.183  0.00  0.00    +0.000 A 
ATOM      6  C   UNL     1      47.486   4.660  15.382  0.00  0.00    +0.000 A 
ATOM      7  C   UNL     1      48.183   5.195  16.450  0.00  0.00    +0.000 A 
ATOM      8  N   UNL     1      48.942   6.297  16.282  0.00  0.00    +0.000 NA
ATOM      9  C   UNL     1      48.955   6.855  15.062  0.00  0.00    +0.000 A 
ATOM     10  N   UNL     1      48.251   6.445  14.000  0.00  0.00    +0.000 NA
ATOM     11  H   UNL     1      47.112   4.035  12.741  0.00  0.00    +0.000 HD
BRANCH   4  17
ATOM     12  C   UNL     1      42.477   5.277  11.348  0.00  0.00    +0.000 C 
ATOM     13  C   UNL     1      43.756   5.135  12.168  0.00  0.00    +0.000 C 
ATOM     14  C   UNL     1      43.611   3.983  13.165  0.00  0.00    +0.000 C 
ATOM     15  O   UNL     1      43.954   6.338  12.924  0.00  0.00    +0.000 OA
ATOM     16  C   UNL     1      45.273   6.872  12.689  0.00  0.00    +0.000 C 
ATOM     17  C   UNL     1      46.255   5.813  12.157  0.00  0.00    +0.000 C 
ATOM     18  S   UNL     1      45.175   4.875  11.061  0.00  0.00    +0.000 S 
ENDBRANCH   4  17
ENDBRANCH   1   7
BRANCH   1  19
ATOM     19  C   UNL     1      49.441   4.360  18.541  0.00  0.00    +0.000 C 
BRANCH  19  20
ATOM     20  N   UNL     1      50.551   4.269  17.587  0.00  0.00    +0.000 N 
ATOM     21  H   UNL     1      51.016   5.172  17.477  0.00  0.00    +0.000 HD
BRANCH  20  22
ATOM     22  C   UNL     1      51.459   3.219  17.738  0.00  0.00    +0.000 A 
ATOM     23  N   UNL     1      52.605   3.422  18.424  0.00  0.00    +0.000 NA
ATOM     24  C   UNL     1      53.404   2.347  18.643  0.00  0.00    +0.000 A 
ATOM     25  C   UNL     1      53.174   1.061  18.154  0.00  0.00    +0.000 A 
ATOM     26  C   UNL     1      51.977   0.865  17.478  0.00  0.00    +0.000 A 
ATOM     27  C   UNL     1      51.121   1.944  17.273  0.00  0.00    +0.000 A 
ATOM     28  F   UNL     1      49.979   1.749  16.594  0.00  0.00    +0.000 F 
BRANCH  25  29
ATOM     29  N   UNL     1      53.967  -0.027  18.532  0.00  0.00    +0.000 N 
ATOM     30  H   UNL     1      53.475  -0.756  19.039  0.00  0.00    +0.000 HD
ATOM     31  H   UNL     1      54.847   0.225  18.971  0.00  0.00    +0.000 HD
ENDBRANCH  25  29
ENDBRANCH  20  22
ENDBRANCH  19  20
ENDBRANCH   1  19
TORSDOF 6
ENDMDL
MODEL 6
REMARK VINA RESULT:    -6.560      2.085      2.574
REMARK INTER + INTRA:          -9.627
REMARK INTER:                  -9.195
REMARK INTRA:                  -0.431
REMARK UNBOUND:                -0.958
REMARK  Name = 
REMARK  10 active torsions:
REMARK  status: ('A' for Active; 'I' for Inactive)
REMARK    1  A    between atoms: C_1  and  C_2
REMARK    2  A    between atoms: C_2  and  C_3
REMARK    3  A    between atoms: C_6  and  N_7
REMARK    4  A    between atoms: C_10  and  C_11
REMARK    5  A    between atoms: C_11  and  C_12
REMARK    6  A    between atoms: C_11  and  C_13
REMARK    7  A    between atoms: C_11  and  C_14
REMARK    8  A    between atoms: C_14  and  N_15
REMARK    9  A    between atoms: N_15  and  C_16
REMARK   10  A    between atoms: C_19  and  N_20
REMARK                            x       y       z     vdW  Elec       q    Type
REMARK                         _______ _______ _______ _____ _____    ______ ____
ROOT
ATOM      1  C   UNL     1      45.595   5.977  12.020  0.00  0.00    +0.000 C 
ATOM      2  C   UNL     1      44.542   7.013  12.474  0.00  0.00    +0.000 C 
ATOM      3  C   UNL     1      46.461   6.625  10.915  0.00  0.00    +0.000 C 
ENDROOT
BRANCH   1   7
ATOM      4  N   UNL     1      49.193   6.995  15.189  0.00  0.00    +0.000 N 
ATOM      5  C   UNL     1      48.211   6.104  14.764  0.00  0.00    +0.000 A 
ATOM      6  C   UNL     1      47.556   6.404  13.584  0.00  0.00    +0.000 A 
ATOM      7  C   UNL     1      46.495   5.601  13.209  0.00  0.00    +0.000 A 
ATOM      8  N   UNL     1      46.186   4.503  13.931  0.00  0.00    +0.000 NA
ATOM      9  C   UNL     1      46.924   4.258  15.024  0.00  0.00    +0.000 A 
ATOM     10  N   UNL     1      47.914   5.026  15.495  0.00  0.00    +0.000 NA
ATOM     11  H   UNL     1      50.037   6.884  14.643  0.00  0.00    +0.000 HD
BRANCH   4  17
ATOM     12  C   UNL     1      51.294  10.380  17.522  0.00  0.00    +0.000 C 
ATOM     13  C   UNL     1      50.463   9.445  16.647  0.00  0.00    +0.000 C 
ATOM     14  C   UNL     1      50.456   9.953  15.203  0.00  0.00    +0.000 C 
ATOM     15  O   UNL     1      49.108   9.459  17.117  0.00  0.00    +0.000 OA
ATOM     16  C   UNL     1      48.646   8.116  17.369  0.00  0.00    +0.000 C 
ATOM     17  C   UNL     1      49.467   7.056  16.613  0.00  0.00    +0.000 C 
ATOM     18  S   UNL     1      51.122   7.753  16.748  0.00  0.00    +0.000 S 
ENDBRANCH   4  17
ENDBRANCH   1   7
BRANCH   1  19
ATOM     19  C   UNL     1      44.896   4.728  11.384  0.00  0.00    +0.000 C 
BRANCH  19  20
ATOM     20  N   UNL     1      44.585   4.892   9.960  0.00  0.00    +0.000 N 
ATOM     21  H   UNL     1      44.636   5.873   9.684  0.00  0.00    +0.000 HD
BRANCH  20  22
ATOM     22  C   UNL     1      45.228   4.050   9.050  0.00  0.00    +0.000 A 
ATOM     23  N   UNL     1      46.039   4.581   8.109  0.00  0.00    +0.000 NA
ATOM     24  C   UNL     1      46.730   3.721   7.318  0.00  0.00    +0.000 A 
ATOM     25  C   UNL     1      46.616   2.331   7.350  0.00  0.00    +0.000 A 
ATOM     26  C   UNL     1      45.801   1.803   8.344  0.00  0.00    +0.000 A 
ATOM     27  C   UNL     1      45.110   2.663   9.192  0.00  0.00    +0.000 A 
ATOM     28  F   UNL     1      44.303   2.143  10.131  0.00  0.00    +0.000 F 
BRANCH  25  29
ATOM     29  N   UNL     1      47.457   1.502   6.602  0.00  0.00    +0.000 N 
ATOM     30  H   UNL     1      47.279   0.508   6.708  0.00  0.00    +0.000 HD
ATOM     31  H   UNL     1      48.444   1.729   6.672  0.00  0.00    +0.000 HD
ENDBRANCH  25  29
ENDBRANCH  20  22
ENDBRANCH  19  20
ENDBRANCH   1  19
TORSDOF 6
ENDMDL
MODEL 7
REMARK VINA RESULT:    -6.464      2.586      3.387
REMARK INTER + INTRA:          -9.500
REMARK INTER:                  -8.650
REMARK INTRA:                  -0.850
REMARK UNBOUND:                -0.958
REMARK  Name = 
REMARK  10 active torsions:
REMARK  status: ('A' for Active; 'I' for Inactive)
REMARK    1  A    between atoms: C_1  and  C_2
REMARK    2  A    between atoms: C_2  and  C_3
REMARK    3  A    between atoms: C_6  and  N_7
REMARK    4  A    between atoms: C_10  and  C_11
REMARK    5  A    between atoms: C_11  and  C_12
REMARK    6  A    between atoms: C_11  and  C_13
REMARK    7  A    between atoms: C_11  and  C_14
REMARK    8  A    between atoms: C_14  and  N_15
REMARK    9  A    between atoms: N_15  and  C_16
REMARK   10  A    between atoms: C_19  and  N_20
REMARK                            x       y       z     vdW  Elec       q    Type
REMARK                         _______ _______ _______ _____ _____    ______ ____
ROOT
ATOM      1  C   UNL     1      45.756   6.648  11.913  0.00  0.00    +0.000 C 
ATOM      2  C   UNL     1      45.264   5.456  12.766  0.00  0.00    +0.000 C 
ATOM      3  C   UNL     1      44.597   7.666  11.796  0.00  0.00    +0.000 C 
ENDROOT
BRANCH   1   7
ATOM      4  N   UNL     1      50.520   7.770  12.161  0.00  0.00    +0.000 N 
ATOM      5  C   UNL     1      49.247   7.893  12.714  0.00  0.00    +0.000 A 
ATOM      6  C   UNL     1      48.243   7.123  12.159  0.00  0.00    +0.000 A 
ATOM      7  C   UNL     1      46.950   7.321  12.609  0.00  0.00    +0.000 A 
ATOM      8  N   UNL     1      46.709   8.171  13.628  0.00  0.00    +0.000 NA
ATOM      9  C   UNL     1      47.760   8.825  14.146  0.00  0.00    +0.000 A 
ATOM     10  N   UNL     1      49.026   8.746  13.719  0.00  0.00    +0.000 NA
ATOM     11  H   UNL     1      50.957   6.909  12.461  0.00  0.00    +0.000 HD
BRANCH   4  17
ATOM     12  C   UNL     1      54.263   8.710   9.629  0.00  0.00    +0.000 C 
ATOM     13  C   UNL     1      52.912   8.360  10.246  0.00  0.00    +0.000 C 
ATOM     14  C   UNL     1      52.388   7.053   9.645  0.00  0.00    +0.000 C 
ATOM     15  O   UNL     1      51.974   9.393   9.916  0.00  0.00    +0.000 OA
ATOM     16  C   UNL     1      51.337   9.898  11.107  0.00  0.00    +0.000 C 
ATOM     17  C   UNL     1      51.412   8.908  12.283  0.00  0.00    +0.000 C 
ATOM     18  S   UNL     1      53.069   8.239  12.053  0.00  0.00    +0.000 S 
ENDBRANCH   4  17
ENDBRANCH   1   7
BRANCH   1  19
ATOM     19  C   UNL     1      46.101   6.175  10.460  0.00  0.00    +0.000 C 
BRANCH  19  20
ATOM     20  N   UNL     1      45.057   5.345   9.850  0.00  0.00    +0.000 N 
ATOM     21  H   UNL     1      44.353   5.922   9.387  0.00  0.00    +0.000 HD
BRANCH  20  22
ATOM     22  C   UNL     1      45.458   4.264   9.062  0.00  0.00    +0.000 A 
ATOM     23  N   UNL     1      46.221   4.482   7.969  0.00  0.00    +0.000 NA
ATOM     24  C   UNL     1      46.681   3.395   7.298  0.00  0.00    +0.000 A 
ATOM     25  C   UNL     1      46.370   2.071   7.604  0.00  0.00    +0.000 A 
ATOM     26  C   UNL     1      45.611   1.865   8.749  0.00  0.00    +0.000 A 
ATOM     27  C   UNL     1      45.158   2.962   9.477  0.00  0.00    +0.000 A 
ATOM     28  F   UNL     1      44.402   2.753  10.566  0.00  0.00    +0.000 F 
BRANCH  25  29
ATOM     29  N   UNL     1      46.988   0.997   6.955  0.00  0.00    +0.000 N 
ATOM     30  H   UNL     1      47.462   1.238   6.090  0.00  0.00    +0.000 HD
ATOM     31  H   UNL     1      46.406   0.170   6.862  0.00  0.00    +0.000 HD
ENDBRANCH  25  29
ENDBRANCH  20  22
ENDBRANCH  19  20
ENDBRANCH   1  19
TORSDOF 6
ENDMDL
MODEL 8
REMARK VINA RESULT:    -6.415      3.301      4.586
REMARK INTER + INTRA:          -9.436
REMARK INTER:                  -8.464
REMARK INTRA:                  -0.971
REMARK UNBOUND:                -0.958
REMARK  Name = 
REMARK  10 active torsions:
REMARK  status: ('A' for Active; 'I' for Inactive)
REMARK    1  A    between atoms: C_1  and  C_2
REMARK    2  A    between atoms: C_2  and  C_3
REMARK    3  A    between atoms: C_6  and  N_7
REMARK    4  A    between atoms: C_10  and  C_11
REMARK    5  A    between atoms: C_11  and  C_12
REMARK    6  A    between atoms: C_11  and  C_13
REMARK    7  A    between atoms: C_11  and  C_14
REMARK    8  A    between atoms: C_14  and  N_15
REMARK    9  A    between atoms: N_15  and  C_16
REMARK   10  A    between atoms: C_19  and  N_20
REMARK                            x       y       z     vdW  Elec       q    Type
REMARK                         _______ _______ _______ _____ _____    ______ ____
ROOT
ATOM      1  C   UNL     1      46.930   7.385  12.468  0.00  0.00    +0.000 C 
ATOM      2  C   UNL     1      45.656   8.121  12.942  0.00  0.00    +0.000 C 
ATOM      3  C   UNL     1      48.073   8.421  12.363  0.00  0.00    +0.000 C 
ENDROOT
BRANCH   1   7
ATOM      4  N   UNL     1      49.037   6.009  16.674  0.00  0.00    +0.000 N 
ATOM      5  C   UNL     1      48.305   5.646  15.546  0.00  0.00    +0.000 A 
ATOM      6  C   UNL     1      48.143   6.607  14.565  0.00  0.00    +0.000 A 
ATOM      7  C   UNL     1      47.316   6.309  13.497  0.00  0.00    +0.000 A 
ATOM      8  N   UNL     1      46.776   5.079  13.379  0.00  0.00    +0.000 NA
ATOM      9  C   UNL     1      47.047   4.192  14.349  0.00  0.00    +0.000 A 
ATOM     10  N   UNL     1      47.771   4.426  15.450  0.00  0.00    +0.000 NA
ATOM     11  H   UNL     1      50.027   6.027  16.467  0.00  0.00    +0.000 HD
BRANCH   4  17
ATOM     12  C   UNL     1      48.330   7.823  20.860  0.00  0.00    +0.000 C 
ATOM     13  C   UNL     1      48.400   7.396  19.396  0.00  0.00    +0.000 C 
ATOM     14  C   UNL     1      48.639   8.621  18.508  0.00  0.00    +0.000 C 
ATOM     15  O   UNL     1      47.137   6.831  19.021  0.00  0.00    +0.000 OA
ATOM     16  C   UNL     1      47.320   5.523  18.441  0.00  0.00    +0.000 C 
ATOM     17  C   UNL     1      48.748   5.305  17.910  0.00  0.00    +0.000 C 
ATOM     18  S   UNL     1      49.709   6.155  19.175  0.00  0.00    +0.000 S 
ENDBRANCH   4  17
ENDBRANCH   1   7
BRANCH   1  19
ATOM     19  C   UNL     1      46.717   6.789  11.035  0.00  0.00    +0.000 C 
BRANCH  19  20
ATOM     20  N   UNL     1      45.327   6.412  10.758  0.00  0.00    +0.000 N 
ATOM     21  H   UNL     1      44.840   7.151  10.249  0.00  0.00    +0.000 HD
BRANCH  20  22
ATOM     22  C   UNL     1      45.088   5.148  10.214  0.00  0.00    +0.000 A 
ATOM     23  N   UNL     1      45.582   4.842   8.995  0.00  0.00    +0.000 NA
ATOM     24  C   UNL     1      45.422   3.568   8.555  0.00  0.00    +0.000 A 
ATOM     25  C   UNL     1      44.725   2.566   9.229  0.00  0.00    +0.000 A 
ATOM     26  C   UNL     1      44.251   2.890  10.494  0.00  0.00    +0.000 A 
ATOM     27  C   UNL     1      44.435   4.179  10.985  0.00  0.00    +0.000 A 
ATOM     28  F   UNL     1      43.948   4.490  12.197  0.00  0.00    +0.000 F 
BRANCH  25  29
ATOM     29  N   UNL     1      44.716   1.241   8.781  0.00  0.00    +0.000 N 
ATOM     30  H   UNL     1      43.820   0.770   8.861  0.00  0.00    +0.000 HD
ATOM     31  H   UNL     1      45.485   0.674   9.127  0.00  0.00    +0.000 HD
ENDBRANCH  25  29
ENDBRANCH  20  22
ENDBRANCH  19  20
ENDBRANCH   1  19
TORSDOF 6
ENDMDL
MODEL 9
REMARK VINA RESULT:    -6.304      4.260      7.909
REMARK INTER + INTRA:          -9.288
REMARK INTER:                  -8.116
REMARK INTRA:                  -1.172
REMARK UNBOUND:                -0.958
REMARK  Name = 
REMARK  10 active torsions:
REMARK  status: ('A' for Active; 'I' for Inactive)
REMARK    1  A    between atoms: C_1  and  C_2
REMARK    2  A    between atoms: C_2  and  C_3
REMARK    3  A    between atoms: C_6  and  N_7
REMARK    4  A    between atoms: C_10  and  C_11
REMARK    5  A    between atoms: C_11  and  C_12
REMARK    6  A    between atoms: C_11  and  C_13
REMARK    7  A    between atoms: C_11  and  C_14
REMARK    8  A    between atoms: C_14  and  N_15
REMARK    9  A    between atoms: N_15  and  C_16
REMARK   10  A    between atoms: C_19  and  N_20
REMARK                            x       y       z     vdW  Elec       q    Type
REMARK                         _______ _______ _______ _____ _____    ______ ____
ROOT
ATOM      1  C   UNL     1      48.756   9.082  13.469  0.00  0.00    +0.000 C 
ATOM      2  C   UNL     1      49.907   8.475  12.635  0.00  0.00    +0.000 C 
ATOM      3  C   UNL     1      49.024  10.596  13.627  0.00  0.00    +0.000 C 
ENDROOT
BRANCH   1   7
ATOM      4  N   UNL     1      45.366   6.200  11.414  0.00  0.00    +0.000 N 
ATOM      5  C   UNL     1      45.766   7.486  11.765  0.00  0.00    +0.000 A 
ATOM      6  C   UNL     1      47.049   7.634  12.259  0.00  0.00    +0.000 A 
ATOM      7  C   UNL     1      47.422   8.879  12.730  0.00  0.00    +0.000 A 
ATOM      8  N   UNL     1      46.584   9.930  12.611  0.00  0.00    +0.000 NA
ATOM      9  C   UNL     1      45.384   9.700  12.057  0.00  0.00    +0.000 A 
ATOM     10  N   UNL     1      44.920   8.513  11.647  0.00  0.00    +0.000 NA
ATOM     11  H   UNL     1      45.782   5.925  10.533  0.00  0.00    +0.000 HD
BRANCH   4  17
ATOM     12  C   UNL     1      43.349   2.112  12.143  0.00  0.00    +0.000 C 
ATOM     13  C   UNL     1      44.156   3.406  12.101  0.00  0.00    +0.000 C 
ATOM     14  C   UNL     1      45.653   3.089  12.177  0.00  0.00    +0.000 C 
ATOM     15  O   UNL     1      43.824   4.193  13.254  0.00  0.00    +0.000 OA
ATOM     16  C   UNL     1      43.429   5.523  12.861  0.00  0.00    +0.000 C 
ATOM     17  C   UNL     1      43.946   5.906  11.463  0.00  0.00    +0.000 C 
ATOM     18  S   UNL     1      43.755   4.340  10.594  0.00  0.00    +0.000 S 
ENDBRANCH   4  17
ENDBRANCH   1   7
BRANCH   1  19
ATOM     19  C   UNL     1      48.739   8.464  14.908  0.00  0.00    +0.000 C 
BRANCH  19  20
ATOM     20  N   UNL     1      49.335   7.126  14.980  0.00  0.00    +0.000 N 
ATOM     21  H   UNL     1      50.310   7.174  15.280  0.00  0.00    +0.000 HD
BRANCH  20  22
ATOM     22  C   UNL     1      48.622   6.128  15.647  0.00  0.00    +0.000 A 
ATOM     23  N   UNL     1      47.849   5.275  14.941  0.00  0.00    +0.000 NA
ATOM     24  C   UNL     1      47.265   4.252  15.615  0.00  0.00    +0.000 A 
ATOM     25  C   UNL     1      47.339   4.052  16.994  0.00  0.00    +0.000 A 
ATOM     26  C   UNL     1      48.163   4.920  17.698  0.00  0.00    +0.000 A 
ATOM     27  C   UNL     1      48.804   5.955  17.024  0.00  0.00    +0.000 A 
ATOM     28  F   UNL     1      49.576   6.806  17.719  0.00  0.00    +0.000 F 
BRANCH  25  29
ATOM     29  N   UNL     1      46.826   2.902  17.603  0.00  0.00    +0.000 N 
ATOM     30  H   UNL     1      47.523   2.214  17.869  0.00  0.00    +0.000 HD
ATOM     31  H   UNL     1      46.034   2.488  17.121  0.00  0.00    +0.000 HD
ENDBRANCH  25  29
ENDBRANCH  20  22
ENDBRANCH  19  20
ENDBRANCH   1  19
TORSDOF 6
ENDMDL
