MODEL 1
REMARK VINA RESULT:    -8.136      0.000      0.000
REMARK INTER + INTRA:         -12.671
REMARK INTER:                 -11.941
REMARK INTRA:                  -0.730
REMARK UNBOUND:                -0.730
REMARK  Name = 
REMARK  9 active torsions:
REMARK  status: ('A' for Active; 'I' for Inactive)
REMARK    1  A    between atoms: C_1  and  C_2
REMARK    2  A    between atoms: C_2  and  O_3
REMARK    3  A    between atoms: O_3  and  C_4
REMARK    4  A    between atoms: C_4  and  C_5
REMARK    5  A    between atoms: C_5  and  N_6
REMARK    6  A    between atoms: C_5  and  C_19
REMARK    7  A    between atoms: C_7  and  C_9
REMARK    8  A    between atoms: C_22  and  O_23
REMARK    9  A    between atoms: O_23  and  C_24
REMARK                            x       y       z     vdW  Elec       q    Type
REMARK                         _______ _______ _______ _____ _____    ______ ____
ROOT
ATOM      1  C   UNL     1      46.589   7.789  12.716  0.00  0.00    +0.000 C 
ENDROOT
BRANCH   1   2
ATOM      2  C   UNL     1      46.029   6.611  11.930  0.00  0.00    +0.000 A 
ATOM      3  C   UNL     1      45.153   5.716  12.556  0.00  0.00    +0.000 A 
ATOM      4  C   UNL     1      44.613   4.638  11.851  0.00  0.00    +0.000 A 
ATOM      5  C   UNL     1      44.899   4.468  10.495  0.00  0.00    +0.000 A 
ATOM      6  C   UNL     1      45.797   5.331   9.868  0.00  0.00    +0.000 A 
ATOM      7  C   UNL     1      46.354   6.397  10.578  0.00  0.00    +0.000 A 
BRANCH   5   8
ATOM      8  O   UNL     1      44.389   3.440   9.732  0.00  0.00    +0.000 OA
BRANCH   8   9
ATOM      9  C   UNL     1      45.212   2.880   8.759  0.00  0.00    +0.000 A 
ATOM     10  C   UNL     1      45.492   3.669   7.654  0.00  0.00    +0.000 A 
ATOM     11  C   UNL     1      46.344   3.155   6.678  0.00  0.00    +0.000 A 
ATOM     12  C   UNL     1      46.874   1.879   6.839  0.00  0.00    +0.000 A 
ATOM     13  C   UNL     1      46.512   1.154   7.961  0.00  0.00    +0.000 A 
ATOM     14  N   UNL     1      45.679   1.620   8.912  0.00  0.00    +0.000 NA
ENDBRANCH   8   9
ENDBRANCH   5   8
ENDBRANCH   1   2
BRANCH   1  15
ATOM     15  N   UNL     1      47.090   7.335  14.005  0.00  0.00    +0.000 N 
ATOM     16  C   UNL     1      48.330   6.774  14.165  0.00  0.00    +0.000 C 
ATOM     17  O   UNL     1      49.154   6.711  13.261  0.00  0.00    +0.000 OA
ATOM     18  H   UNL     1      46.405   7.235  14.743  0.00  0.00    +0.000 HD
BRANCH  16  19
ATOM     19  C   UNL     1      48.641   6.289  15.518  0.00  0.00    +0.000 A 
ATOM     20  C   UNL     1      49.552   6.979  16.307  0.00  0.00    +0.000 A 
ATOM     21  S   UNL     1      49.806   6.266  17.836  0.00  0.00    +0.000 S 
ATOM     22  C   UNL     1      48.749   4.982  17.475  0.00  0.00    +0.000 A 
ATOM     23  N   UNL     1      48.553   3.968  18.359  0.00  0.00    +0.000 NA
ATOM     24  C   UNL     1      47.769   3.034  17.935  0.00  0.00    +0.000 A 
ATOM     25  N   UNL     1      47.143   3.035  16.715  0.00  0.00    +0.000 N 
ATOM     26  C   UNL     1      47.228   4.089  15.838  0.00  0.00    +0.000 A 
ATOM     27  O   UNL     1      46.509   4.142  14.845  0.00  0.00    +0.000 OA
ATOM     28  C   UNL     1      48.167   5.124  16.228  0.00  0.00    +0.000 A 
ATOM     29  H   UNL     1      46.501   2.298  16.463  0.00  0.00    +0.000 HD
ENDBRANCH  16  19
ENDBRANCH   1  15
BRANCH   1  30
ATOM     30  C   UNL     1      45.517   8.890  12.888  0.00  0.00    +0.000 C 
BRANCH  30  31
ATOM     31  O   UNL     1      45.866  10.062  12.138  0.00  0.00    +0.000 OA
BRANCH  31  33
ATOM     32  C   UNL     1      43.914   9.517  10.866  0.00  0.00    +0.000 C 
ATOM     33  C   UNL     1      44.722  10.629  11.503  0.00  0.00    +0.000 C 
ENDBRANCH  31  33
ENDBRANCH  30  31
ENDBRANCH   1  30
TORSDOF 8
ENDMDL
MODEL 2
REMARK VINA RESULT:    -8.082      1.412      2.166
REMARK INTER + INTRA:         -12.592
REMARK INTER:                 -11.482
REMARK INTRA:                  -1.110
REMARK UNBOUND:                -0.730
REMARK  Name = 
REMARK  9 active torsions:
REMARK  status: ('A' for Active; 'I' for Inactive)
REMARK    1  A    between atoms: C_1  and  C_2
REMARK    2  A    between atoms: C_2  and  O_3
REMARK    3  A    between atoms: O_3  and  C_4
REMARK    4  A    between atoms: C_4  and  C_5
REMARK    5  A    between atoms: C_5  and  N_6
REMARK    6  A    between atoms: C_5  and  C_19
REMARK    7  A    between atoms: C_7  and  C_9
REMARK    8  A    between atoms: C_22  and  O_23
REMARK    9  A    between atoms: O_23  and  C_24
REMARK                            x       y       z     vdW  Elec       q    Type
REMARK                         _______ _______ _______ _____ _____    ______ ____
ROOT
ATOM      1  C   UNL     1      46.466   6.967  12.762  0.00  0.00    +0.000 C 
ENDROOT
BRANCH   1   2
ATOM      2  C   UNL     1      45.953   5.963  11.739  0.00  0.00    +0.000 A 
ATOM      3  C   UNL     1      46.104   6.228  10.373  0.00  0.00    +0.000 A 
ATOM      4  C   UNL     1      45.657   5.315   9.415  0.00  0.00    +0.000 A 
ATOM      5  C   UNL     1      45.097   4.098   9.810  0.00  0.00    +0.000 A 
ATOM      6  C   UNL     1      44.908   3.835  11.166  0.00  0.00    +0.000 A 
ATOM      7  C   UNL     1      45.336   4.758  12.123  0.00  0.00    +0.000 A 
BRANCH   5   8
ATOM      8  O   UNL     1      44.650   3.142   8.923  0.00  0.00    +0.000 OA
BRANCH   8   9
ATOM      9  C   UNL     1      45.589   2.522   8.104  0.00  0.00    +0.000 A 
ATOM     10  C   UNL     1      45.993   3.225   6.980  0.00  0.00    +0.000 A 
ATOM     11  C   UNL     1      46.962   2.651   6.158  0.00  0.00    +0.000 A 
ATOM     12  C   UNL     1      47.479   1.402   6.485  0.00  0.00    +0.000 A 
ATOM     13  C   UNL     1      46.991   0.763   7.611  0.00  0.00    +0.000 A 
ATOM     14  N   UNL     1      46.045   1.287   8.414  0.00  0.00    +0.000 NA
ENDBRANCH   8   9
ENDBRANCH   5   8
ENDBRANCH   1   2
BRANCH   1  15
ATOM     15  N   UNL     1      46.677   6.309  14.043  0.00  0.00    +0.000 N 
ATOM     16  C   UNL     1      47.917   5.949  14.500  0.00  0.00    +0.000 C 
ATOM     17  O   UNL     1      48.954   6.250  13.920  0.00  0.00    +0.000 OA
ATOM     18  H   UNL     1      45.856   5.917  14.487  0.00  0.00    +0.000 HD
BRANCH  16  19
ATOM     19  C   UNL     1      47.940   5.214  15.773  0.00  0.00    +0.000 A 
ATOM     20  C   UNL     1      47.433   3.922  15.834  0.00  0.00    +0.000 A 
ATOM     21  S   UNL     1      47.522   3.228  17.389  0.00  0.00    +0.000 S 
ATOM     22  C   UNL     1      48.191   4.648  18.046  0.00  0.00    +0.000 A 
ATOM     23  N   UNL     1      48.464   4.743  19.375  0.00  0.00    +0.000 NA
ATOM     24  C   UNL     1      48.918   5.894  19.745  0.00  0.00    +0.000 A 
ATOM     25  N   UNL     1      49.148   6.951  18.902  0.00  0.00    +0.000 N 
ATOM     26  C   UNL     1      48.989   6.862  17.540  0.00  0.00    +0.000 A 
ATOM     27  O   UNL     1      49.383   7.758  16.799  0.00  0.00    +0.000 OA
ATOM     28  C   UNL     1      48.397   5.619  17.082  0.00  0.00    +0.000 A 
ATOM     29  H   UNL     1      49.552   7.808  19.247  0.00  0.00    +0.000 HD
ENDBRANCH  16  19
ENDBRANCH   1  15
BRANCH   1  30
ATOM     30  C   UNL     1      45.489   8.157  12.898  0.00  0.00    +0.000 C 
BRANCH  30  31
ATOM     31  O   UNL     1      46.121   9.383  12.504  0.00  0.00    +0.000 OA
BRANCH  31  33
ATOM     32  C   UNL     1      44.192   9.359  11.088  0.00  0.00    +0.000 C 
ATOM     33  C   UNL     1      45.219  10.224  11.790  0.00  0.00    +0.000 C 
ENDBRANCH  31  33
ENDBRANCH  30  31
ENDBRANCH   1  30
TORSDOF 8
ENDMDL
MODEL 3
REMARK VINA RESULT:    -7.834      2.525      4.584
REMARK INTER + INTRA:         -12.228
REMARK INTER:                 -10.920
REMARK INTRA:                  -1.308
REMARK UNBOUND:                -0.730
REMARK  Name = 
REMARK  9 active torsions:
REMARK  status: ('A' for Active; 'I' for Inactive)
REMARK    1  A    between atoms: C_1  and  C_2
REMARK    2  A    between atoms: C_2  and  O_3
REMARK    3  A    between atoms: O_3  and  C_4
REMARK    4  A    between atoms: C_4  and  C_5
REMARK    5  A    between atoms: C_5  and  N_6
REMARK    6  A    between atoms: C_5  and  C_19
REMARK    7  A    between atoms: C_7  and  C_9
REMARK    8  A    between atoms: C_22  and  O_23
REMARK    9  A    between atoms: O_23  and  C_24
REMARK                            x       y       z     vdW  Elec       q    Type
REMARK                         _______ _______ _______ _____ _____    ______ ____
ROOT
ATOM      1  C   UNL     1      46.358   5.728  13.629  0.00  0.00    +0.000 C 
ENDROOT
BRANCH   1   2
ATOM      2  C   UNL     1      45.875   5.112  12.324  0.00  0.00    +0.000 A 
ATOM      3  C   UNL     1      45.985   5.841  11.133  0.00  0.00    +0.000 A 
ATOM      4  C   UNL     1      45.565   5.291   9.920  0.00  0.00    +0.000 A 
ATOM      5  C   UNL     1      45.076   3.984   9.870  0.00  0.00    +0.000 A 
ATOM      6  C   UNL     1      44.928   3.259  11.052  0.00  0.00    +0.000 A 
ATOM      7  C   UNL     1      45.329   3.817  12.269  0.00  0.00    +0.000 A 
BRANCH   5   8
ATOM      8  O   UNL     1      44.659   3.369   8.709  0.00  0.00    +0.000 OA
BRANCH   8   9
ATOM      9  C   UNL     1      45.614   2.706   7.944  0.00  0.00    +0.000 A 
ATOM     10  C   UNL     1      46.100   3.381   6.835  0.00  0.00    +0.000 A 
ATOM     11  C   UNL     1      47.085   2.762   6.068  0.00  0.00    +0.000 A 
ATOM     12  C   UNL     1      47.539   1.498   6.432  0.00  0.00    +0.000 A 
ATOM     13  C   UNL     1      46.972   0.890   7.537  0.00  0.00    +0.000 A 
ATOM     14  N   UNL     1      46.008   1.458   8.288  0.00  0.00    +0.000 NA
ENDBRANCH   8   9
ENDBRANCH   5   8
ENDBRANCH   1   2
BRANCH   1  15
ATOM     15  N   UNL     1      47.630   6.405  13.421  0.00  0.00    +0.000 N 
ATOM     16  C   UNL     1      47.751   7.769  13.396  0.00  0.00    +0.000 C 
ATOM     17  O   UNL     1      46.823   8.525  13.656  0.00  0.00    +0.000 OA
ATOM     18  H   UNL     1      48.387   5.836  13.065  0.00  0.00    +0.000 HD
BRANCH  16  19
ATOM     19  C   UNL     1      49.093   8.285  13.085  0.00  0.00    +0.000 A 
ATOM     20  C   UNL     1      49.296   9.027  11.928  0.00  0.00    +0.000 A 
ATOM     21  S   UNL     1      50.913   9.527  11.715  0.00  0.00    +0.000 S 
ATOM     22  C   UNL     1      51.407   8.724  13.132  0.00  0.00    +0.000 A 
ATOM     23  N   UNL     1      52.713   8.710  13.509  0.00  0.00    +0.000 NA
ATOM     24  C   UNL     1      52.954   8.020  14.573  0.00  0.00    +0.000 A 
ATOM     25  N   UNL     1      52.002   7.361  15.309  0.00  0.00    +0.000 N 
ATOM     26  C   UNL     1      50.660   7.439  15.025  0.00  0.00    +0.000 A 
ATOM     27  O   UNL     1      49.824   6.999  15.808  0.00  0.00    +0.000 OA
ATOM     28  C   UNL     1      50.344   8.130  13.789  0.00  0.00    +0.000 A 
ATOM     29  H   UNL     1      52.249   6.880  16.161  0.00  0.00    +0.000 HD
ENDBRANCH  16  19
ENDBRANCH   1  15
BRANCH   1  30
ATOM     30  C   UNL     1      46.471   4.650  14.732  0.00  0.00    +0.000 C 
BRANCH  30  31
ATOM     31  O   UNL     1      47.818   4.561  15.220  0.00  0.00    +0.000 OA
BRANCH  31  33
ATOM     32  C   UNL     1      48.439   2.771  16.682  0.00  0.00    +0.000 C 
ATOM     33  C   UNL     1      47.845   4.162  16.589  0.00  0.00    +0.000 C 
ENDBRANCH  31  33
ENDBRANCH  30  31
ENDBRANCH   1  30
TORSDOF 8
ENDMDL
MODEL 4
REMARK VINA RESULT:    -7.381      2.565      4.653
REMARK INTER + INTRA:         -11.563
REMARK INTER:                 -11.259
REMARK INTRA:                  -0.304
REMARK UNBOUND:                -0.730
REMARK  Name = 
REMARK  9 active torsions:
REMARK  status: ('A' for Active; 'I' for Inactive)
REMARK    1  A    between atoms: C_1  and  C_2
REMARK    2  A    between atoms: C_2  and  O_3
REMARK    3  A    between atoms: O_3  and  C_4
REMARK    4  A    between atoms: C_4  and  C_5
REMARK    5  A    between atoms: C_5  and  N_6
REMARK    6  A    between atoms: C_5  and  C_19
REMARK    7  A    between atoms: C_7  and  C_9
REMARK    8  A    between atoms: C_22  and  O_23
REMARK    9  A    between atoms: O_23  and  C_24
REMARK                            x       y       z     vdW  Elec       q    Type
REMARK                         _______ _______ _______ _____ _____    ______ ____
ROOT
ATOM      1  C   UNL     1      45.897   5.239  13.667  0.00  0.00    +0.000 C 
ENDROOT
BRANCH   1   2
ATOM      2  C   UNL     1      45.606   4.718  12.266  0.00  0.00    +0.000 A 
ATOM      3  C   UNL     1      45.220   3.384  12.090  0.00  0.00    +0.000 A 
ATOM      4  C   UNL     1      44.931   2.888  10.817  0.00  0.00    +0.000 A 
ATOM      5  C   UNL     1      44.974   3.731   9.705  0.00  0.00    +0.000 A 
ATOM      6  C   UNL     1      45.391   5.053   9.860  0.00  0.00    +0.000 A 
ATOM      7  C   UNL     1      45.700   5.544  11.131  0.00  0.00    +0.000 A 
BRANCH   5   8
ATOM      8  O   UNL     1      44.686   3.317   8.423  0.00  0.00    +0.000 OA
BRANCH   8   9
ATOM      9  C   UNL     1      45.712   2.750   7.674  0.00  0.00    +0.000 A 
ATOM     10  C   UNL     1      46.107   3.440   6.538  0.00  0.00    +0.000 A 
ATOM     11  C   UNL     1      47.159   2.921   5.785  0.00  0.00    +0.000 A 
ATOM     12  C   UNL     1      47.767   1.737   6.190  0.00  0.00    +0.000 A 
ATOM     13  C   UNL     1      47.284   1.104   7.321  0.00  0.00    +0.000 A 
ATOM     14  N   UNL     1      46.259   1.574   8.059  0.00  0.00    +0.000 NA
ENDBRANCH   8   9
ENDBRANCH   5   8
ENDBRANCH   1   2
BRANCH   1  15
ATOM     15  N   UNL     1      46.380   6.610  13.599  0.00  0.00    +0.000 N 
ATOM     16  C   UNL     1      47.704   6.927  13.453  0.00  0.00    +0.000 C 
ATOM     17  O   UNL     1      48.573   6.085  13.259  0.00  0.00    +0.000 OA
ATOM     18  H   UNL     1      45.731   7.329  13.892  0.00  0.00    +0.000 HD
BRANCH  16  19
ATOM     19  C   UNL     1      48.026   8.361  13.492  0.00  0.00    +0.000 A 
ATOM     20  C   UNL     1      47.836   9.143  12.361  0.00  0.00    +0.000 A 
ATOM     21  S   UNL     1      48.279  10.776  12.579  0.00  0.00    +0.000 S 
ATOM     22  C   UNL     1      48.791  10.482  14.175  0.00  0.00    +0.000 A 
ATOM     23  N   UNL     1      49.342  11.472  14.926  0.00  0.00    +0.000 NA
ATOM     24  C   UNL     1      49.735  11.097  16.098  0.00  0.00    +0.000 A 
ATOM     25  N   UNL     1      49.605   9.826  16.595  0.00  0.00    +0.000 N 
ATOM     26  C   UNL     1      48.959   8.824  15.912  0.00  0.00    +0.000 A 
ATOM     27  O   UNL     1      48.692   7.758  16.459  0.00  0.00    +0.000 OA
ATOM     28  C   UNL     1      48.576   9.169  14.555  0.00  0.00    +0.000 A 
ATOM     29  H   UNL     1      49.888   9.610  17.539  0.00  0.00    +0.000 HD
ENDBRANCH  16  19
ENDBRANCH   1  15
BRANCH   1  30
ATOM     30  C   UNL     1      46.912   4.323  14.390  0.00  0.00    +0.000 C 
BRANCH  30  31
ATOM     31  O   UNL     1      46.436   3.965  15.695  0.00  0.00    +0.000 OA
BRANCH  31  33
ATOM     32  C   UNL     1      47.422   2.995  17.648  0.00  0.00    +0.000 C 
ATOM     33  C   UNL     1      47.442   4.165  16.685  0.00  0.00    +0.000 C 
ENDBRANCH  31  33
ENDBRANCH  30  31
ENDBRANCH   1  30
TORSDOF 8
ENDMDL
MODEL 5
REMARK VINA RESULT:    -7.342      2.329      3.020
REMARK INTER + INTRA:         -11.507
REMARK INTER:                  -9.846
REMARK INTRA:                  -1.661
REMARK UNBOUND:                -0.730
REMARK  Name = 
REMARK  9 active torsions:
REMARK  status: ('A' for Active; 'I' for Inactive)
REMARK    1  A    between atoms: C_1  and  C_2
REMARK    2  A    between atoms: C_2  and  O_3
REMARK    3  A    between atoms: O_3  and  C_4
REMARK    4  A    between atoms: C_4  and  C_5
REMARK    5  A    between atoms: C_5  and  N_6
REMARK    6  A    between atoms: C_5  and  C_19
REMARK    7  A    between atoms: C_7  and  C_9
REMARK    8  A    between atoms: C_22  and  O_23
REMARK    9  A    between atoms: O_23  and  C_24
REMARK                            x       y       z     vdW  Elec       q    Type
REMARK                         _______ _______ _______ _____ _____    ______ ____
ROOT
ATOM      1  C   UNL     1      47.912   7.681  13.860  0.00  0.00    +0.000 C 
ENDROOT
BRANCH   1   2
ATOM      2  C   UNL     1      46.922   6.906  13.002  0.00  0.00    +0.000 A 
ATOM      3  C   UNL     1      46.115   7.591  12.085  0.00  0.00    +0.000 A 
ATOM      4  C   UNL     1      45.211   6.901  11.275  0.00  0.00    +0.000 A 
ATOM      5  C   UNL     1      45.136   5.508  11.331  0.00  0.00    +0.000 A 
ATOM      6  C   UNL     1      45.907   4.814  12.264  0.00  0.00    +0.000 A 
ATOM      7  C   UNL     1      46.796   5.507  13.089  0.00  0.00    +0.000 A 
BRANCH   5   8
ATOM      8  O   UNL     1      44.282   4.758  10.551  0.00  0.00    +0.000 OA
BRANCH   8   9
ATOM      9  C   UNL     1      44.842   3.894   9.616  0.00  0.00    +0.000 A 
ATOM     10  C   UNL     1      45.563   4.476   8.585  0.00  0.00    +0.000 A 
ATOM     11  C   UNL     1      46.171   3.639   7.652  0.00  0.00    +0.000 A 
ATOM     12  C   UNL     1      46.030   2.260   7.780  0.00  0.00    +0.000 A 
ATOM     13  C   UNL     1      45.267   1.773   8.825  0.00  0.00    +0.000 A 
ATOM     14  N   UNL     1      44.655   2.559   9.732  0.00  0.00    +0.000 NA
ENDBRANCH   8   9
ENDBRANCH   5   8
ENDBRANCH   1   2
BRANCH   1  15
ATOM     15  N   UNL     1      47.934   7.137  15.209  0.00  0.00    +0.000 N 
ATOM     16  C   UNL     1      49.063   6.611  15.781  0.00  0.00    +0.000 C 
ATOM     17  O   UNL     1      50.164   6.657  15.246  0.00  0.00    +0.000 OA
ATOM     18  H   UNL     1      47.034   6.949  15.632  0.00  0.00    +0.000 HD
BRANCH  16  19
ATOM     19  C   UNL     1      48.887   6.024  17.118  0.00  0.00    +0.000 A 
ATOM     20  C   UNL     1      49.159   4.677  17.322  0.00  0.00    +0.000 A 
ATOM     21  S   UNL     1      48.882   4.161  18.924  0.00  0.00    +0.000 S 
ATOM     22  C   UNL     1      48.338   5.706  19.387  0.00  0.00    +0.000 A 
ATOM     23  N   UNL     1      47.887   5.940  20.648  0.00  0.00    +0.000 NA
ATOM     24  C   UNL     1      47.455   7.141  20.846  0.00  0.00    +0.000 A 
ATOM     25  N   UNL     1      47.455   8.136  19.902  0.00  0.00    +0.000 N 
ATOM     26  C   UNL     1      47.999   7.973  18.651  0.00  0.00    +0.000 A 
ATOM     27  O   UNL     1      48.155   8.932  17.901  0.00  0.00    +0.000 OA
ATOM     28  C   UNL     1      48.419   6.617  18.348  0.00  0.00    +0.000 A 
ATOM     29  H   UNL     1      47.149   9.069  20.136  0.00  0.00    +0.000 HD
ENDBRANCH  16  19
ENDBRANCH   1  15
BRANCH   1  30
ATOM     30  C   UNL     1      47.565   9.187  13.869  0.00  0.00    +0.000 C 
BRANCH  30  31
ATOM     31  O   UNL     1      48.744   9.983  13.684  0.00  0.00    +0.000 OA
BRANCH  31  33
ATOM     32  C   UNL     1      49.215  10.051  11.339  0.00  0.00    +0.000 C 
ATOM     33  C   UNL     1      49.585   9.434  12.672  0.00  0.00    +0.000 C 
ENDBRANCH  31  33
ENDBRANCH  30  31
ENDBRANCH   1  30
TORSDOF 8
ENDMDL
MODEL 6
REMARK VINA RESULT:    -7.240      2.673      5.217
REMARK INTER + INTRA:         -11.357
REMARK INTER:                 -10.078
REMARK INTRA:                  -1.279
REMARK UNBOUND:                -0.730
REMARK  Name = 
REMARK  9 active torsions:
REMARK  status: ('A' for Active; 'I' for Inactive)
REMARK    1  A    between atoms: C_1  and  C_2
REMARK    2  A    between atoms: C_2  and  O_3
REMARK    3  A    between atoms: O_3  and  C_4
REMARK    4  A    between atoms: C_4  and  C_5
REMARK    5  A    between atoms: C_5  and  N_6
REMARK    6  A    between atoms: C_5  and  C_19
REMARK    7  A    between atoms: C_7  and  C_9
REMARK    8  A    between atoms: C_22  and  O_23
REMARK    9  A    between atoms: O_23  and  C_24
REMARK                            x       y       z     vdW  Elec       q    Type
REMARK                         _______ _______ _______ _____ _____    ______ ____
ROOT
ATOM      1  C   UNL     1      47.093   5.637  14.517  0.00  0.00    +0.000 C 
ENDROOT
BRANCH   1   2
ATOM      2  C   UNL     1      46.399   5.242  13.221  0.00  0.00    +0.000 A 
ATOM      3  C   UNL     1      46.429   6.114  12.126  0.00  0.00    +0.000 A 
ATOM      4  C   UNL     1      45.814   5.766  10.921  0.00  0.00    +0.000 A 
ATOM      5  C   UNL     1      45.205   4.518  10.775  0.00  0.00    +0.000 A 
ATOM      6  C   UNL     1      45.137   3.654  11.867  0.00  0.00    +0.000 A 
ATOM      7  C   UNL     1      45.734   4.011  13.079  0.00  0.00    +0.000 A 
BRANCH   5   8
ATOM      8  O   UNL     1      44.595   4.100   9.612  0.00  0.00    +0.000 OA
BRANCH   8   9
ATOM      9  C   UNL     1      45.381   3.467   8.654  0.00  0.00    +0.000 A 
ATOM     10  C   UNL     1      45.613   2.112   8.837  0.00  0.00    +0.000 A 
ATOM     11  C   UNL     1      46.363   1.438   7.875  0.00  0.00    +0.000 A 
ATOM     12  C   UNL     1      46.856   2.140   6.780  0.00  0.00    +0.000 A 
ATOM     13  C   UNL     1      46.599   3.497   6.700  0.00  0.00    +0.000 A 
ATOM     14  N   UNL     1      45.890   4.177   7.621  0.00  0.00    +0.000 NA
ENDBRANCH   8   9
ENDBRANCH   5   8
ENDBRANCH   1   2
BRANCH   1  15
ATOM     15  N   UNL     1      48.394   6.222  14.227  0.00  0.00    +0.000 N 
ATOM     16  C   UNL     1      48.725   7.506  14.570  0.00  0.00    +0.000 C 
ATOM     17  O   UNL     1      47.996   8.226  15.242  0.00  0.00    +0.000 OA
ATOM     18  H   UNL     1      48.970   5.727  13.559  0.00  0.00    +0.000 HD
BRANCH  16  19
ATOM     19  C   UNL     1      50.048   7.966  14.122  0.00  0.00    +0.000 A 
ATOM     20  C   UNL     1      51.166   7.730  14.912  0.00  0.00    +0.000 A 
ATOM     21  S   UNL     1      52.612   8.347  14.250  0.00  0.00    +0.000 S 
ATOM     22  C   UNL     1      51.786   8.998  12.911  0.00  0.00    +0.000 A 
ATOM     23  N   UNL     1      52.446   9.718  11.965  0.00  0.00    +0.000 NA
ATOM     24  C   UNL     1      51.689  10.197  11.036  0.00  0.00    +0.000 A 
ATOM     25  N   UNL     1      50.334  10.001  10.953  0.00  0.00    +0.000 N 
ATOM     26  C   UNL     1      49.647   9.192  11.826  0.00  0.00    +0.000 A 
ATOM     27  O   UNL     1      48.477   8.886  11.614  0.00  0.00    +0.000 OA
ATOM     28  C   UNL     1      50.435   8.701  12.940  0.00  0.00    +0.000 A 
ATOM     29  H   UNL     1      49.807  10.362  10.172  0.00  0.00    +0.000 HD
ENDBRANCH  16  19
ENDBRANCH   1  15
BRANCH   1  30
ATOM     30  C   UNL     1      47.225   4.419  15.460  0.00  0.00    +0.000 C 
BRANCH  30  31
ATOM     31  O   UNL     1      48.556   4.323  15.986  0.00  0.00    +0.000 OA
BRANCH  31  33
ATOM     32  C   UNL     1      47.187   3.052  17.481  0.00  0.00    +0.000 C 
ATOM     33  C   UNL     1      48.598   3.480  17.135  0.00  0.00    +0.000 C 
ENDBRANCH  31  33
ENDBRANCH  30  31
ENDBRANCH   1  30
TORSDOF 8
ENDMDL
MODEL 7
REMARK VINA RESULT:    -7.126      2.046      2.673
REMARK INTER + INTRA:         -11.188
REMARK INTER:                  -9.898
REMARK INTRA:                  -1.290
REMARK UNBOUND:                -0.730
REMARK  Name = 
REMARK  9 active torsions:
REMARK  status: ('A' for Active; 'I' for Inactive)
REMARK    1  A    between atoms: C_1  and  C_2
REMARK    2  A    between atoms: C_2  and  O_3
REMARK    3  A    between atoms: O_3  and  C_4
REMARK    4  A    between atoms: C_4  and  C_5
REMARK    5  A    between atoms: C_5  and  N_6
REMARK    6  A    between atoms: C_5  and  C_19
REMARK    7  A    between atoms: C_7  and  C_9
REMARK    8  A    between atoms: C_22  and  O_23
REMARK    9  A    between atoms: O_23  and  C_24
REMARK                            x       y       z     vdW  Elec       q    Type
REMARK                         _______ _______ _______ _____ _____    ______ ____
ROOT
ATOM      1  C   UNL     1      48.287   8.134  13.736  0.00  0.00    +0.000 C 
ENDROOT
BRANCH   1   2
ATOM      2  C   UNL     1      47.240   7.323  12.984  0.00  0.00    +0.000 A 
ATOM      3  C   UNL     1      46.295   7.982  12.188  0.00  0.00    +0.000 A 
ATOM      4  C   UNL     1      45.336   7.259  11.476  0.00  0.00    +0.000 A 
ATOM      5  C   UNL     1      45.339   5.863  11.506  0.00  0.00    +0.000 A 
ATOM      6  C   UNL     1      46.252   5.195  12.321  0.00  0.00    +0.000 A 
ATOM      7  C   UNL     1      47.198   5.919  13.051  0.00  0.00    +0.000 A 
BRANCH   5   8
ATOM      8  O   UNL     1      44.437   5.084  10.815  0.00  0.00    +0.000 OA
BRANCH   8   9
ATOM      9  C   UNL     1      44.926   4.247   9.817  0.00  0.00    +0.000 A 
ATOM     10  C   UNL     1      44.697   2.889   9.976  0.00  0.00    +0.000 A 
ATOM     11  C   UNL     1      45.139   2.025   8.976  0.00  0.00    +0.000 A 
ATOM     12  C   UNL     1      45.795   2.547   7.866  0.00  0.00    +0.000 A 
ATOM     13  C   UNL     1      46.005   3.913   7.810  0.00  0.00    +0.000 A 
ATOM     14  N   UNL     1      45.603   4.770   8.769  0.00  0.00    +0.000 NA
ENDBRANCH   8   9
ENDBRANCH   5   8
ENDBRANCH   1   2
BRANCH   1  15
ATOM     15  N   UNL     1      48.147   7.922  15.169  0.00  0.00    +0.000 N 
ATOM     16  C   UNL     1      49.036   7.182  15.902  0.00  0.00    +0.000 C 
ATOM     17  O   UNL     1      50.075   6.733  15.432  0.00  0.00    +0.000 OA
ATOM     18  H   UNL     1      47.245   8.148  15.570  0.00  0.00    +0.000 HD
BRANCH  16  19
ATOM     19  C   UNL     1      48.694   6.994  17.320  0.00  0.00    +0.000 A 
ATOM     20  C   UNL     1      48.310   8.085  18.088  0.00  0.00    +0.000 A 
ATOM     21  S   UNL     1      47.971   7.689  19.712  0.00  0.00    +0.000 S 
ATOM     22  C   UNL     1      48.377   6.057  19.458  0.00  0.00    +0.000 A 
ATOM     23  N   UNL     1      48.354   5.162  20.481  0.00  0.00    +0.000 NA
ATOM     24  C   UNL     1      48.736   3.972  20.159  0.00  0.00    +0.000 A 
ATOM     25  N   UNL     1      49.118   3.589  18.898  0.00  0.00    +0.000 N 
ATOM     26  C   UNL     1      49.053   4.432  17.815  0.00  0.00    +0.000 A 
ATOM     27  O   UNL     1      49.218   4.008  16.675  0.00  0.00    +0.000 OA
ATOM     28  C   UNL     1      48.714   5.805  18.139  0.00  0.00    +0.000 A 
ATOM     29  H   UNL     1      49.359   2.629  18.701  0.00  0.00    +0.000 HD
ENDBRANCH  16  19
ENDBRANCH   1  15
BRANCH   1  30
ATOM     30  C   UNL     1      48.175   9.635  13.378  0.00  0.00    +0.000 C 
BRANCH  30  31
ATOM     31  O   UNL     1      49.389  10.106  12.777  0.00  0.00    +0.000 OA
BRANCH  31  33
ATOM     32  C   UNL     1      48.097  11.100  11.024  0.00  0.00    +0.000 C 
ATOM     33  C   UNL     1      49.264  10.193  11.359  0.00  0.00    +0.000 C 
ENDBRANCH  31  33
ENDBRANCH  30  31
ENDBRANCH   1  30
TORSDOF 8
ENDMDL
MODEL 8
REMARK VINA RESULT:    -7.096      3.125      7.477
REMARK INTER + INTRA:         -11.145
REMARK INTER:                  -9.793
REMARK INTRA:                  -1.353
REMARK UNBOUND:                -0.730
REMARK  Name = 
REMARK  9 active torsions:
REMARK  status: ('A' for Active; 'I' for Inactive)
REMARK    1  A    between atoms: C_1  and  C_2
REMARK    2  A    between atoms: C_2  and  O_3
REMARK    3  A    between atoms: O_3  and  C_4
REMARK    4  A    between atoms: C_4  and  C_5
REMARK    5  A    between atoms: C_5  and  N_6
REMARK    6  A    between atoms: C_5  and  C_19
REMARK    7  A    between atoms: C_7  and  C_9
REMARK    8  A    between atoms: C_22  and  O_23
REMARK    9  A    between atoms: O_23  and  C_24
REMARK                            x       y       z     vdW  Elec       q    Type
REMARK                         _______ _______ _______ _____ _____    ______ ____
ROOT
ATOM      1  C   UNL     1      47.946   7.254  13.412  0.00  0.00    +0.000 C 
ENDROOT
BRANCH   1   2
ATOM      2  C   UNL     1      48.343   6.541  14.698  0.00  0.00    +0.000 A 
ATOM      3  C   UNL     1      47.595   5.443  15.139  0.00  0.00    +0.000 A 
ATOM      4  C   UNL     1      47.949   4.762  16.306  0.00  0.00    +0.000 A 
ATOM      5  C   UNL     1      49.088   5.136  17.023  0.00  0.00    +0.000 A 
ATOM      6  C   UNL     1      49.822   6.250  16.615  0.00  0.00    +0.000 A 
ATOM      7  C   UNL     1      49.455   6.944  15.459  0.00  0.00    +0.000 A 
BRANCH   5   8
ATOM      8  O   UNL     1      49.508   4.502  18.171  0.00  0.00    +0.000 OA
BRANCH   8   9
ATOM      9  C   UNL     1      50.563   3.600  18.070  0.00  0.00    +0.000 A 
ATOM     10  C   UNL     1      50.284   2.382  17.469  0.00  0.00    +0.000 A 
ATOM     11  C   UNL     1      51.327   1.470  17.315  0.00  0.00    +0.000 A 
ATOM     12  C   UNL     1      52.598   1.805  17.770  0.00  0.00    +0.000 A 
ATOM     13  C   UNL     1      52.773   3.032  18.385  0.00  0.00    +0.000 A 
ATOM     14  N   UNL     1      51.781   3.926  18.561  0.00  0.00    +0.000 NA
ENDBRANCH   8   9
ENDBRANCH   5   8
ENDBRANCH   1   2
BRANCH   1  15
ATOM     15  N   UNL     1      47.316   6.314  12.496  0.00  0.00    +0.000 N 
ATOM     16  C   UNL     1      46.220   6.634  11.740  0.00  0.00    +0.000 C 
ATOM     17  O   UNL     1      45.750   7.765  11.693  0.00  0.00    +0.000 OA
ATOM     18  H   UNL     1      47.574   5.342  12.603  0.00  0.00    +0.000 HD
BRANCH  16  19
ATOM     19  C   UNL     1      45.657   5.540  10.936  0.00  0.00    +0.000 A 
ATOM     20  C   UNL     1      45.761   5.575   9.552  0.00  0.00    +0.000 A 
ATOM     21  S   UNL     1      45.038   4.237   8.779  0.00  0.00    +0.000 S 
ATOM     22  C   UNL     1      44.513   3.592  10.264  0.00  0.00    +0.000 A 
ATOM     23  N   UNL     1      43.770   2.455  10.309  0.00  0.00    +0.000 NA
ATOM     24  C   UNL     1      43.396   2.109  11.496  0.00  0.00    +0.000 A 
ATOM     25  N   UNL     1      43.718   2.785  12.644  0.00  0.00    +0.000 N 
ATOM     26  C   UNL     1      44.555   3.875  12.654  0.00  0.00    +0.000 A 
ATOM     27  O   UNL     1      44.975   4.338  13.711  0.00  0.00    +0.000 OA
ATOM     28  C   UNL     1      44.932   4.357  11.339  0.00  0.00    +0.000 A 
ATOM     29  H   UNL     1      43.436   2.434  13.547  0.00  0.00    +0.000 HD
ENDBRANCH  16  19
ENDBRANCH   1  15
BRANCH   1  30
ATOM     30  C   UNL     1      49.175   7.931  12.762  0.00  0.00    +0.000 C 
BRANCH  30  31
ATOM     31  O   UNL     1      49.008   9.356  12.720  0.00  0.00    +0.000 OA
BRANCH  31  33
ATOM     32  C   UNL     1      48.042  10.947  11.216  0.00  0.00    +0.000 C 
ATOM     33  C   UNL     1      49.065   9.842  11.381  0.00  0.00    +0.000 C 
ENDBRANCH  31  33
ENDBRANCH  30  31
ENDBRANCH   1  30
TORSDOF 8
ENDMDL
MODEL 9
REMARK VINA RESULT:    -6.653      2.924      8.109
REMARK INTER + INTRA:         -10.495
REMARK INTER:                  -8.852
REMARK INTRA:                  -1.643
REMARK UNBOUND:                -0.730
REMARK  Name = 
REMARK  9 active torsions:
REMARK  status: ('A' for Active; 'I' for Inactive)
REMARK    1  A    between atoms: C_1  and  C_2
REMARK    2  A    between atoms: C_2  and  O_3
REMARK    3  A    between atoms: O_3  and  C_4
REMARK    4  A    between atoms: C_4  and  C_5
REMARK    5  A    between atoms: C_5  and  N_6
REMARK    6  A    between atoms: C_5  and  C_19
REMARK    7  A    between atoms: C_7  and  C_9
REMARK    8  A    between atoms: C_22  and  O_23
REMARK    9  A    between atoms: O_23  and  C_24
REMARK                            x       y       z     vdW  Elec       q    Type
REMARK                         _______ _______ _______ _____ _____    ______ ____
ROOT
ATOM      1  C   UNL     1      47.764   7.763  12.146  0.00  0.00    +0.000 C 
ENDROOT
BRANCH   1   2
ATOM      2  C   UNL     1      48.112   7.830  13.626  0.00  0.00    +0.000 A 
ATOM      3  C   UNL     1      48.693   6.719  14.251  0.00  0.00    +0.000 A 
ATOM      4  C   UNL     1      49.037   6.762  15.604  0.00  0.00    +0.000 A 
ATOM      5  C   UNL     1      48.854   7.933  16.342  0.00  0.00    +0.000 A 
ATOM      6  C   UNL     1      48.244   9.035  15.742  0.00  0.00    +0.000 A 
ATOM      7  C   UNL     1      47.881   8.985  14.394  0.00  0.00    +0.000 A 
BRANCH   5   8
ATOM      8  O   UNL     1      49.185   8.055  17.674  0.00  0.00    +0.000 OA
BRANCH   8   9
ATOM      9  C   UNL     1      49.102   6.919  18.473  0.00  0.00    +0.000 A 
ATOM     10  C   UNL     1      47.831   6.525  18.863  0.00  0.00    +0.000 A 
ATOM     11  C   UNL     1      47.707   5.369  19.631  0.00  0.00    +0.000 A 
ATOM     12  C   UNL     1      48.850   4.659  19.984  0.00  0.00    +0.000 A 
ATOM     13  C   UNL     1      50.078   5.147  19.574  0.00  0.00    +0.000 A 
ATOM     14  N   UNL     1      50.229   6.269  18.844  0.00  0.00    +0.000 NA
ENDBRANCH   8   9
ENDBRANCH   5   8
ENDBRANCH   1   2
BRANCH   1  15
ATOM     15  N   UNL     1      46.950   6.587  11.878  0.00  0.00    +0.000 N 
ATOM     16  C   UNL     1      45.582   6.629  11.809  0.00  0.00    +0.000 C 
ATOM     17  O   UNL     1      44.945   7.674  11.858  0.00  0.00    +0.000 OA
ATOM     18  H   UNL     1      47.411   5.691  11.970  0.00  0.00    +0.000 HD
BRANCH  16  19
ATOM     19  C   UNL     1      44.913   5.334  11.619  0.00  0.00    +0.000 A 
ATOM     20  C   UNL     1      44.153   4.791  12.648  0.00  0.00    +0.000 A 
ATOM     21  S   UNL     1      43.467   3.278  12.263  0.00  0.00    +0.000 S 
ATOM     22  C   UNL     1      44.205   3.270  10.730  0.00  0.00    +0.000 A 
ATOM     23  N   UNL     1      44.065   2.209   9.891  0.00  0.00    +0.000 NA
ATOM     24  C   UNL     1      44.721   2.314   8.784  0.00  0.00    +0.000 A 
ATOM     25  N   UNL     1      45.486   3.395   8.429  0.00  0.00    +0.000 N 
ATOM     26  C   UNL     1      45.567   4.531   9.197  0.00  0.00    +0.000 A 
ATOM     27  O   UNL     1      46.102   5.548   8.765  0.00  0.00    +0.000 OA
ATOM     28  C   UNL     1      44.920   4.431  10.492  0.00  0.00    +0.000 A 
ATOM     29  H   UNL     1      45.934   3.436   7.526  0.00  0.00    +0.000 HD
ENDBRANCH  16  19
ENDBRANCH   1  15
BRANCH   1  30
ATOM     30  C   UNL     1      49.047   7.765  11.283  0.00  0.00    +0.000 C 
BRANCH  30  31
ATOM     31  O   UNL     1      49.776   8.989  11.456  0.00  0.00    +0.000 OA
BRANCH  31  33
ATOM     32  C   UNL     1      51.575   8.861  13.030  0.00  0.00    +0.000 C 
ATOM     33  C   UNL     1      51.176   8.744  11.573  0.00  0.00    +0.000 C 
ENDBRANCH  31  33
ENDBRANCH  30  31
ENDBRANCH   1  30
TORSDOF 8
ENDMDL
