MODEL 1
REMARK VINA RESULT:    -8.456      0.000      0.000
REMARK INTER + INTRA:         -13.798
REMARK INTER:                 -12.411
REMARK INTRA:                  -1.387
REMARK UNBOUND:                -1.387
REMARK  Name = 
REMARK  9 active torsions:
REMARK  status: ('A' for Active; 'I' for Inactive)
REMARK    1  A    between atoms: C_1  and  O_2
REMARK    2  A    between atoms: O_2  and  C_3
REMARK    3  A    between atoms: C_10  and  C_11
REMARK    4  A    between atoms: N_13  and  C_14
REMARK    5  A    between atoms: C_14  and  C_15
REMARK    6  A    between atoms: C_18  and  C_19
REMARK    7  A    between atoms: C_19  and  N_20
REMARK    8  A    between atoms: N_20  and  C_21
REMARK    9  A    between atoms: C_21  and  C_22
REMARK                            x       y       z     vdW  Elec       q    Type
REMARK                         _______ _______ _______ _____ _____    ______ ____
ROOT
ATOM      1  C   UNL     1      47.070   6.507  12.849  0.00  0.00    +0.000 A 
ATOM      2  C   UNL     1      46.528   5.462  13.610  0.00  0.00    +0.000 A 
ATOM      3  C   UNL     1      45.601   4.576  13.049  0.00  0.00    +0.000 A 
ATOM      4  C   UNL     1      45.198   4.705  11.712  0.00  0.00    +0.000 A 
ATOM      5  C   UNL     1      45.740   5.751  10.953  0.00  0.00    +0.000 A 
ATOM      6  C   UNL     1      46.666   6.639  11.514  0.00  0.00    +0.000 A 
ENDROOT
BRANCH   1   7
ATOM      7  C   UNL     1      48.110   7.427  13.443  0.00  0.00    +0.000 C 
BRANCH   7  10
ATOM      8  C   UNL     1      49.032   7.033  15.701  0.00  0.00    +0.000 C 
ATOM      9  O   UNL     1      50.093   6.617  15.241  0.00  0.00    +0.000 OA
ATOM     10  N   UNL     1      48.016   7.447  14.884  0.00  0.00    +0.000 N 
ATOM     11  H   UNL     1      47.179   7.844  15.283  0.00  0.00    +0.000 HD
BRANCH   8  19
ATOM     12  C   UNL     1      48.908   4.628  18.166  0.00  0.00    +0.000 A 
ATOM     13  N   UNL     1      48.891   3.920  19.313  0.00  0.00    +0.000 NA
ATOM     14  C   UNL     1      48.721   4.582  20.459  0.00  0.00    +0.000 A 
ATOM     15  N   UNL     1      48.547   5.895  20.608  0.00  0.00    +0.000 NA
ATOM     16  C   UNL     1      48.581   6.563  19.443  0.00  0.00    +0.000 A 
ATOM     17  S   UNL     1      48.366   8.247  19.439  0.00  0.00    +0.000 S 
ATOM     18  C   UNL     1      48.557   8.318  17.752  0.00  0.00    +0.000 A 
ATOM     19  C   UNL     1      48.792   7.082  17.158  0.00  0.00    +0.000 A 
ATOM     20  C   UNL     1      48.774   6.028  18.172  0.00  0.00    +0.000 A 
BRANCH  12  22
ATOM     21  C   UNL     1      47.804   3.459  16.448  0.00  0.00    +0.000 C 
ATOM     22  O   UNL     1      49.035   3.944  16.975  0.00  0.00    +0.000 OA
ENDBRANCH  12  22
ENDBRANCH   8  19
ENDBRANCH   7  10
ENDBRANCH   1   7
BRANCH   4  23
ATOM     23  C   UNL     1      44.213   3.728  11.102  0.00  0.00    +0.000 C 
BRANCH  23  24
ATOM     24  N   UNL     1      44.892   2.513  10.664  0.00  0.00    +0.000 NA
ATOM     25  H   UNL     1      44.684   1.766  11.328  0.00  0.00    +0.000 HD
BRANCH  24  26
ATOM     26  C   UNL     1      44.467   2.083   9.331  0.00  0.00    +0.000 C 
BRANCH  26  27
ATOM     27  C   UNL     1      45.611   2.234   8.358  0.00  0.00    +0.000 A 
ATOM     28  C   UNL     1      46.435   1.140   8.051  0.00  0.00    +0.000 A 
ATOM     29  C   UNL     1      47.432   1.250   7.078  0.00  0.00    +0.000 A 
ATOM     30  C   UNL     1      47.628   2.459   6.412  0.00  0.00    +0.000 A 
ATOM     31  C   UNL     1      46.841   3.564   6.735  0.00  0.00    +0.000 A 
ATOM     32  C   UNL     1      45.847   3.446   7.705  0.00  0.00    +0.000 A 
ATOM     33  F   UNL     1      45.097   4.521   7.988  0.00  0.00    +0.000 F 
ENDBRANCH  26  27
ENDBRANCH  24  26
ENDBRANCH  23  24
ENDBRANCH   4  23
TORSDOF 8
ENDMDL
MODEL 2
REMARK VINA RESULT:    -8.119      1.959      2.457
REMARK INTER + INTRA:         -13.303
REMARK INTER:                 -11.943
REMARK INTRA:                  -1.360
REMARK UNBOUND:                -1.387
REMARK  Name = 
REMARK  9 active torsions:
REMARK  status: ('A' for Active; 'I' for Inactive)
REMARK    1  A    between atoms: C_1  and  O_2
REMARK    2  A    between atoms: O_2  and  C_3
REMARK    3  A    between atoms: C_10  and  C_11
REMARK    4  A    between atoms: N_13  and  C_14
REMARK    5  A    between atoms: C_14  and  C_15
REMARK    6  A    between atoms: C_18  and  C_19
REMARK    7  A    between atoms: C_19  and  N_20
REMARK    8  A    between atoms: N_20  and  C_21
REMARK    9  A    between atoms: C_21  and  C_22
REMARK                            x       y       z     vdW  Elec       q    Type
REMARK                         _______ _______ _______ _____ _____    ______ ____
ROOT
ATOM      1  C   UNL     1      46.531   6.321  12.551  0.00  0.00    +0.000 A 
ATOM      2  C   UNL     1      45.782   6.455  11.375  0.00  0.00    +0.000 A 
ATOM      3  C   UNL     1      44.953   5.417  10.933  0.00  0.00    +0.000 A 
ATOM      4  C   UNL     1      44.843   4.223  11.661  0.00  0.00    +0.000 A 
ATOM      5  C   UNL     1      45.594   4.090  12.837  0.00  0.00    +0.000 A 
ATOM      6  C   UNL     1      46.426   5.127  13.278  0.00  0.00    +0.000 A 
ENDROOT
BRANCH   1   7
ATOM      7  C   UNL     1      47.382   7.464  13.052  0.00  0.00    +0.000 C 
BRANCH   7  10
ATOM      8  C   UNL     1      48.876   7.570  15.018  0.00  0.00    +0.000 C 
ATOM      9  O   UNL     1      48.305   8.567  15.450  0.00  0.00    +0.000 OA
ATOM     10  N   UNL     1      48.481   6.974  13.852  0.00  0.00    +0.000 N 
ATOM     11  H   UNL     1      48.922   6.118  13.549  0.00  0.00    +0.000 HD
BRANCH   8  19
ATOM     12  C   UNL     1      49.215   4.956  17.238  0.00  0.00    +0.000 A 
ATOM     13  N   UNL     1      49.635   3.953  18.034  0.00  0.00    +0.000 NA
ATOM     14  C   UNL     1      50.946   3.837  18.262  0.00  0.00    +0.000 A 
ATOM     15  N   UNL     1      51.913   4.625  17.795  0.00  0.00    +0.000 NA
ATOM     16  C   UNL     1      51.452   5.604  17.000  0.00  0.00    +0.000 A 
ATOM     17  S   UNL     1      52.544   6.714  16.322  0.00  0.00    +0.000 S 
ATOM     18  C   UNL     1      51.293   7.526  15.508  0.00  0.00    +0.000 A 
ATOM     19  C   UNL     1      50.032   6.979  15.723  0.00  0.00    +0.000 A 
ATOM     20  C   UNL     1      50.128   5.846  16.643  0.00  0.00    +0.000 A 
BRANCH  12  22
ATOM     21  C   UNL     1      47.173   3.898  16.740  0.00  0.00    +0.000 C 
ATOM     22  O   UNL     1      47.859   5.111  17.038  0.00  0.00    +0.000 OA
ENDBRANCH  12  22
ENDBRANCH   8  19
ENDBRANCH   7  10
ENDBRANCH   1   7
BRANCH   4  23
ATOM     23  C   UNL     1      43.925   3.112  11.192  0.00  0.00    +0.000 C 
BRANCH  23  24
ATOM     24  N   UNL     1      43.920   3.025   9.735  0.00  0.00    +0.000 NA
ATOM     25  H   UNL     1      44.423   3.829   9.359  0.00  0.00    +0.000 HD
BRANCH  24  26
ATOM     26  C   UNL     1      44.560   1.803   9.245  0.00  0.00    +0.000 C 
BRANCH  26  27
ATOM     27  C   UNL     1      45.655   2.157   8.270  0.00  0.00    +0.000 A 
ATOM     28  C   UNL     1      45.875   3.492   7.897  0.00  0.00    +0.000 A 
ATOM     29  C   UNL     1      46.950   3.834   7.072  0.00  0.00    +0.000 A 
ATOM     30  C   UNL     1      47.809   2.844   6.596  0.00  0.00    +0.000 A 
ATOM     31  C   UNL     1      47.579   1.509   6.929  0.00  0.00    +0.000 A 
ATOM     32  C   UNL     1      46.506   1.176   7.754  0.00  0.00    +0.000 A 
ATOM     33  F   UNL     1      46.315  -0.113   8.068  0.00  0.00    +0.000 F 
ENDBRANCH  26  27
ENDBRANCH  24  26
ENDBRANCH  23  24
ENDBRANCH   4  23
TORSDOF 8
ENDMDL
MODEL 3
REMARK VINA RESULT:    -8.112      1.352      2.465
REMARK INTER + INTRA:         -13.292
REMARK INTER:                 -11.841
REMARK INTRA:                  -1.452
REMARK UNBOUND:                -1.387
REMARK  Name = 
REMARK  9 active torsions:
REMARK  status: ('A' for Active; 'I' for Inactive)
REMARK    1  A    between atoms: C_1  and  O_2
REMARK    2  A    between atoms: O_2  and  C_3
REMARK    3  A    between atoms: C_10  and  C_11
REMARK    4  A    between atoms: N_13  and  C_14
REMARK    5  A    between atoms: C_14  and  C_15
REMARK    6  A    between atoms: C_18  and  C_19
REMARK    7  A    between atoms: C_19  and  N_20
REMARK    8  A    between atoms: N_20  and  C_21
REMARK    9  A    between atoms: C_21  and  C_22
REMARK                            x       y       z     vdW  Elec       q    Type
REMARK                         _______ _______ _______ _____ _____    ______ ____
ROOT
ATOM      1  C   UNL     1      47.041   6.377  13.061  0.00  0.00    +0.000 A 
ATOM      2  C   UNL     1      46.648   6.613  11.737  0.00  0.00    +0.000 A 
ATOM      3  C   UNL     1      45.753   5.751  11.093  0.00  0.00    +0.000 A 
ATOM      4  C   UNL     1      45.219   4.637  11.759  0.00  0.00    +0.000 A 
ATOM      5  C   UNL     1      45.613   4.403  13.083  0.00  0.00    +0.000 A 
ATOM      6  C   UNL     1      46.512   5.263  13.727  0.00  0.00    +0.000 A 
ENDROOT
BRANCH   1   7
ATOM      7  C   UNL     1      47.965   7.339  13.769  0.00  0.00    +0.000 C 
BRANCH   7  10
ATOM      8  C   UNL     1      49.152   6.745  15.853  0.00  0.00    +0.000 C 
ATOM      9  O   UNL     1      50.229   6.671  15.268  0.00  0.00    +0.000 OA
ATOM     10  N   UNL     1      48.001   7.067  15.187  0.00  0.00    +0.000 N 
ATOM     11  H   UNL     1      47.140   7.186  15.698  0.00  0.00    +0.000 HD
BRANCH   8  19
ATOM     12  C   UNL     1      47.835   8.499  18.511  0.00  0.00    +0.000 A 
ATOM     13  N   UNL     1      47.330   8.921  19.687  0.00  0.00    +0.000 NA
ATOM     14  C   UNL     1      47.445   8.117  20.747  0.00  0.00    +0.000 A 
ATOM     15  N   UNL     1      48.029   6.921  20.784  0.00  0.00    +0.000 NA
ATOM     16  C   UNL     1      48.509   6.534  19.591  0.00  0.00    +0.000 A 
ATOM     17  S   UNL     1      49.297   5.037  19.452  0.00  0.00    +0.000 S 
ATOM     18  C   UNL     1      49.548   5.266  17.787  0.00  0.00    +0.000 A 
ATOM     19  C   UNL     1      49.041   6.466  17.300  0.00  0.00    +0.000 A 
ATOM     20  C   UNL     1      48.447   7.238  18.391  0.00  0.00    +0.000 A 
BRANCH  12  22
ATOM     21  C   UNL     1      48.678  10.435  17.472  0.00  0.00    +0.000 C 
ATOM     22  O   UNL     1      47.761   9.345  17.424  0.00  0.00    +0.000 OA
ENDBRANCH  12  22
ENDBRANCH   8  19
ENDBRANCH   7  10
ENDBRANCH   1   7
BRANCH   4  23
ATOM     23  C   UNL     1      44.230   3.721  11.066  0.00  0.00    +0.000 C 
BRANCH  23  24
ATOM     24  N   UNL     1      44.889   2.504  10.603  0.00  0.00    +0.000 NA
ATOM     25  H   UNL     1      44.648   1.742  11.237  0.00  0.00    +0.000 HD
BRANCH  24  26
ATOM     26  C   UNL     1      44.485   2.129   9.248  0.00  0.00    +0.000 C 
BRANCH  26  27
ATOM     27  C   UNL     1      45.657   2.274   8.308  0.00  0.00    +0.000 A 
ATOM     28  C   UNL     1      46.453   1.166   7.983  0.00  0.00    +0.000 A 
ATOM     29  C   UNL     1      47.477   1.276   7.038  0.00  0.00    +0.000 A 
ATOM     30  C   UNL     1      47.727   2.500   6.418  0.00  0.00    +0.000 A 
ATOM     31  C   UNL     1      46.967   3.618   6.760  0.00  0.00    +0.000 A 
ATOM     32  C   UNL     1      45.947   3.500   7.702  0.00  0.00    +0.000 A 
ATOM     33  F   UNL     1      45.224   4.588   8.004  0.00  0.00    +0.000 F 
ENDBRANCH  26  27
ENDBRANCH  24  26
ENDBRANCH  23  24
ENDBRANCH   4  23
TORSDOF 8
ENDMDL
MODEL 4
REMARK VINA RESULT:    -7.860      2.491      3.203
REMARK INTER + INTRA:         -12.922
REMARK INTER:                 -11.669
REMARK INTRA:                  -1.253
REMARK UNBOUND:                -1.387
REMARK  Name = 
REMARK  9 active torsions:
REMARK  status: ('A' for Active; 'I' for Inactive)
REMARK    1  A    between atoms: C_1  and  O_2
REMARK    2  A    between atoms: O_2  and  C_3
REMARK    3  A    between atoms: C_10  and  C_11
REMARK    4  A    between atoms: N_13  and  C_14
REMARK    5  A    between atoms: C_14  and  C_15
REMARK    6  A    between atoms: C_18  and  C_19
REMARK    7  A    between atoms: C_19  and  N_20
REMARK    8  A    between atoms: N_20  and  C_21
REMARK    9  A    between atoms: C_21  and  C_22
REMARK                            x       y       z     vdW  Elec       q    Type
REMARK                         _______ _______ _______ _____ _____    ______ ____
ROOT
ATOM      1  C   UNL     1      47.972   6.266  14.405  0.00  0.00    +0.000 A 
ATOM      2  C   UNL     1      47.748   6.744  13.107  0.00  0.00    +0.000 A 
ATOM      3  C   UNL     1      46.857   6.088  12.248  0.00  0.00    +0.000 A 
ATOM      4  C   UNL     1      46.161   4.945  12.668  0.00  0.00    +0.000 A 
ATOM      5  C   UNL     1      46.388   4.468  13.966  0.00  0.00    +0.000 A 
ATOM      6  C   UNL     1      47.281   5.122  14.825  0.00  0.00    +0.000 A 
ENDROOT
BRANCH   1   7
ATOM      7  C   UNL     1      48.893   7.008  15.345  0.00  0.00    +0.000 C 
BRANCH   7  10
ATOM      8  C   UNL     1      49.972   5.990  17.321  0.00  0.00    +0.000 C 
ATOM      9  O   UNL     1      49.295   6.666  18.091  0.00  0.00    +0.000 OA
ATOM     10  N   UNL     1      49.831   6.102  15.965  0.00  0.00    +0.000 N 
ATOM     11  H   UNL     1      50.352   5.492  15.353  0.00  0.00    +0.000 HD
BRANCH   8  19
ATOM     12  C   UNL     1      50.344   2.573  17.088  0.00  0.00    +0.000 A 
ATOM     13  N   UNL     1      50.769   1.294  17.078  0.00  0.00    +0.000 NA
ATOM     14  C   UNL     1      51.938   1.014  17.658  0.00  0.00    +0.000 A 
ATOM     15  N   UNL     1      52.750   1.870  18.277  0.00  0.00    +0.000 NA
ATOM     16  C   UNL     1      52.294   3.133  18.256  0.00  0.00    +0.000 A 
ATOM     17  S   UNL     1      53.195   4.361  19.007  0.00  0.00    +0.000 S 
ATOM     18  C   UNL     1      52.063   5.542  18.551  0.00  0.00    +0.000 A 
ATOM     19  C   UNL     1      50.989   5.042  17.821  0.00  0.00    +0.000 A 
ATOM     20  C   UNL     1      51.115   3.592  17.674  0.00  0.00    +0.000 A 
BRANCH  12  22
ATOM     21  C   UNL     1      48.030   2.799  17.455  0.00  0.00    +0.000 C 
ATOM     22  O   UNL     1      49.114   2.859  16.533  0.00  0.00    +0.000 OA
ENDBRANCH  12  22
ENDBRANCH   8  19
ENDBRANCH   7  10
ENDBRANCH   1   7
BRANCH   4  23
ATOM     23  C   UNL     1      45.179   4.253  11.743  0.00  0.00    +0.000 C 
BRANCH  23  24
ATOM     24  N   UNL     1      44.964   5.040  10.534  0.00  0.00    +0.000 NA
ATOM     25  H   UNL     1      45.872   5.305  10.152  0.00  0.00    +0.000 HD
BRANCH  24  26
ATOM     26  C   UNL     1      44.224   4.302   9.509  0.00  0.00    +0.000 C 
BRANCH  26  27
ATOM     27  C   UNL     1      45.182   3.484   8.678  0.00  0.00    +0.000 A 
ATOM     28  C   UNL     1      46.086   4.111   7.806  0.00  0.00    +0.000 A 
ATOM     29  C   UNL     1      47.039   3.364   7.110  0.00  0.00    +0.000 A 
ATOM     30  C   UNL     1      47.091   1.979   7.265  0.00  0.00    +0.000 A 
ATOM     31  C   UNL     1      46.174   1.340   8.099  0.00  0.00    +0.000 A 
ATOM     32  C   UNL     1      45.228   2.092   8.792  0.00  0.00    +0.000 A 
ATOM     33  F   UNL     1      44.365   1.454   9.596  0.00  0.00    +0.000 F 
ENDBRANCH  26  27
ENDBRANCH  24  26
ENDBRANCH  23  24
ENDBRANCH   4  23
TORSDOF 8
ENDMDL
MODEL 5
REMARK VINA RESULT:    -7.496      2.055      2.577
REMARK INTER + INTRA:         -12.388
REMARK INTER:                 -11.302
REMARK INTRA:                  -1.086
REMARK UNBOUND:                -1.387
REMARK  Name = 
REMARK  9 active torsions:
REMARK  status: ('A' for Active; 'I' for Inactive)
REMARK    1  A    between atoms: C_1  and  O_2
REMARK    2  A    between atoms: O_2  and  C_3
REMARK    3  A    between atoms: C_10  and  C_11
REMARK    4  A    between atoms: N_13  and  C_14
REMARK    5  A    between atoms: C_14  and  C_15
REMARK    6  A    between atoms: C_18  and  C_19
REMARK    7  A    between atoms: C_19  and  N_20
REMARK    8  A    between atoms: N_20  and  C_21
REMARK    9  A    between atoms: C_21  and  C_22
REMARK                            x       y       z     vdW  Elec       q    Type
REMARK                         _______ _______ _______ _____ _____    ______ ____
ROOT
ATOM      1  C   UNL     1      46.589   5.929  12.849  0.00  0.00    +0.000 A 
ATOM      2  C   UNL     1      46.088   4.756  13.428  0.00  0.00    +0.000 A 
ATOM      3  C   UNL     1      45.086   4.015  12.790  0.00  0.00    +0.000 A 
ATOM      4  C   UNL     1      44.567   4.421  11.552  0.00  0.00    +0.000 A 
ATOM      5  C   UNL     1      45.068   5.596  10.975  0.00  0.00    +0.000 A 
ATOM      6  C   UNL     1      46.068   6.339  11.614  0.00  0.00    +0.000 A 
ENDROOT
BRANCH   1   7
ATOM      7  C   UNL     1      47.707   6.696  13.514  0.00  0.00    +0.000 C 
BRANCH   7  10
ATOM      8  C   UNL     1      48.876   6.697  15.691  0.00  0.00    +0.000 C 
ATOM      9  O   UNL     1      49.332   7.821  15.493  0.00  0.00    +0.000 OA
ATOM     10  N   UNL     1      48.074   6.082  14.770  0.00  0.00    +0.000 N 
ATOM     11  H   UNL     1      47.659   5.188  14.981  0.00  0.00    +0.000 HD
BRANCH   8  19
ATOM     12  C   UNL     1      51.772   6.212  17.494  0.00  0.00    +0.000 A 
ATOM     13  N   UNL     1      52.719   5.936  18.413  0.00  0.00    +0.000 NA
ATOM     14  C   UNL     1      52.364   5.227  19.488  0.00  0.00    +0.000 A 
ATOM     15  N   UNL     1      51.157   4.736  19.760  0.00  0.00    +0.000 NA
ATOM     16  C   UNL     1      50.243   5.043  18.826  0.00  0.00    +0.000 A 
ATOM     17  S   UNL     1      48.647   4.489  19.002  0.00  0.00    +0.000 S 
ATOM     18  C   UNL     1      48.168   5.254  17.562  0.00  0.00    +0.000 A 
ATOM     19  C   UNL     1      49.193   5.945  16.923  0.00  0.00    +0.000 A 
ATOM     20  C   UNL     1      50.442   5.789  17.667  0.00  0.00    +0.000 A 
BRANCH  12  22
ATOM     21  C   UNL     1      53.441   6.570  15.873  0.00  0.00    +0.000 C 
ATOM     22  O   UNL     1      52.143   6.902  16.359  0.00  0.00    +0.000 OA
ENDBRANCH  12  22
ENDBRANCH   8  19
ENDBRANCH   7  10
ENDBRANCH   1   7
BRANCH   4  23
ATOM     23  C   UNL     1      43.500   3.603  10.853  0.00  0.00    +0.000 C 
BRANCH  23  24
ATOM     24  N   UNL     1      43.871   3.346   9.465  0.00  0.00    +0.000 NA
ATOM     25  H   UNL     1      44.414   4.139   9.122  0.00  0.00    +0.000 HD
BRANCH  24  26
ATOM     26  C   UNL     1      44.672   2.131   9.316  0.00  0.00    +0.000 C 
BRANCH  26  27
ATOM     27  C   UNL     1      45.752   2.356   8.287  0.00  0.00    +0.000 A 
ATOM     28  C   UNL     1      46.049   3.651   7.835  0.00  0.00    +0.000 A 
ATOM     29  C   UNL     1      47.114   3.873   6.957  0.00  0.00    +0.000 A 
ATOM     30  C   UNL     1      47.885   2.801   6.508  0.00  0.00    +0.000 A 
ATOM     31  C   UNL     1      47.576   1.505   6.919  0.00  0.00    +0.000 A 
ATOM     32  C   UNL     1      46.514   1.292   7.797  0.00  0.00    +0.000 A 
ATOM     33  F   UNL     1      46.246   0.037   8.186  0.00  0.00    +0.000 F 
ENDBRANCH  26  27
ENDBRANCH  24  26
ENDBRANCH  23  24
ENDBRANCH   4  23
TORSDOF 8
ENDMDL
MODEL 6
REMARK VINA RESULT:    -7.196      3.728      8.241
REMARK INTER + INTRA:         -11.948
REMARK INTER:                 -10.071
REMARK INTRA:                  -1.877
REMARK UNBOUND:                -1.387
REMARK  Name = 
REMARK  9 active torsions:
REMARK  status: ('A' for Active; 'I' for Inactive)
REMARK    1  A    between atoms: C_1  and  O_2
REMARK    2  A    between atoms: O_2  and  C_3
REMARK    3  A    between atoms: C_10  and  C_11
REMARK    4  A    between atoms: N_13  and  C_14
REMARK    5  A    between atoms: C_14  and  C_15
REMARK    6  A    between atoms: C_18  and  C_19
REMARK    7  A    between atoms: C_19  and  N_20
REMARK    8  A    between atoms: N_20  and  C_21
REMARK    9  A    between atoms: C_21  and  C_22
REMARK                            x       y       z     vdW  Elec       q    Type
REMARK                         _______ _______ _______ _____ _____    ______ ____
ROOT
ATOM      1  C   UNL     1      48.551   7.987  13.423  0.00  0.00    +0.000 A 
ATOM      2  C   UNL     1      49.312   6.946  13.970  0.00  0.00    +0.000 A 
ATOM      3  C   UNL     1      49.417   6.791  15.358  0.00  0.00    +0.000 A 
ATOM      4  C   UNL     1      48.756   7.665  16.233  0.00  0.00    +0.000 A 
ATOM      5  C   UNL     1      47.996   8.706  15.684  0.00  0.00    +0.000 A 
ATOM      6  C   UNL     1      47.893   8.864  14.296  0.00  0.00    +0.000 A 
ENDROOT
BRANCH   1   7
ATOM      7  C   UNL     1      48.397   8.119  11.926  0.00  0.00    +0.000 C 
BRANCH   7  10
ATOM      8  C   UNL     1      46.303   6.951  11.330  0.00  0.00    +0.000 C 
ATOM      9  O   UNL     1      45.617   7.881  11.745  0.00  0.00    +0.000 OA
ATOM     10  N   UNL     1      47.669   6.995  11.384  0.00  0.00    +0.000 N 
ATOM     11  H   UNL     1      48.213   6.249  10.979  0.00  0.00    +0.000 HD
BRANCH   8  19
ATOM     12  C   UNL     1      44.543   4.338  12.726  0.00  0.00    +0.000 A 
ATOM     13  N   UNL     1      43.773   3.264  12.991  0.00  0.00    +0.000 NA
ATOM     14  C   UNL     1      43.396   2.492  11.969  0.00  0.00    +0.000 A 
ATOM     15  N   UNL     1      43.711   2.653  10.685  0.00  0.00    +0.000 NA
ATOM     16  C   UNL     1      44.469   3.739  10.464  0.00  0.00    +0.000 A 
ATOM     17  S   UNL     1      44.977   4.097   8.883  0.00  0.00    +0.000 S 
ATOM     18  C   UNL     1      45.785   5.498   9.405  0.00  0.00    +0.000 A 
ATOM     19  C   UNL     1      45.686   5.729  10.773  0.00  0.00    +0.000 A 
ATOM     20  C   UNL     1      44.923   4.655  11.409  0.00  0.00    +0.000 A 
BRANCH  12  22
ATOM     21  C   UNL     1      46.283   4.786  14.245  0.00  0.00    +0.000 C 
ATOM     22  O   UNL     1      44.976   5.112  13.782  0.00  0.00    +0.000 OA
ENDBRANCH  12  22
ENDBRANCH   8  19
ENDBRANCH   7  10
ENDBRANCH   1   7
BRANCH   4  23
ATOM     23  C   UNL     1      48.852   7.478  17.734  0.00  0.00    +0.000 C 
BRANCH  23  24
ATOM     24  N   UNL     1      47.808   6.577  18.211  0.00  0.00    +0.000 NA
ATOM     25  H   UNL     1      47.364   6.137  17.405  0.00  0.00    +0.000 HD
BRANCH  24  26
ATOM     26  C   UNL     1      48.332   5.526  19.086  0.00  0.00    +0.000 C 
BRANCH  26  27
ATOM     27  C   UNL     1      48.905   4.407  18.252  0.00  0.00    +0.000 A 
ATOM     28  C   UNL     1      50.283   4.140  18.268  0.00  0.00    +0.000 A 
ATOM     29  C   UNL     1      50.803   3.044  17.574  0.00  0.00    +0.000 A 
ATOM     30  C   UNL     1      49.956   2.211  16.844  0.00  0.00    +0.000 A 
ATOM     31  C   UNL     1      48.591   2.489  16.789  0.00  0.00    +0.000 A 
ATOM     32  C   UNL     1      48.078   3.583  17.485  0.00  0.00    +0.000 A 
ATOM     33  F   UNL     1      46.760   3.821  17.425  0.00  0.00    +0.000 F 
ENDBRANCH  26  27
ENDBRANCH  24  26
ENDBRANCH  23  24
ENDBRANCH   4  23
TORSDOF 8
ENDMDL
MODEL 7
REMARK VINA RESULT:    -7.193      1.840      3.242
REMARK INTER + INTRA:         -11.944
REMARK INTER:                 -11.310
REMARK INTRA:                  -0.634
REMARK UNBOUND:                -1.387
REMARK  Name = 
REMARK  9 active torsions:
REMARK  status: ('A' for Active; 'I' for Inactive)
REMARK    1  A    between atoms: C_1  and  O_2
REMARK    2  A    between atoms: O_2  and  C_3
REMARK    3  A    between atoms: C_10  and  C_11
REMARK    4  A    between atoms: N_13  and  C_14
REMARK    5  A    between atoms: C_14  and  C_15
REMARK    6  A    between atoms: C_18  and  C_19
REMARK    7  A    between atoms: C_19  and  N_20
REMARK    8  A    between atoms: N_20  and  C_21
REMARK    9  A    between atoms: C_21  and  C_22
REMARK                            x       y       z     vdW  Elec       q    Type
REMARK                         _______ _______ _______ _____ _____    ______ ____
ROOT
ATOM      1  C   UNL     1      46.471   4.313  13.763  0.00  0.00    +0.000 A 
ATOM      2  C   UNL     1      45.948   3.209  13.078  0.00  0.00    +0.000 A 
ATOM      3  C   UNL     1      45.037   3.383  12.029  0.00  0.00    +0.000 A 
ATOM      4  C   UNL     1      44.634   4.666  11.631  0.00  0.00    +0.000 A 
ATOM      5  C   UNL     1      45.157   5.770  12.318  0.00  0.00    +0.000 A 
ATOM      6  C   UNL     1      46.066   5.596  13.369  0.00  0.00    +0.000 A 
ENDROOT
BRANCH   1   7
ATOM      7  C   UNL     1      47.493   4.122  14.858  0.00  0.00    +0.000 C 
BRANCH   7  10
ATOM      8  C   UNL     1      48.570   5.469  16.628  0.00  0.00    +0.000 C 
ATOM      9  O   UNL     1      49.391   4.584  16.859  0.00  0.00    +0.000 OA
ATOM     10  N   UNL     1      47.612   5.315  15.663  0.00  0.00    +0.000 N 
ATOM     11  H   UNL     1      46.990   6.079  15.445  0.00  0.00    +0.000 HD
BRANCH   8  19
ATOM     12  C   UNL     1      48.836   8.787  15.737  0.00  0.00    +0.000 A 
ATOM     13  N   UNL     1      48.830  10.133  15.661  0.00  0.00    +0.000 NA
ATOM     14  C   UNL     1      48.667  10.826  16.790  0.00  0.00    +0.000 A 
ATOM     15  N   UNL     1      48.521  10.334  18.019  0.00  0.00    +0.000 NA
ATOM     16  C   UNL     1      48.523   8.991  18.048  0.00  0.00    +0.000 A 
ATOM     17  S   UNL     1      48.358   8.187  19.535  0.00  0.00    +0.000 S 
ATOM     18  C   UNL     1      48.422   6.667  18.778  0.00  0.00    +0.000 A 
ATOM     19  C   UNL     1      48.562   6.731  17.396  0.00  0.00    +0.000 A 
ATOM     20  C   UNL     1      48.654   8.126  16.965  0.00  0.00    +0.000 A 
BRANCH  12  22
ATOM     21  C   UNL     1      50.396   8.103  14.114  0.00  0.00    +0.000 C 
ATOM     22  O   UNL     1      49.051   8.065  14.582  0.00  0.00    +0.000 OA
ENDBRANCH  12  22
ENDBRANCH   8  19
ENDBRANCH   7  10
ENDBRANCH   1   7
BRANCH   4  23
ATOM     23  C   UNL     1      43.667   4.852  10.478  0.00  0.00    +0.000 C 
BRANCH  23  24
ATOM     24  N   UNL     1      43.996   3.953   9.377  0.00  0.00    +0.000 NA
ATOM     25  H   UNL     1      43.170   3.845   8.787  0.00  0.00    +0.000 HD
BRANCH  24  26
ATOM     26  C   UNL     1      45.095   4.457   8.552  0.00  0.00    +0.000 C 
BRANCH  26  27
ATOM     27  C   UNL     1      45.853   3.300   7.949  0.00  0.00    +0.000 A 
ATOM     28  C   UNL     1      46.779   3.514   6.916  0.00  0.00    +0.000 A 
ATOM     29  C   UNL     1      47.553   2.459   6.424  0.00  0.00    +0.000 A 
ATOM     30  C   UNL     1      47.398   1.176   6.946  0.00  0.00    +0.000 A 
ATOM     31  C   UNL     1      46.454   0.943   7.945  0.00  0.00    +0.000 A 
ATOM     32  C   UNL     1      45.688   2.000   8.433  0.00  0.00    +0.000 A 
ATOM     33  F   UNL     1      44.795   1.751   9.402  0.00  0.00    +0.000 F 
ENDBRANCH  26  27
ENDBRANCH  24  26
ENDBRANCH  23  24
ENDBRANCH   4  23
TORSDOF 8
ENDMDL
MODEL 8
REMARK VINA RESULT:    -6.991      5.232      9.398
REMARK INTER + INTRA:         -11.647
REMARK INTER:                 -10.614
REMARK INTRA:                  -1.032
REMARK UNBOUND:                -1.387
REMARK  Name = 
REMARK  9 active torsions:
REMARK  status: ('A' for Active; 'I' for Inactive)
REMARK    1  A    between atoms: C_1  and  O_2
REMARK    2  A    between atoms: O_2  and  C_3
REMARK    3  A    between atoms: C_10  and  C_11
REMARK    4  A    between atoms: N_13  and  C_14
REMARK    5  A    between atoms: C_14  and  C_15
REMARK    6  A    between atoms: C_18  and  C_19
REMARK    7  A    between atoms: C_19  and  N_20
REMARK    8  A    between atoms: N_20  and  C_21
REMARK    9  A    between atoms: C_21  and  C_22
REMARK                            x       y       z     vdW  Elec       q    Type
REMARK                         _______ _______ _______ _____ _____    ______ ____
ROOT
ATOM      1  C   UNL     1      48.655   3.407  17.141  0.00  0.00    +0.000 A 
ATOM      2  C   UNL     1      49.413   2.238  16.995  0.00  0.00    +0.000 A 
ATOM      3  C   UNL     1      50.781   2.232  17.293  0.00  0.00    +0.000 A 
ATOM      4  C   UNL     1      51.424   3.390  17.755  0.00  0.00    +0.000 A 
ATOM      5  C   UNL     1      50.663   4.558  17.900  0.00  0.00    +0.000 A 
ATOM      6  C   UNL     1      49.296   4.566  17.599  0.00  0.00    +0.000 A 
ENDROOT
BRANCH   1   7
ATOM      7  C   UNL     1      47.169   3.395  16.870  0.00  0.00    +0.000 C 
BRANCH   7  10
ATOM      8  C   UNL     1      46.887   4.177  14.543  0.00  0.00    +0.000 C 
ATOM      9  O   UNL     1      47.258   3.097  14.091  0.00  0.00    +0.000 OA
ATOM     10  N   UNL     1      46.818   4.398  15.892  0.00  0.00    +0.000 N 
ATOM     11  H   UNL     1      46.449   5.269  16.241  0.00  0.00    +0.000 HD
BRANCH   8  19
ATOM     12  C   UNL     1      44.144   4.839  12.567  0.00  0.00    +0.000 A 
ATOM     13  N   UNL     1      43.176   5.375  11.796  0.00  0.00    +0.000 NA
ATOM     14  C   UNL     1      43.379   6.593  11.288  0.00  0.00    +0.000 A 
ATOM     15  N   UNL     1      44.460   7.356  11.444  0.00  0.00    +0.000 NA
ATOM     16  C   UNL     1      45.393   6.789  12.225  0.00  0.00    +0.000 A 
ATOM     17  S   UNL     1      46.846   7.615  12.527  0.00  0.00    +0.000 S 
ATOM     18  C   UNL     1      47.413   6.360  13.522  0.00  0.00    +0.000 A 
ATOM     19  C   UNL     1      46.523   5.299  13.654  0.00  0.00    +0.000 A 
ATOM     20  C   UNL     1      45.326   5.546  12.849  0.00  0.00    +0.000 A 
BRANCH  12  22
ATOM     21  C   UNL     1      43.478   2.633  12.088  0.00  0.00    +0.000 C 
ATOM     22  O   UNL     1      43.961   3.562  13.054  0.00  0.00    +0.000 OA
ENDBRANCH  12  22
ENDBRANCH   8  19
ENDBRANCH   7  10
ENDBRANCH   1   7
BRANCH   4  23
ATOM     23  C   UNL     1      52.899   3.372  18.100  0.00  0.00    +0.000 C 
BRANCH  23  24
ATOM     24  N   UNL     1      53.212   2.246  18.975  0.00  0.00    +0.000 NA
ATOM     25  H   UNL     1      52.672   1.437  18.670  0.00  0.00    +0.000 HD
BRANCH  24  26
ATOM     26  C   UNL     1      54.633   1.895  18.949  0.00  0.00    +0.000 C 
BRANCH  26  27
ATOM     27  C   UNL     1      54.833   0.640  18.136  0.00  0.00    +0.000 A 
ATOM     28  C   UNL     1      54.683  -0.624  18.727  0.00  0.00    +0.000 A 
ATOM     29  C   UNL     1      54.771  -1.786  17.955  0.00  0.00    +0.000 A 
ATOM     30  C   UNL     1      55.026  -1.699  16.587  0.00  0.00    +0.000 A 
ATOM     31  C   UNL     1      55.215  -0.450  15.995  0.00  0.00    +0.000 A 
ATOM     32  C   UNL     1      55.124   0.704  16.771  0.00  0.00    +0.000 A 
ATOM     33  F   UNL     1      55.298   1.893  16.175  0.00  0.00    +0.000 F 
ENDBRANCH  26  27
ENDBRANCH  24  26
ENDBRANCH  23  24
ENDBRANCH   4  23
TORSDOF 8
ENDMDL
MODEL 9
REMARK VINA RESULT:    -6.860      3.287      5.320
REMARK INTER + INTRA:         -11.455
REMARK INTER:                  -9.807
REMARK INTRA:                  -1.648
REMARK UNBOUND:                -1.387
REMARK  Name = 
REMARK  9 active torsions:
REMARK  status: ('A' for Active; 'I' for Inactive)
REMARK    1  A    between atoms: C_1  and  O_2
REMARK    2  A    between atoms: O_2  and  C_3
REMARK    3  A    between atoms: C_10  and  C_11
REMARK    4  A    between atoms: N_13  and  C_14
REMARK    5  A    between atoms: C_14  and  C_15
REMARK    6  A    between atoms: C_18  and  C_19
REMARK    7  A    between atoms: C_19  and  N_20
REMARK    8  A    between atoms: N_20  and  C_21
REMARK    9  A    between atoms: C_21  and  C_22
REMARK                            x       y       z     vdW  Elec       q    Type
REMARK                         _______ _______ _______ _____ _____    ______ ____
ROOT
ATOM      1  C   UNL     1      47.657   4.258  16.132  0.00  0.00    +0.000 A 
ATOM      2  C   UNL     1      46.976   3.841  14.981  0.00  0.00    +0.000 A 
ATOM      3  C   UNL     1      46.900   4.670  13.856  0.00  0.00    +0.000 A 
ATOM      4  C   UNL     1      47.511   5.932  13.848  0.00  0.00    +0.000 A 
ATOM      5  C   UNL     1      48.192   6.348  15.000  0.00  0.00    +0.000 A 
ATOM      6  C   UNL     1      48.265   5.521  16.128  0.00  0.00    +0.000 A 
ENDROOT
BRANCH   1   7
ATOM      7  C   UNL     1      47.782   3.339  17.324  0.00  0.00    +0.000 C 
BRANCH   7  10
ATOM      8  C   UNL     1      50.011   2.320  17.002  0.00  0.00    +0.000 C 
ATOM      9  O   UNL     1      49.623   1.679  16.029  0.00  0.00    +0.000 OA
ATOM     10  N   UNL     1      49.168   3.153  17.686  0.00  0.00    +0.000 N 
ATOM     11  H   UNL     1      49.524   3.719  18.442  0.00  0.00    +0.000 HD
BRANCH   8  19
ATOM     12  C   UNL     1      52.226   4.564  18.391  0.00  0.00    +0.000 A 
ATOM     13  N   UNL     1      53.236   5.197  19.021  0.00  0.00    +0.000 NA
ATOM     14  C   UNL     1      54.317   4.486  19.349  0.00  0.00    +0.000 A 
ATOM     15  N   UNL     1      54.528   3.193  19.107  0.00  0.00    +0.000 NA
ATOM     16  C   UNL     1      53.495   2.600  18.488  0.00  0.00    +0.000 A 
ATOM     17  S   UNL     1      53.593   0.952  18.090  0.00  0.00    +0.000 S 
ATOM     18  C   UNL     1      52.028   0.966  17.428  0.00  0.00    +0.000 A 
ATOM     19  C   UNL     1      51.398   2.205  17.496  0.00  0.00    +0.000 A 
ATOM     20  C   UNL     1      52.293   3.189  18.104  0.00  0.00    +0.000 A 
BRANCH  12  22
ATOM     21  C   UNL     1      50.552   6.079  19.055  0.00  0.00    +0.000 C 
ATOM     22  O   UNL     1      51.127   5.304  18.007  0.00  0.00    +0.000 OA
ENDBRANCH  12  22
ENDBRANCH   8  19
ENDBRANCH   7  10
ENDBRANCH   1   7
BRANCH   4  23
ATOM     23  C   UNL     1      47.448   6.816  12.618  0.00  0.00    +0.000 C 
BRANCH  23  24
ATOM     24  N   UNL     1      46.219   7.605  12.611  0.00  0.00    +0.000 NA
ATOM     25  H   UNL     1      46.467   8.594  12.647  0.00  0.00    +0.000 HD
BRANCH  24  26
ATOM     26  C   UNL     1      45.411   7.370  11.413  0.00  0.00    +0.000 C 
BRANCH  26  27
ATOM     27  C   UNL     1      44.711   6.038  11.523  0.00  0.00    +0.000 A 
ATOM     28  C   UNL     1      43.827   5.782  12.583  0.00  0.00    +0.000 A 
ATOM     29  C   UNL     1      43.103   4.588  12.633  0.00  0.00    +0.000 A 
ATOM     30  C   UNL     1      43.266   3.628  11.634  0.00  0.00    +0.000 A 
ATOM     31  C   UNL     1      44.170   3.854  10.597  0.00  0.00    +0.000 A 
ATOM     32  C   UNL     1      44.887   5.049  10.552  0.00  0.00    +0.000 A 
ATOM     33  F   UNL     1      45.741   5.246   9.538  0.00  0.00    +0.000 F 
ENDBRANCH  26  27
ENDBRANCH  24  26
ENDBRANCH  23  24
ENDBRANCH   4  23
TORSDOF 8
ENDMDL
