MODEL 1
REMARK VINA RESULT:    -7.861      0.000      0.000
REMARK INTER + INTRA:         -11.994
REMARK INTER:                 -10.848
REMARK INTRA:                  -1.147
REMARK UNBOUND:                -1.147
REMARK  Name = 
REMARK  7 active torsions:
REMARK  status: ('A' for Active; 'I' for Inactive)
REMARK    1  A    between atoms: N_1  and  C_2
REMARK    2  A    between atoms: C_2  and  C_3
REMARK    3  A    between atoms: C_7  and  C_8
REMARK    4  A    between atoms: C_8  and  C_9
REMARK    5  A    between atoms: C_9  and  C_10
REMARK    6  A    between atoms: C_10  and  C_11
REMARK    7  A    between atoms: C_14  and  C_15
REMARK                            x       y       z     vdW  Elec       q    Type
REMARK                         _______ _______ _______ _____ _____    ______ ____
ROOT
ATOM      1  C   UNL     1      43.325   4.794  10.655  0.00  0.00    +0.000 C 
ENDROOT
BRANCH   1   2
ATOM      2  C   UNL     1      43.419   5.407  12.055  0.00  0.00    +0.000 C 
BRANCH   2   7
ATOM      3  C   UNL     1      46.766   5.249  13.886  0.00  0.00    +0.000 A 
ATOM      4  C   UNL     1      47.570   6.024  13.040  0.00  0.00    +0.000 A 
ATOM      5  C   UNL     1      47.027   6.625  11.906  0.00  0.00    +0.000 A 
ATOM      6  C   UNL     1      45.678   6.450  11.597  0.00  0.00    +0.000 A 
ATOM      7  C   UNL     1      44.856   5.678  12.427  0.00  0.00    +0.000 A 
ATOM      8  C   UNL     1      45.410   5.086  13.571  0.00  0.00    +0.000 A 
BRANCH   3   9
ATOM      9  C   UNL     1      47.365   4.521  15.060  0.00  0.00    +0.000 C 
BRANCH   9  10
ATOM     10  N   UNL     1      47.552   3.110  14.745  0.00  0.00    +0.000 NA
ATOM     11  H   UNL     1      47.960   3.020  13.818  0.00  0.00    +0.000 HD
ATOM     12  H   UNL     1      46.639   2.658  14.708  0.00  0.00    +0.000 HD
ENDBRANCH   9  10
ENDBRANCH   3   9
ENDBRANCH   2   7
ENDBRANCH   1   2
BRANCH   1  13
ATOM     13  C   UNL     1      43.830   3.351  10.633  0.00  0.00    +0.000 C 
BRANCH  13  14
ATOM     14  C   UNL     1      44.783   3.113   9.484  0.00  0.00    +0.000 A 
ATOM     15  C   UNL     1      45.207   1.813   9.175  0.00  0.00    +0.000 A 
ATOM     16  C   UNL     1      46.110   1.592   8.131  0.00  0.00    +0.000 A 
ATOM     17  C   UNL     1      46.596   2.667   7.378  0.00  0.00    +0.000 A 
ATOM     18  C   UNL     1      46.190   3.969   7.693  0.00  0.00    +0.000 A 
ATOM     19  C   UNL     1      45.290   4.188   8.740  0.00  0.00    +0.000 A 
BRANCH  17  20
ATOM     20  C   UNL     1      47.559   2.380   6.282  0.00  0.00    +0.000 C 
ATOM     21  N   UNL     1      47.489   3.158   5.159  0.00  0.00    +0.000 N 
ATOM     22  O   UNL     1      48.363   1.457   6.353  0.00  0.00    +0.000 OA
ATOM     23  H   UNL     1      46.701   3.755   4.959  0.00  0.00    +0.000 HD
ATOM     24  H   UNL     1      48.075   2.873   4.384  0.00  0.00    +0.000 HD
ENDBRANCH  17  20
ENDBRANCH  13  14
ENDBRANCH   1  13
TORSDOF 7
ENDMDL
MODEL 2
REMARK VINA RESULT:    -7.806      1.951      2.391
REMARK INTER + INTRA:         -11.919
REMARK INTER:                 -10.939
REMARK INTRA:                  -0.981
REMARK UNBOUND:                -1.147
REMARK  Name = 
REMARK  7 active torsions:
REMARK  status: ('A' for Active; 'I' for Inactive)
REMARK    1  A    between atoms: N_1  and  C_2
REMARK    2  A    between atoms: C_2  and  C_3
REMARK    3  A    between atoms: C_7  and  C_8
REMARK    4  A    between atoms: C_8  and  C_9
REMARK    5  A    between atoms: C_9  and  C_10
REMARK    6  A    between atoms: C_10  and  C_11
REMARK    7  A    between atoms: C_14  and  C_15
REMARK                            x       y       z     vdW  Elec       q    Type
REMARK                         _______ _______ _______ _____ _____    ______ ____
ROOT
ATOM      1  C   UNL     1      43.468   3.719  11.696  0.00  0.00    +0.000 C 
ENDROOT
BRANCH   1   2
ATOM      2  C   UNL     1      43.571   4.668  12.893  0.00  0.00    +0.000 C 
BRANCH   2   7
ATOM      3  C   UNL     1      46.122   7.504  12.719  0.00  0.00    +0.000 A 
ATOM      4  C   UNL     1      47.303   6.822  13.037  0.00  0.00    +0.000 A 
ATOM      5  C   UNL     1      47.283   5.448  13.271  0.00  0.00    +0.000 A 
ATOM      6  C   UNL     1      46.082   4.742  13.199  0.00  0.00    +0.000 A 
ATOM      7  C   UNL     1      44.889   5.403  12.884  0.00  0.00    +0.000 A 
ATOM      8  C   UNL     1      44.921   6.784  12.640  0.00  0.00    +0.000 A 
BRANCH   3   9
ATOM      9  C   UNL     1      46.119   9.001  12.557  0.00  0.00    +0.000 C 
BRANCH   9  10
ATOM     10  N   UNL     1      44.796   9.544  12.843  0.00  0.00    +0.000 NA
ATOM     11  H   UNL     1      44.891  10.416  13.357  0.00  0.00    +0.000 HD
ATOM     12  H   UNL     1      44.301   8.896  13.455  0.00  0.00    +0.000 HD
ENDBRANCH   9  10
ENDBRANCH   3   9
ENDBRANCH   2   7
ENDBRANCH   1   2
BRANCH   1  13
ATOM     13  C   UNL     1      43.613   4.464  10.369  0.00  0.00    +0.000 C 
BRANCH  13  14
ATOM     14  C   UNL     1      44.591   3.773   9.446  0.00  0.00    +0.000 A 
ATOM     15  C   UNL     1      44.743   2.381   9.491  0.00  0.00    +0.000 A 
ATOM     16  C   UNL     1      45.667   1.741   8.660  0.00  0.00    +0.000 A 
ATOM     17  C   UNL     1      46.447   2.485   7.768  0.00  0.00    +0.000 A 
ATOM     18  C   UNL     1      46.312   3.878   7.730  0.00  0.00    +0.000 A 
ATOM     19  C   UNL     1      45.390   4.515   8.566  0.00  0.00    +0.000 A 
BRANCH  17  20
ATOM     20  C   UNL     1      47.419   1.759   6.908  0.00  0.00    +0.000 C 
ATOM     21  N   UNL     1      48.517   2.449   6.472  0.00  0.00    +0.000 N 
ATOM     22  O   UNL     1      47.233   0.597   6.563  0.00  0.00    +0.000 OA
ATOM     23  H   UNL     1      48.584   3.454   6.526  0.00  0.00    +0.000 HD
ATOM     24  H   UNL     1      49.103   1.971   5.799  0.00  0.00    +0.000 HD
ENDBRANCH  17  20
ENDBRANCH  13  14
ENDBRANCH   1  13
TORSDOF 7
ENDMDL
MODEL 3
REMARK VINA RESULT:    -7.385      1.219      1.866
REMARK INTER + INTRA:         -11.338
REMARK INTER:                 -10.225
REMARK INTRA:                  -1.113
REMARK UNBOUND:                -1.147
REMARK  Name = 
REMARK  7 active torsions:
REMARK  status: ('A' for Active; 'I' for Inactive)
REMARK    1  A    between atoms: N_1  and  C_2
REMARK    2  A    between atoms: C_2  and  C_3
REMARK    3  A    between atoms: C_7  and  C_8
REMARK    4  A    between atoms: C_8  and  C_9
REMARK    5  A    between atoms: C_9  and  C_10
REMARK    6  A    between atoms: C_10  and  C_11
REMARK    7  A    between atoms: C_14  and  C_15
REMARK                            x       y       z     vdW  Elec       q    Type
REMARK                         _______ _______ _______ _____ _____    ______ ____
ROOT
ATOM      1  C   UNL     1      43.361   5.108  10.622  0.00  0.00    +0.000 C 
ENDROOT
BRANCH   1   2
ATOM      2  C   UNL     1      43.522   5.737  12.009  0.00  0.00    +0.000 C 
BRANCH   2   7
ATOM      3  C   UNL     1      47.255   6.438  12.407  0.00  0.00    +0.000 A 
ATOM      4  C   UNL     1      47.576   5.583  13.469  0.00  0.00    +0.000 A 
ATOM      5  C   UNL     1      46.602   4.757  14.029  0.00  0.00    +0.000 A 
ATOM      6  C   UNL     1      45.295   4.785  13.542  0.00  0.00    +0.000 A 
ATOM      7  C   UNL     1      44.951   5.632  12.483  0.00  0.00    +0.000 A 
ATOM      8  C   UNL     1      45.940   6.451  11.919  0.00  0.00    +0.000 A 
BRANCH   3   9
ATOM      9  C   UNL     1      48.276   7.399  11.859  0.00  0.00    +0.000 C 
BRANCH   9  10
ATOM     10  N   UNL     1      49.596   7.108  12.406  0.00  0.00    +0.000 NA
ATOM     11  H   UNL     1      50.289   7.696  11.951  0.00  0.00    +0.000 HD
ATOM     12  H   UNL     1      49.839   6.144  12.184  0.00  0.00    +0.000 HD
ENDBRANCH   9  10
ENDBRANCH   3   9
ENDBRANCH   2   7
ENDBRANCH   1   2
BRANCH   1  13
ATOM     13  C   UNL     1      43.759   3.632  10.619  0.00  0.00    +0.000 C 
BRANCH  13  14
ATOM     14  C   UNL     1      44.746   3.323   9.517  0.00  0.00    +0.000 A 
ATOM     15  C   UNL     1      45.121   1.998   9.254  0.00  0.00    +0.000 A 
ATOM     16  C   UNL     1      46.054   1.711   8.254  0.00  0.00    +0.000 A 
ATOM     17  C   UNL     1      46.621   2.745   7.500  0.00  0.00    +0.000 A 
ATOM     18  C   UNL     1      46.264   4.071   7.769  0.00  0.00    +0.000 A 
ATOM     19  C   UNL     1      45.333   4.355   8.772  0.00  0.00    +0.000 A 
BRANCH  17  20
ATOM     20  C   UNL     1      47.614   2.387   6.451  0.00  0.00    +0.000 C 
ATOM     21  N   UNL     1      47.585   3.101   5.284  0.00  0.00    +0.000 N 
ATOM     22  O   UNL     1      48.405   1.464   6.599  0.00  0.00    +0.000 OA
ATOM     23  H   UNL     1      46.809   3.692   5.027  0.00  0.00    +0.000 HD
ATOM     24  H   UNL     1      48.192   2.768   4.545  0.00  0.00    +0.000 HD
ENDBRANCH  17  20
ENDBRANCH  13  14
ENDBRANCH   1  13
TORSDOF 7
ENDMDL
MODEL 4
REMARK VINA RESULT:    -7.348      2.762      6.097
REMARK INTER + INTRA:         -11.286
REMARK INTER:                 -10.164
REMARK INTRA:                  -1.122
REMARK UNBOUND:                -1.147
REMARK  Name = 
REMARK  7 active torsions:
REMARK  status: ('A' for Active; 'I' for Inactive)
REMARK    1  A    between atoms: N_1  and  C_2
REMARK    2  A    between atoms: C_2  and  C_3
REMARK    3  A    between atoms: C_7  and  C_8
REMARK    4  A    between atoms: C_8  and  C_9
REMARK    5  A    between atoms: C_9  and  C_10
REMARK    6  A    between atoms: C_10  and  C_11
REMARK    7  A    between atoms: C_14  and  C_15
REMARK                            x       y       z     vdW  Elec       q    Type
REMARK                         _______ _______ _______ _____ _____    ______ ____
ROOT
ATOM      1  C   UNL     1      43.508   4.327  10.615  0.00  0.00    +0.000 C 
ENDROOT
BRANCH   1   2
ATOM      2  C   UNL     1      44.084   2.950  10.272  0.00  0.00    +0.000 C 
BRANCH   2   7
ATOM      3  C   UNL     1      46.625   1.973   7.594  0.00  0.00    +0.000 A 
ATOM      4  C   UNL     1      46.942   3.227   7.056  0.00  0.00    +0.000 A 
ATOM      5  C   UNL     1      46.369   4.385   7.579  0.00  0.00    +0.000 A 
ATOM      6  C   UNL     1      45.463   4.302   8.637  0.00  0.00    +0.000 A 
ATOM      7  C   UNL     1      45.130   3.060   9.189  0.00  0.00    +0.000 A 
ATOM      8  C   UNL     1      45.721   1.902   8.663  0.00  0.00    +0.000 A 
BRANCH   3   9
ATOM      9  C   UNL     1      47.168   0.713   6.976  0.00  0.00    +0.000 C 
BRANCH   9  10
ATOM     10  N   UNL     1      46.808  -0.448   7.782  0.00  0.00    +0.000 NA
ATOM     11  H   UNL     1      46.438  -0.138   8.677  0.00  0.00    +0.000 HD
ATOM     12  H   UNL     1      47.653  -0.982   7.983  0.00  0.00    +0.000 HD
ENDBRANCH   9  10
ENDBRANCH   3   9
ENDBRANCH   2   7
ENDBRANCH   1   2
BRANCH   1  13
ATOM     13  C   UNL     1      43.692   4.665  12.095  0.00  0.00    +0.000 C 
BRANCH  13  14
ATOM     14  C   UNL     1      45.077   5.200  12.376  0.00  0.00    +0.000 A 
ATOM     15  C   UNL     1      45.806   4.732  13.478  0.00  0.00    +0.000 A 
ATOM     16  C   UNL     1      47.075   5.245  13.758  0.00  0.00    +0.000 A 
ATOM     17  C   UNL     1      47.636   6.229  12.935  0.00  0.00    +0.000 A 
ATOM     18  C   UNL     1      46.907   6.713  11.844  0.00  0.00    +0.000 A 
ATOM     19  C   UNL     1      45.635   6.201  11.569  0.00  0.00    +0.000 A 
BRANCH  17  20
ATOM     20  C   UNL     1      48.988   6.746  13.279  0.00  0.00    +0.000 C 
ATOM     21  N   UNL     1      49.790   7.151  12.247  0.00  0.00    +0.000 N 
ATOM     22  O   UNL     1      49.394   6.775  14.434  0.00  0.00    +0.000 OA
ATOM     23  H   UNL     1      49.596   6.921  11.284  0.00  0.00    +0.000 HD
ATOM     24  H   UNL     1      50.742   7.392  12.493  0.00  0.00    +0.000 HD
ENDBRANCH  17  20
ENDBRANCH  13  14
ENDBRANCH   1  13
TORSDOF 7
ENDMDL
MODEL 5
REMARK VINA RESULT:    -6.947      2.610      6.618
REMARK INTER + INTRA:         -10.733
REMARK INTER:                 -10.007
REMARK INTRA:                  -0.726
REMARK UNBOUND:                -1.147
REMARK  Name = 
REMARK  7 active torsions:
REMARK  status: ('A' for Active; 'I' for Inactive)
REMARK    1  A    between atoms: N_1  and  C_2
REMARK    2  A    between atoms: C_2  and  C_3
REMARK    3  A    between atoms: C_7  and  C_8
REMARK    4  A    between atoms: C_8  and  C_9
REMARK    5  A    between atoms: C_9  and  C_10
REMARK    6  A    between atoms: C_10  and  C_11
REMARK    7  A    between atoms: C_14  and  C_15
REMARK                            x       y       z     vdW  Elec       q    Type
REMARK                         _______ _______ _______ _____ _____    ______ ____
ROOT
ATOM      1  C   UNL     1      43.847   3.976  10.450  0.00  0.00    +0.000 C 
ENDROOT
BRANCH   1   2
ATOM      2  C   UNL     1      44.320   4.403   9.058  0.00  0.00    +0.000 C 
BRANCH   2   7
ATOM      3  C   UNL     1      46.596   2.549   6.615  0.00  0.00    +0.000 A 
ATOM      4  C   UNL     1      46.668   1.289   7.221  0.00  0.00    +0.000 A 
ATOM      5  C   UNL     1      45.957   1.026   8.391  0.00  0.00    +0.000 A 
ATOM      6  C   UNL     1      45.175   2.023   8.975  0.00  0.00    +0.000 A 
ATOM      7  C   UNL     1      45.089   3.291   8.387  0.00  0.00    +0.000 A 
ATOM      8  C   UNL     1      45.799   3.541   7.204  0.00  0.00    +0.000 A 
BRANCH   3   9
ATOM      9  C   UNL     1      47.432   2.869   5.404  0.00  0.00    +0.000 C 
BRANCH   9  10
ATOM     10  N   UNL     1      48.603   2.002   5.349  0.00  0.00    +0.000 NA
ATOM     11  H   UNL     1      49.421   2.515   5.669  0.00  0.00    +0.000 HD
ATOM     12  H   UNL     1      48.778   1.748   4.378  0.00  0.00    +0.000 HD
ENDBRANCH   9  10
ENDBRANCH   3   9
ENDBRANCH   2   7
ENDBRANCH   1   2
BRANCH   1  13
ATOM     13  C   UNL     1      43.748   5.166  11.404  0.00  0.00    +0.000 C 
BRANCH  13  14
ATOM     14  C   UNL     1      45.102   5.552  11.955  0.00  0.00    +0.000 A 
ATOM     15  C   UNL     1      45.575   4.970  13.139  0.00  0.00    +0.000 A 
ATOM     16  C   UNL     1      46.814   5.345  13.666  0.00  0.00    +0.000 A 
ATOM     17  C   UNL     1      47.598   6.303  13.014  0.00  0.00    +0.000 A 
ATOM     18  C   UNL     1      47.124   6.901  11.841  0.00  0.00    +0.000 A 
ATOM     19  C   UNL     1      45.882   6.526  11.317  0.00  0.00    +0.000 A 
BRANCH  17  20
ATOM     20  C   UNL     1      48.907   6.672  13.618  0.00  0.00    +0.000 C 
ATOM     21  N   UNL     1      49.849   7.227  12.796  0.00  0.00    +0.000 N 
ATOM     22  O   UNL     1      49.157   6.454  14.798  0.00  0.00    +0.000 OA
ATOM     23  H   UNL     1      49.778   7.198  11.790  0.00  0.00    +0.000 HD
ATOM     24  H   UNL     1      50.766   7.365  13.202  0.00  0.00    +0.000 HD
ENDBRANCH  17  20
ENDBRANCH  13  14
ENDBRANCH   1  13
TORSDOF 7
ENDMDL
MODEL 6
REMARK VINA RESULT:    -6.794      2.504      7.074
REMARK INTER + INTRA:         -10.523
REMARK INTER:                  -9.844
REMARK INTRA:                  -0.679
REMARK UNBOUND:                -1.147
REMARK  Name = 
REMARK  7 active torsions:
REMARK  status: ('A' for Active; 'I' for Inactive)
REMARK    1  A    between atoms: N_1  and  C_2
REMARK    2  A    between atoms: C_2  and  C_3
REMARK    3  A    between atoms: C_7  and  C_8
REMARK    4  A    between atoms: C_8  and  C_9
REMARK    5  A    between atoms: C_9  and  C_10
REMARK    6  A    between atoms: C_10  and  C_11
REMARK    7  A    between atoms: C_14  and  C_15
REMARK                            x       y       z     vdW  Elec       q    Type
REMARK                         _______ _______ _______ _____ _____    ______ ____
ROOT
ATOM      1  C   UNL     1      45.739   5.561   9.672  0.00  0.00    +0.000 C 
ENDROOT
BRANCH   1   2
ATOM      2  C   UNL     1      44.685   4.513   9.304  0.00  0.00    +0.000 C 
BRANCH   2   7
ATOM      3  C   UNL     1      46.662   2.575   6.674  0.00  0.00    +0.000 A 
ATOM      4  C   UNL     1      46.627   1.282   7.212  0.00  0.00    +0.000 A 
ATOM      5  C   UNL     1      45.938   1.029   8.397  0.00  0.00    +0.000 A 
ATOM      6  C   UNL     1      45.286   2.067   9.064  0.00  0.00    +0.000 A 
ATOM      7  C   UNL     1      45.308   3.367   8.546  0.00  0.00    +0.000 A 
ATOM      8  C   UNL     1      45.995   3.609   7.347  0.00  0.00    +0.000 A 
BRANCH   3   9
ATOM      9  C   UNL     1      47.480   2.875   5.446  0.00  0.00    +0.000 C 
BRANCH   9  10
ATOM     10  N   UNL     1      48.510   1.859   5.259  0.00  0.00    +0.000 NA
ATOM     11  H   UNL     1      48.735   1.435   6.155  0.00  0.00    +0.000 HD
ATOM     12  H   UNL     1      49.361   2.311   4.927  0.00  0.00    +0.000 HD
ENDBRANCH   9  10
ENDBRANCH   3   9
ENDBRANCH   2   7
ENDBRANCH   1   2
BRANCH   1  13
ATOM     13  C   UNL     1      45.324   6.376  10.897  0.00  0.00    +0.000 C 
BRANCH  13  14
ATOM     14  C   UNL     1      45.920   5.813  12.168  0.00  0.00    +0.000 A 
ATOM     15  C   UNL     1      45.269   4.781  12.857  0.00  0.00    +0.000 A 
ATOM     16  C   UNL     1      45.802   4.278  14.047  0.00  0.00    +0.000 A 
ATOM     17  C   UNL     1      46.997   4.797  14.560  0.00  0.00    +0.000 A 
ATOM     18  C   UNL     1      47.643   5.839  13.886  0.00  0.00    +0.000 A 
ATOM     19  C   UNL     1      47.104   6.343  12.697  0.00  0.00    +0.000 A 
BRANCH  17  20
ATOM     20  C   UNL     1      47.521   4.231  15.832  0.00  0.00    +0.000 C 
ATOM     21  N   UNL     1      47.176   4.864  16.995  0.00  0.00    +0.000 N 
ATOM     22  O   UNL     1      48.266   3.258  15.848  0.00  0.00    +0.000 OA
ATOM     23  H   UNL     1      46.777   5.791  17.013  0.00  0.00    +0.000 HD
ATOM     24  H   UNL     1      47.634   4.530  17.835  0.00  0.00    +0.000 HD
ENDBRANCH  17  20
ENDBRANCH  13  14
ENDBRANCH   1  13
TORSDOF 7
ENDMDL
MODEL 7
REMARK VINA RESULT:    -5.956      2.892      7.297
REMARK INTER + INTRA:          -9.366
REMARK INTER:                  -8.785
REMARK INTRA:                  -0.581
REMARK UNBOUND:                -1.147
REMARK  Name = 
REMARK  7 active torsions:
REMARK  status: ('A' for Active; 'I' for Inactive)
REMARK    1  A    between atoms: N_1  and  C_2
REMARK    2  A    between atoms: C_2  and  C_3
REMARK    3  A    between atoms: C_7  and  C_8
REMARK    4  A    between atoms: C_8  and  C_9
REMARK    5  A    between atoms: C_9  and  C_10
REMARK    6  A    between atoms: C_10  and  C_11
REMARK    7  A    between atoms: C_14  and  C_15
REMARK                            x       y       z     vdW  Elec       q    Type
REMARK                         _______ _______ _______ _____ _____    ______ ____
ROOT
ATOM      1  C   UNL     1      47.099   6.547  11.300  0.00  0.00    +0.000 C 
ENDROOT
BRANCH   1   2
ATOM      2  C   UNL     1      45.574   6.518  11.168  0.00  0.00    +0.000 C 
BRANCH   2   7
ATOM      3  C   UNL     1      45.269   3.709   8.599  0.00  0.00    +0.000 A 
ATOM      4  C   UNL     1      44.425   2.819   9.275  0.00  0.00    +0.000 A 
ATOM      5  C   UNL     1      43.926   3.140  10.536  0.00  0.00    +0.000 A 
ATOM      6  C   UNL     1      44.274   4.347  11.142  0.00  0.00    +0.000 A 
ATOM      7  C   UNL     1      45.118   5.251  10.486  0.00  0.00    +0.000 A 
ATOM      8  C   UNL     1      45.606   4.924   9.213  0.00  0.00    +0.000 A 
BRANCH   3   9
ATOM      9  C   UNL     1      45.886   3.330   7.279  0.00  0.00    +0.000 C 
BRANCH   9  10
ATOM     10  N   UNL     1      46.842   4.345   6.852  0.00  0.00    +0.000 NA
ATOM     11  H   UNL     1      47.778   3.949   6.849  0.00  0.00    +0.000 HD
ATOM     12  H   UNL     1      46.846   5.101   7.536  0.00  0.00    +0.000 HD
ENDBRANCH   9  10
ENDBRANCH   3   9
ENDBRANCH   2   7
ENDBRANCH   1   2
BRANCH   1  13
ATOM     13  C   UNL     1      47.544   7.272  12.570  0.00  0.00    +0.000 C 
BRANCH  13  14
ATOM     14  C   UNL     1      47.538   6.351  13.768  0.00  0.00    +0.000 A 
ATOM     15  C   UNL     1      48.342   6.632  14.881  0.00  0.00    +0.000 A 
ATOM     16  C   UNL     1      48.360   5.767  15.979  0.00  0.00    +0.000 A 
ATOM     17  C   UNL     1      47.569   4.612  15.981  0.00  0.00    +0.000 A 
ATOM     18  C   UNL     1      46.777   4.317  14.866  0.00  0.00    +0.000 A 
ATOM     19  C   UNL     1      46.764   5.182  13.768  0.00  0.00    +0.000 A 
BRANCH  17  20
ATOM     20  C   UNL     1      47.627   3.722  17.172  0.00  0.00    +0.000 C 
ATOM     21  N   UNL     1      48.743   3.793  17.960  0.00  0.00    +0.000 N 
ATOM     22  O   UNL     1      46.734   2.922  17.424  0.00  0.00    +0.000 OA
ATOM     23  H   UNL     1      49.592   4.249  17.662  0.00  0.00    +0.000 HD
ATOM     24  H   UNL     1      48.811   3.102  18.697  0.00  0.00    +0.000 HD
ENDBRANCH  17  20
ENDBRANCH  13  14
ENDBRANCH   1  13
TORSDOF 7
ENDMDL
MODEL 8
REMARK VINA RESULT:    -5.817      3.405      7.063
REMARK INTER + INTRA:          -9.174
REMARK INTER:                  -7.852
REMARK INTRA:                  -1.322
REMARK UNBOUND:                -1.147
REMARK  Name = 
REMARK  7 active torsions:
REMARK  status: ('A' for Active; 'I' for Inactive)
REMARK    1  A    between atoms: N_1  and  C_2
REMARK    2  A    between atoms: C_2  and  C_3
REMARK    3  A    between atoms: C_7  and  C_8
REMARK    4  A    between atoms: C_8  and  C_9
REMARK    5  A    between atoms: C_9  and  C_10
REMARK    6  A    between atoms: C_10  and  C_11
REMARK    7  A    between atoms: C_14  and  C_15
REMARK                            x       y       z     vdW  Elec       q    Type
REMARK                         _______ _______ _______ _____ _____    ______ ____
ROOT
ATOM      1  C   UNL     1      46.056   7.602  12.518  0.00  0.00    +0.000 C 
ENDROOT
BRANCH   1   2
ATOM      2  C   UNL     1      45.013   7.325  11.432  0.00  0.00    +0.000 C 
BRANCH   2   7
ATOM      3  C   UNL     1      44.147   3.665  10.777  0.00  0.00    +0.000 A 
ATOM      4  C   UNL     1      43.476   3.333  11.961  0.00  0.00    +0.000 A 
ATOM      5  C   UNL     1      43.271   4.294  12.949  0.00  0.00    +0.000 A 
ATOM      6  C   UNL     1      43.744   5.594  12.771  0.00  0.00    +0.000 A 
ATOM      7  C   UNL     1      44.418   5.948  11.597  0.00  0.00    +0.000 A 
ATOM      8  C   UNL     1      44.609   4.977  10.604  0.00  0.00    +0.000 A 
BRANCH   3   9
ATOM      9  C   UNL     1      44.453   2.611   9.746  0.00  0.00    +0.000 C 
BRANCH   9  10
ATOM     10  N   UNL     1      44.352   3.166   8.402  0.00  0.00    +0.000 NA
ATOM     11  H   UNL     1      43.998   4.118   8.454  0.00  0.00    +0.000 HD
ATOM     12  H   UNL     1      43.666   2.627   7.875  0.00  0.00    +0.000 HD
ENDBRANCH   9  10
ENDBRANCH   3   9
ENDBRANCH   2   7
ENDBRANCH   1   2
BRANCH   1  13
ATOM     13  C   UNL     1      47.238   6.636  12.427  0.00  0.00    +0.000 C 
BRANCH  13  14
ATOM     14  C   UNL     1      47.481   5.928  13.740  0.00  0.00    +0.000 A 
ATOM     15  C   UNL     1      46.905   4.674  13.984  0.00  0.00    +0.000 A 
ATOM     16  C   UNL     1      47.103   4.029  15.208  0.00  0.00    +0.000 A 
ATOM     17  C   UNL     1      47.886   4.627  16.203  0.00  0.00    +0.000 A 
ATOM     18  C   UNL     1      48.450   5.887  15.972  0.00  0.00    +0.000 A 
ATOM     19  C   UNL     1      48.246   6.532  14.747  0.00  0.00    +0.000 A 
BRANCH  17  20
ATOM     20  C   UNL     1      48.063   3.903  17.490  0.00  0.00    +0.000 C 
ATOM     21  N   UNL     1      48.948   4.425  18.392  0.00  0.00    +0.000 N 
ATOM     22  O   UNL     1      47.473   2.855  17.727  0.00  0.00    +0.000 OA
ATOM     23  H   UNL     1      49.624   5.133  18.145  0.00  0.00    +0.000 HD
ATOM     24  H   UNL     1      49.136   3.857  19.210  0.00  0.00    +0.000 HD
ENDBRANCH  17  20
ENDBRANCH  13  14
ENDBRANCH   1  13
TORSDOF 7
ENDMDL
MODEL 9
REMARK VINA RESULT:    -5.758      3.502      5.704
REMARK INTER + INTRA:          -9.093
REMARK INTER:                  -8.172
REMARK INTRA:                  -0.921
REMARK UNBOUND:                -1.147
REMARK  Name = 
REMARK  7 active torsions:
REMARK  status: ('A' for Active; 'I' for Inactive)
REMARK    1  A    between atoms: N_1  and  C_2
REMARK    2  A    between atoms: C_2  and  C_3
REMARK    3  A    between atoms: C_7  and  C_8
REMARK    4  A    between atoms: C_8  and  C_9
REMARK    5  A    between atoms: C_9  and  C_10
REMARK    6  A    between atoms: C_10  and  C_11
REMARK    7  A    between atoms: C_14  and  C_15
REMARK                            x       y       z     vdW  Elec       q    Type
REMARK                         _______ _______ _______ _____ _____    ______ ____
ROOT
ATOM      1  C   UNL     1      48.872   7.007  14.027  0.00  0.00    +0.000 C 
ENDROOT
BRANCH   1   2
ATOM      2  C   UNL     1      48.901   7.372  15.514  0.00  0.00    +0.000 C 
BRANCH   2   7
ATOM      3  C   UNL     1      48.943   4.048  17.392  0.00  0.00    +0.000 A 
ATOM      4  C   UNL     1      50.298   3.950  17.732  0.00  0.00    +0.000 A 
ATOM      5  C   UNL     1      51.187   4.968  17.390  0.00  0.00    +0.000 A 
ATOM      6  C   UNL     1      50.734   6.090  16.695  0.00  0.00    +0.000 A 
ATOM      7  C   UNL     1      49.384   6.208  16.344  0.00  0.00    +0.000 A 
ATOM      8  C   UNL     1      48.496   5.184  16.702  0.00  0.00    +0.000 A 
BRANCH   3   9
ATOM      9  C   UNL     1      47.996   2.912  17.676  0.00  0.00    +0.000 C 
BRANCH   9  10
ATOM     10  N   UNL     1      46.619   3.318  17.417  0.00  0.00    +0.000 NA
ATOM     11  H   UNL     1      46.494   4.289  17.694  0.00  0.00    +0.000 HD
ATOM     12  H   UNL     1      45.997   2.764  18.004  0.00  0.00    +0.000 HD
ENDBRANCH   9  10
ENDBRANCH   3   9
ENDBRANCH   2   7
ENDBRANCH   1   2
BRANCH   1  13
ATOM     13  C   UNL     1      47.627   7.558  13.332  0.00  0.00    +0.000 C 
BRANCH  13  14
ATOM     14  C   UNL     1      46.721   6.448  12.850  0.00  0.00    +0.000 A 
ATOM     15  C   UNL     1      46.664   5.231  13.543  0.00  0.00    +0.000 A 
ATOM     16  C   UNL     1      45.849   4.193  13.084  0.00  0.00    +0.000 A 
ATOM     17  C   UNL     1      45.075   4.359  11.930  0.00  0.00    +0.000 A 
ATOM     18  C   UNL     1      45.141   5.566  11.224  0.00  0.00    +0.000 A 
ATOM     19  C   UNL     1      45.961   6.602  11.683  0.00  0.00    +0.000 A 
BRANCH  17  20
ATOM     20  C   UNL     1      44.228   3.222  11.480  0.00  0.00    +0.000 C 
ATOM     21  N   UNL     1      43.775   2.355  12.436  0.00  0.00    +0.000 N 
ATOM     22  O   UNL     1      43.973   3.036  10.296  0.00  0.00    +0.000 OA
ATOM     23  H   UNL     1      44.154   2.329  13.371  0.00  0.00    +0.000 HD
ATOM     24  H   UNL     1      43.296   1.530  12.096  0.00  0.00    +0.000 HD
ENDBRANCH  17  20
ENDBRANCH  13  14
ENDBRANCH   1  13
TORSDOF 7
ENDMDL
