MODEL 1
REMARK VINA RESULT:    -8.113      0.000      0.000
REMARK INTER + INTRA:         -10.874
REMARK INTER:                 -10.248
REMARK INTRA:                  -0.626
REMARK UNBOUND:                -0.626
REMARK  Name = 
REMARK  5 active torsions:
REMARK  status: ('A' for Active; 'I' for Inactive)
REMARK    1  A    between atoms: N_1  and  C_2
REMARK    2  A    between atoms: C_2  and  C_3
REMARK    3  A    between atoms: C_3  and  C_4
REMARK    4  A    between atoms: C_7  and  C_8
REMARK    5  A    between atoms: C_8  and  N_9
REMARK                            x       y       z     vdW  Elec       q    Type
REMARK                         _______ _______ _______ _____ _____    ______ ____
ROOT
ATOM      1  C   UNL     1      46.168   2.294   7.770  0.00  0.00    +0.000 A 
ATOM      2  C   UNL     1      46.193   3.690   7.658  0.00  0.00    +0.000 A 
ATOM      3  C   UNL     1      45.443   4.489   8.528  0.00  0.00    +0.000 A 
ATOM      4  C   UNL     1      44.642   3.905   9.519  0.00  0.00    +0.000 A 
ATOM      5  C   UNL     1      44.609   2.511   9.606  0.00  0.00    +0.000 A 
ATOM      6  F   UNL     1      43.820   1.917  10.513  0.00  0.00    +0.000 F 
ATOM      7  C   UNL     1      45.359   1.709   8.749  0.00  0.00    +0.000 A 
ENDROOT
BRANCH   1   8
ATOM      8  C   UNL     1      46.977   1.435   6.828  0.00  0.00    +0.000 C 
BRANCH   8   9
ATOM      9  C   UNL     1      48.280   2.123   6.414  0.00  0.00    +0.000 C 
BRANCH   9  10
ATOM     10  N   UNL     1      48.268   2.472   4.995  0.00  0.00    +0.000 NA
ATOM     11  H   UNL     1      48.826   1.795   4.477  0.00  0.00    +0.000 HD
ATOM     12  H   UNL     1      48.721   3.375   4.857  0.00  0.00    +0.000 HD
ENDBRANCH   9  10
ENDBRANCH   8   9
ENDBRANCH   1   8
BRANCH   4  13
ATOM     13  C   UNL     1      43.835   4.749  10.463  0.00  0.00    +0.000 C 
BRANCH  13  14
ATOM     14  N   UNL     1      44.463   4.885  11.768  0.00  0.00    +0.000 N 
ATOM     15  C   UNL     1      44.112   4.168  12.881  0.00  0.00    +0.000 A 
ATOM     16  N   UNL     1      44.965   4.347  13.864  0.00  0.00    +0.000 NA
ATOM     17  C   UNL     1      45.910   5.211  13.370  0.00  0.00    +0.000 A 
ATOM     18  C   UNL     1      47.070   5.703  13.985  0.00  0.00    +0.000 A 
ATOM     19  C   UNL     1      47.888   6.569  13.256  0.00  0.00    +0.000 A 
ATOM     20 CL   UNL     1      49.342   7.156  13.969  0.00  0.00    +0.000 Cl
ATOM     21  C   UNL     1      47.557   6.960  11.957  0.00  0.00    +0.000 A 
ATOM     22  C   UNL     1      46.404   6.478  11.330  0.00  0.00    +0.000 A 
ATOM     23  C   UNL     1      45.609   5.590  12.062  0.00  0.00    +0.000 A 
ENDBRANCH  13  14
ENDBRANCH   4  13
TORSDOF 5
ENDMDL
MODEL 2
REMARK VINA RESULT:    -7.656      1.093      1.514
REMARK INTER + INTRA:         -10.297
REMARK INTER:                  -9.727
REMARK INTRA:                  -0.570
REMARK UNBOUND:                -0.626
REMARK  Name = 
REMARK  5 active torsions:
REMARK  status: ('A' for Active; 'I' for Inactive)
REMARK    1  A    between atoms: N_1  and  C_2
REMARK    2  A    between atoms: C_2  and  C_3
REMARK    3  A    between atoms: C_3  and  C_4
REMARK    4  A    between atoms: C_7  and  C_8
REMARK    5  A    between atoms: C_8  and  N_9
REMARK                            x       y       z     vdW  Elec       q    Type
REMARK                         _______ _______ _______ _____ _____    ______ ____
ROOT
ATOM      1  C   UNL     1      46.115   2.352   7.804  0.00  0.00    +0.000 A 
ATOM      2  C   UNL     1      45.284   1.774   8.772  0.00  0.00    +0.000 A 
ATOM      3  C   UNL     1      44.629   2.570   9.718  0.00  0.00    +0.000 A 
ATOM      4  C   UNL     1      44.803   3.960   9.721  0.00  0.00    +0.000 A 
ATOM      5  C   UNL     1      45.651   4.523   8.764  0.00  0.00    +0.000 A 
ATOM      6  F   UNL     1      45.875   5.845   8.765  0.00  0.00    +0.000 F 
ATOM      7  C   UNL     1      46.301   3.739   7.814  0.00  0.00    +0.000 A 
ENDROOT
BRANCH   1   8
ATOM      8  C   UNL     1      46.822   1.490   6.787  0.00  0.00    +0.000 C 
BRANCH   8   9
ATOM      9  C   UNL     1      48.202   2.051   6.432  0.00  0.00    +0.000 C 
BRANCH   9  10
ATOM     10  N   UNL     1      48.274   2.429   5.022  0.00  0.00    +0.000 NA
ATOM     11  H   UNL     1      48.123   1.603   4.444  0.00  0.00    +0.000 HD
ATOM     12  H   UNL     1      49.213   2.759   4.801  0.00  0.00    +0.000 HD
ENDBRANCH   9  10
ENDBRANCH   8   9
ENDBRANCH   1   8
BRANCH   4  13
ATOM     13  C   UNL     1      44.103   4.829  10.726  0.00  0.00    +0.000 C 
BRANCH  13  14
ATOM     14  N   UNL     1      44.819   4.912  11.990  0.00  0.00    +0.000 N 
ATOM     15  C   UNL     1      44.603   4.091  13.064  0.00  0.00    +0.000 A 
ATOM     16  N   UNL     1      45.517   4.256  13.995  0.00  0.00    +0.000 NA
ATOM     17  C   UNL     1      46.361   5.220  13.504  0.00  0.00    +0.000 A 
ATOM     18  C   UNL     1      47.531   5.746  14.072  0.00  0.00    +0.000 A 
ATOM     19  C   UNL     1      48.232   6.720  13.357  0.00  0.00    +0.000 A 
ATOM     20 CL   UNL     1      49.695   7.354  14.008  0.00  0.00    +0.000 Cl
ATOM     21  C   UNL     1      47.777   7.183  12.121  0.00  0.00    +0.000 A 
ATOM     22  C   UNL     1      46.613   6.668  11.542  0.00  0.00    +0.000 A 
ATOM     23  C   UNL     1      45.936   5.673  12.256  0.00  0.00    +0.000 A 
ENDBRANCH  13  14
ENDBRANCH   4  13
TORSDOF 5
ENDMDL
MODEL 3
REMARK VINA RESULT:    -6.781      3.324      6.624
REMARK INTER + INTRA:          -9.191
REMARK INTER:                  -8.693
REMARK INTRA:                  -0.498
REMARK UNBOUND:                -0.626
REMARK  Name = 
REMARK  5 active torsions:
REMARK  status: ('A' for Active; 'I' for Inactive)
REMARK    1  A    between atoms: N_1  and  C_2
REMARK    2  A    between atoms: C_2  and  C_3
REMARK    3  A    between atoms: C_3  and  C_4
REMARK    4  A    between atoms: C_7  and  C_8
REMARK    5  A    between atoms: C_8  and  N_9
REMARK                            x       y       z     vdW  Elec       q    Type
REMARK                         _______ _______ _______ _____ _____    ______ ____
ROOT
ATOM      1  C   UNL     1      47.093   8.109  12.927  0.00  0.00    +0.000 A 
ATOM      2  C   UNL     1      46.897   6.743  13.164  0.00  0.00    +0.000 A 
ATOM      3  C   UNL     1      45.783   6.080  12.639  0.00  0.00    +0.000 A 
ATOM      4  C   UNL     1      44.836   6.776  11.875  0.00  0.00    +0.000 A 
ATOM      5  C   UNL     1      45.032   8.143  11.663  0.00  0.00    +0.000 A 
ATOM      6  F   UNL     1      44.123   8.849  10.975  0.00  0.00    +0.000 F 
ATOM      7  C   UNL     1      46.142   8.809  12.177  0.00  0.00    +0.000 A 
ENDROOT
BRANCH   1   8
ATOM      8  C   UNL     1      48.295   8.821  13.498  0.00  0.00    +0.000 C 
BRANCH   8   9
ATOM      9  C   UNL     1      48.487   8.504  14.984  0.00  0.00    +0.000 C 
BRANCH   9  10
ATOM     10  N   UNL     1      47.496   9.195  15.806  0.00  0.00    +0.000 NA
ATOM     11  H   UNL     1      46.861   9.716  15.202  0.00  0.00    +0.000 HD
ATOM     12  H   UNL     1      47.958   9.889  16.393  0.00  0.00    +0.000 HD
ENDBRANCH   9  10
ENDBRANCH   8   9
ENDBRANCH   1   8
BRANCH   4  13
ATOM     13  C   UNL     1      43.637   6.078  11.299  0.00  0.00    +0.000 C 
BRANCH  13  14
ATOM     14  N   UNL     1      43.911   4.693  10.948  0.00  0.00    +0.000 N 
ATOM     15  C   UNL     1      43.269   3.610  11.486  0.00  0.00    +0.000 A 
ATOM     16  N   UNL     1      43.572   2.500  10.852  0.00  0.00    +0.000 NA
ATOM     17  C   UNL     1      44.443   2.876   9.861  0.00  0.00    +0.000 A 
ATOM     18  C   UNL     1      45.044   2.093   8.865  0.00  0.00    +0.000 A 
ATOM     19  C   UNL     1      45.892   2.724   7.951  0.00  0.00    +0.000 A 
ATOM     20 CL   UNL     1      46.612   1.797   6.690  0.00  0.00    +0.000 Cl
ATOM     21  C   UNL     1      46.159   4.092   8.032  0.00  0.00    +0.000 A 
ATOM     22  C   UNL     1      45.566   4.886   9.019  0.00  0.00    +0.000 A 
ATOM     23  C   UNL     1      44.699   4.246   9.910  0.00  0.00    +0.000 A 
ENDBRANCH  13  14
ENDBRANCH   4  13
TORSDOF 5
ENDMDL
MODEL 4
REMARK VINA RESULT:    -6.768      3.334      6.194
REMARK INTER + INTRA:          -9.175
REMARK INTER:                  -8.584
REMARK INTRA:                  -0.590
REMARK UNBOUND:                -0.626
REMARK  Name = 
REMARK  5 active torsions:
REMARK  status: ('A' for Active; 'I' for Inactive)
REMARK    1  A    between atoms: N_1  and  C_2
REMARK    2  A    between atoms: C_2  and  C_3
REMARK    3  A    between atoms: C_3  and  C_4
REMARK    4  A    between atoms: C_7  and  C_8
REMARK    5  A    between atoms: C_8  and  N_9
REMARK                            x       y       z     vdW  Elec       q    Type
REMARK                         _______ _______ _______ _____ _____    ______ ____
ROOT
ATOM      1  C   UNL     1      47.903   7.019  13.899  0.00  0.00    +0.000 A 
ATOM      2  C   UNL     1      47.483   5.690  14.039  0.00  0.00    +0.000 A 
ATOM      3  C   UNL     1      46.232   5.283  13.562  0.00  0.00    +0.000 A 
ATOM      4  C   UNL     1      45.372   6.203  12.947  0.00  0.00    +0.000 A 
ATOM      5  C   UNL     1      45.794   7.530  12.833  0.00  0.00    +0.000 A 
ATOM      6  F   UNL     1      44.979   8.446  12.290  0.00  0.00    +0.000 F 
ATOM      7  C   UNL     1      47.040   7.941  13.299  0.00  0.00    +0.000 A 
ENDROOT
BRANCH   1   8
ATOM      8  C   UNL     1      49.252   7.454  14.418  0.00  0.00    +0.000 C 
BRANCH   8   9
ATOM      9  C   UNL     1      50.085   8.133  13.326  0.00  0.00    +0.000 C 
BRANCH   9  10
ATOM     10  N   UNL     1      50.337   7.225  12.210  0.00  0.00    +0.000 NA
ATOM     11  H   UNL     1      51.340   7.183  12.030  0.00  0.00    +0.000 HD
ATOM     12  H   UNL     1      49.915   7.597  11.360  0.00  0.00    +0.000 HD
ENDBRANCH   9  10
ENDBRANCH   8   9
ENDBRANCH   1   8
BRANCH   4  13
ATOM     13  C   UNL     1      44.028   5.781  12.425  0.00  0.00    +0.000 C 
BRANCH  13  14
ATOM     14  N   UNL     1      44.095   4.574  11.617  0.00  0.00    +0.000 N 
ATOM     15  C   UNL     1      43.367   3.438  11.849  0.00  0.00    +0.000 A 
ATOM     16  N   UNL     1      43.475   2.580  10.859  0.00  0.00    +0.000 NA
ATOM     17  C   UNL     1      44.303   3.183   9.947  0.00  0.00    +0.000 A 
ATOM     18  C   UNL     1      44.718   2.726   8.688  0.00  0.00    +0.000 A 
ATOM     19  C   UNL     1      45.561   3.545   7.932  0.00  0.00    +0.000 A 
ATOM     20 CL   UNL     1      46.053   3.029   6.364  0.00  0.00    +0.000 Cl
ATOM     21  C   UNL     1      46.005   4.776   8.418  0.00  0.00    +0.000 A 
ATOM     22  C   UNL     1      45.599   5.246   9.671  0.00  0.00    +0.000 A 
ATOM     23  C   UNL     1      44.733   4.428  10.404  0.00  0.00    +0.000 A 
ENDBRANCH  13  14
ENDBRANCH   4  13
TORSDOF 5
ENDMDL
MODEL 5
REMARK VINA RESULT:    -6.320      3.068      6.440
REMARK INTER + INTRA:          -8.608
REMARK INTER:                  -8.313
REMARK INTRA:                  -0.295
REMARK UNBOUND:                -0.626
REMARK  Name = 
REMARK  5 active torsions:
REMARK  status: ('A' for Active; 'I' for Inactive)
REMARK    1  A    between atoms: N_1  and  C_2
REMARK    2  A    between atoms: C_2  and  C_3
REMARK    3  A    between atoms: C_3  and  C_4
REMARK    4  A    between atoms: C_7  and  C_8
REMARK    5  A    between atoms: C_8  and  N_9
REMARK                            x       y       z     vdW  Elec       q    Type
REMARK                         _______ _______ _______ _____ _____    ______ ____
ROOT
ATOM      1  C   UNL     1      47.903   6.553  14.244  0.00  0.00    +0.000 A 
ATOM      2  C   UNL     1      47.417   7.541  13.378  0.00  0.00    +0.000 A 
ATOM      3  C   UNL     1      46.244   7.333  12.645  0.00  0.00    +0.000 A 
ATOM      4  C   UNL     1      45.539   6.126  12.757  0.00  0.00    +0.000 A 
ATOM      5  C   UNL     1      46.046   5.141  13.609  0.00  0.00    +0.000 A 
ATOM      6  F   UNL     1      45.422   3.958  13.706  0.00  0.00    +0.000 F 
ATOM      7  C   UNL     1      47.209   5.343  14.346  0.00  0.00    +0.000 A 
ENDROOT
BRANCH   1   8
ATOM      8  C   UNL     1      49.171   6.780  15.031  0.00  0.00    +0.000 C 
BRANCH   8   9
ATOM      9  C   UNL     1      49.033   6.298  16.478  0.00  0.00    +0.000 C 
BRANCH   9  10
ATOM     10  N   UNL     1      50.001   5.247  16.782  0.00  0.00    +0.000 NA
ATOM     11  H   UNL     1      50.503   5.488  17.636  0.00  0.00    +0.000 HD
ATOM     12  H   UNL     1      50.705   5.203  16.045  0.00  0.00    +0.000 HD
ENDBRANCH   9  10
ENDBRANCH   8   9
ENDBRANCH   1   8
BRANCH   4  13
ATOM     13  C   UNL     1      44.275   5.890  11.982  0.00  0.00    +0.000 C 
BRANCH  13  14
ATOM     14  N   UNL     1      44.317   4.661  11.204  0.00  0.00    +0.000 N 
ATOM     15  C   UNL     1      43.538   3.561  11.440  0.00  0.00    +0.000 A 
ATOM     16  N   UNL     1      43.640   2.675  10.474  0.00  0.00    +0.000 NA
ATOM     17  C   UNL     1      44.518   3.223   9.574  0.00  0.00    +0.000 A 
ATOM     18  C   UNL     1      44.951   2.719   8.339  0.00  0.00    +0.000 A 
ATOM     19  C   UNL     1      45.848   3.485   7.590  0.00  0.00    +0.000 A 
ATOM     20 CL   UNL     1      46.365   2.912   6.051  0.00  0.00    +0.000 Cl
ATOM     21  C   UNL     1      46.327   4.709   8.060  0.00  0.00    +0.000 A 
ATOM     22  C   UNL     1      45.904   5.225   9.290  0.00  0.00    +0.000 A 
ATOM     23  C   UNL     1      44.984   4.461  10.015  0.00  0.00    +0.000 A 
ENDBRANCH  13  14
ENDBRANCH   4  13
TORSDOF 5
ENDMDL
MODEL 6
REMARK VINA RESULT:    -5.599      3.899      6.326
REMARK INTER + INTRA:          -7.698
REMARK INTER:                  -7.242
REMARK INTRA:                  -0.456
REMARK UNBOUND:                -0.626
REMARK  Name = 
REMARK  5 active torsions:
REMARK  status: ('A' for Active; 'I' for Inactive)
REMARK    1  A    between atoms: N_1  and  C_2
REMARK    2  A    between atoms: C_2  and  C_3
REMARK    3  A    between atoms: C_3  and  C_4
REMARK    4  A    between atoms: C_7  and  C_8
REMARK    5  A    between atoms: C_8  and  N_9
REMARK                            x       y       z     vdW  Elec       q    Type
REMARK                         _______ _______ _______ _____ _____    ______ ____
ROOT
ATOM      1  C   UNL     1      49.818   8.711  11.822  0.00  0.00    +0.000 A 
ATOM      2  C   UNL     1      49.610   7.405  12.284  0.00  0.00    +0.000 A 
ATOM      3  C   UNL     1      48.324   6.959  12.609  0.00  0.00    +0.000 A 
ATOM      4  C   UNL     1      47.222   7.817  12.490  0.00  0.00    +0.000 A 
ATOM      5  C   UNL     1      47.446   9.124  12.049  0.00  0.00    +0.000 A 
ATOM      6  F   UNL     1      46.422   9.985  11.966  0.00  0.00    +0.000 F 
ATOM      7  C   UNL     1      48.722   9.574  11.717  0.00  0.00    +0.000 A 
ENDROOT
BRANCH   1   8
ATOM      8  C   UNL     1      51.207   9.189  11.475  0.00  0.00    +0.000 C 
BRANCH   8   9
ATOM      9  C   UNL     1      52.039   8.082  10.822  0.00  0.00    +0.000 C 
BRANCH   9  10
ATOM     10  N   UNL     1      53.081   7.599  11.726  0.00  0.00    +0.000 NA
ATOM     11  H   UNL     1      53.987   7.670  11.264  0.00  0.00    +0.000 HD
ATOM     12  H   UNL     1      52.940   6.608  11.917  0.00  0.00    +0.000 HD
ENDBRANCH   9  10
ENDBRANCH   8   9
ENDBRANCH   1   8
BRANCH   4  13
ATOM     13  C   UNL     1      45.835   7.352  12.830  0.00  0.00    +0.000 C 
BRANCH  13  14
ATOM     14  N   UNL     1      45.671   5.916  12.666  0.00  0.00    +0.000 N 
ATOM     15  C   UNL     1      45.462   5.034  13.691  0.00  0.00    +0.000 A 
ATOM     16  N   UNL     1      45.153   3.836  13.247  0.00  0.00    +0.000 NA
ATOM     17  C   UNL     1      45.158   3.945  11.880  0.00  0.00    +0.000 A 
ATOM     18  C   UNL     1      44.855   2.978  10.911  0.00  0.00    +0.000 A 
ATOM     19  C   UNL     1      44.917   3.347   9.565  0.00  0.00    +0.000 A 
ATOM     20 CL   UNL     1      44.509   2.193   8.354  0.00  0.00    +0.000 Cl
ATOM     21  C   UNL     1      45.295   4.635   9.182  0.00  0.00    +0.000 A 
ATOM     22  C   UNL     1      45.600   5.611  10.136  0.00  0.00    +0.000 A 
ATOM     23  C   UNL     1      45.506   5.235  11.480  0.00  0.00    +0.000 A 
ENDBRANCH  13  14
ENDBRANCH   4  13
TORSDOF 5
ENDMDL
MODEL 7
REMARK VINA RESULT:    -5.402      3.140      6.259
REMARK INTER + INTRA:          -7.449
REMARK INTER:                  -7.384
REMARK INTRA:                  -0.065
REMARK UNBOUND:                -0.626
REMARK  Name = 
REMARK  5 active torsions:
REMARK  status: ('A' for Active; 'I' for Inactive)
REMARK    1  A    between atoms: N_1  and  C_2
REMARK    2  A    between atoms: C_2  and  C_3
REMARK    3  A    between atoms: C_3  and  C_4
REMARK    4  A    between atoms: C_7  and  C_8
REMARK    5  A    between atoms: C_8  and  N_9
REMARK                            x       y       z     vdW  Elec       q    Type
REMARK                         _______ _______ _______ _____ _____    ______ ____
ROOT
ATOM      1  C   UNL     1      46.351   7.196  12.750  0.00  0.00    +0.000 A 
ATOM      2  C   UNL     1      46.761   6.900  11.444  0.00  0.00    +0.000 A 
ATOM      3  C   UNL     1      45.962   6.117  10.604  0.00  0.00    +0.000 A 
ATOM      4  C   UNL     1      44.740   5.604  11.061  0.00  0.00    +0.000 A 
ATOM      5  C   UNL     1      44.352   5.888  12.373  0.00  0.00    +0.000 A 
ATOM      6  F   UNL     1      43.211   5.377  12.857  0.00  0.00    +0.000 F 
ATOM      7  C   UNL     1      45.139   6.672  13.213  0.00  0.00    +0.000 A 
ENDROOT
BRANCH   1   8
ATOM      8  C   UNL     1      47.218   8.038  13.654  0.00  0.00    +0.000 C 
BRANCH   8   9
ATOM      9  C   UNL     1      48.475   8.531  12.933  0.00  0.00    +0.000 C 
BRANCH   9  10
ATOM     10  N   UNL     1      48.317   9.909  12.474  0.00  0.00    +0.000 NA
ATOM     11  H   UNL     1      48.302  10.533  13.280  0.00  0.00    +0.000 HD
ATOM     12  H   UNL     1      47.412  10.019  12.017  0.00  0.00    +0.000 HD
ENDBRANCH   9  10
ENDBRANCH   8   9
ENDBRANCH   1   8
BRANCH   4  13
ATOM     13  C   UNL     1      43.867   4.767  10.170  0.00  0.00    +0.000 C 
BRANCH  13  14
ATOM     14  N   UNL     1      44.541   3.569   9.694  0.00  0.00    +0.000 N 
ATOM     15  C   UNL     1      44.227   2.293  10.078  0.00  0.00    +0.000 A 
ATOM     16  N   UNL     1      44.855   1.397   9.350  0.00  0.00    +0.000 NA
ATOM     17  C   UNL     1      45.605   2.119   8.456  0.00  0.00    +0.000 A 
ATOM     18  C   UNL     1      46.434   1.662   7.422  0.00  0.00    +0.000 A 
ATOM     19  C   UNL     1      47.085   2.611   6.629  0.00  0.00    +0.000 A 
ATOM     20 CL   UNL     1      48.076   2.082   5.324  0.00  0.00    +0.000 Cl
ATOM     21  C   UNL     1      46.942   3.979   6.868  0.00  0.00    +0.000 A 
ATOM     22  C   UNL     1      46.118   4.450   7.896  0.00  0.00    +0.000 A 
ATOM     23  C   UNL     1      45.451   3.489   8.663  0.00  0.00    +0.000 A 
ENDBRANCH  13  14
ENDBRANCH   4  13
TORSDOF 5
ENDMDL
MODEL 8
REMARK VINA RESULT:    -5.347      5.118      8.062
REMARK INTER + INTRA:          -7.380
REMARK INTER:                  -6.719
REMARK INTRA:                  -0.661
REMARK UNBOUND:                -0.626
REMARK  Name = 
REMARK  5 active torsions:
REMARK  status: ('A' for Active; 'I' for Inactive)
REMARK    1  A    between atoms: N_1  and  C_2
REMARK    2  A    between atoms: C_2  and  C_3
REMARK    3  A    between atoms: C_3  and  C_4
REMARK    4  A    between atoms: C_7  and  C_8
REMARK    5  A    between atoms: C_8  and  N_9
REMARK                            x       y       z     vdW  Elec       q    Type
REMARK                         _______ _______ _______ _____ _____    ______ ____
ROOT
ATOM      1  C   UNL     1      51.620   2.841  17.767  0.00  0.00    +0.000 A 
ATOM      2  C   UNL     1      51.571   4.239  17.846  0.00  0.00    +0.000 A 
ATOM      3  C   UNL     1      50.387   4.929  17.564  0.00  0.00    +0.000 A 
ATOM      4  C   UNL     1      49.231   4.233  17.186  0.00  0.00    +0.000 A 
ATOM      5  C   UNL     1      49.298   2.841  17.089  0.00  0.00    +0.000 A 
ATOM      6  F   UNL     1      48.224   2.147  16.687  0.00  0.00    +0.000 F 
ATOM      7  C   UNL     1      50.471   2.146  17.375  0.00  0.00    +0.000 A 
ENDROOT
BRANCH   1   8
ATOM      8  C   UNL     1      52.900   2.100  18.068  0.00  0.00    +0.000 C 
BRANCH   8   9
ATOM      9  C   UNL     1      52.916   0.713  17.420  0.00  0.00    +0.000 C 
BRANCH   9  10
ATOM     10  N   UNL     1      52.975  -0.343  18.427  0.00  0.00    +0.000 NA
ATOM     11  H   UNL     1      52.481  -1.165  18.083  0.00  0.00    +0.000 HD
ATOM     12  H   UNL     1      52.478  -0.047  19.267  0.00  0.00    +0.000 HD
ENDBRANCH   9  10
ENDBRANCH   8   9
ENDBRANCH   1   8
BRANCH   4  13
ATOM     13  C   UNL     1      47.951   4.959  16.885  0.00  0.00    +0.000 C 
BRANCH  13  14
ATOM     14  N   UNL     1      47.740   5.154  15.459  0.00  0.00    +0.000 N 
ATOM     15  C   UNL     1      46.850   4.445  14.699  0.00  0.00    +0.000 A 
ATOM     16  N   UNL     1      46.722   4.956  13.494  0.00  0.00    +0.000 NA
ATOM     17  C   UNL     1      47.561   6.041  13.473  0.00  0.00    +0.000 A 
ATOM     18  C   UNL     1      47.781   6.971  12.446  0.00  0.00    +0.000 A 
ATOM     19  C   UNL     1      48.685   8.011  12.679  0.00  0.00    +0.000 A 
ATOM     20 CL   UNL     1      48.945   9.192  11.454  0.00  0.00    +0.000 Cl
ATOM     21  C   UNL     1      49.375   8.117  13.889  0.00  0.00    +0.000 A 
ATOM     22  C   UNL     1      49.165   7.198  14.922  0.00  0.00    +0.000 A 
ATOM     23  C   UNL     1      48.237   6.179  14.685  0.00  0.00    +0.000 A 
ENDBRANCH  13  14
ENDBRANCH   4  13
TORSDOF 5
ENDMDL
MODEL 9
REMARK VINA RESULT:    -5.255      3.862      5.818
REMARK INTER + INTRA:          -7.264
REMARK INTER:                  -6.638
REMARK INTRA:                  -0.626
REMARK UNBOUND:                -0.626
REMARK  Name = 
REMARK  5 active torsions:
REMARK  status: ('A' for Active; 'I' for Inactive)
REMARK    1  A    between atoms: N_1  and  C_2
REMARK    2  A    between atoms: C_2  and  C_3
REMARK    3  A    between atoms: C_3  and  C_4
REMARK    4  A    between atoms: C_7  and  C_8
REMARK    5  A    between atoms: C_8  and  N_9
REMARK                            x       y       z     vdW  Elec       q    Type
REMARK                         _______ _______ _______ _____ _____    ______ ____
ROOT
ATOM      1  C   UNL     1      44.964   5.095  12.076  0.00  0.00    +0.000 A 
ATOM      2  C   UNL     1      45.574   6.129  11.355  0.00  0.00    +0.000 A 
ATOM      3  C   UNL     1      46.822   6.630  11.742  0.00  0.00    +0.000 A 
ATOM      4  C   UNL     1      47.477   6.113  12.868  0.00  0.00    +0.000 A 
ATOM      5  C   UNL     1      46.848   5.096  13.592  0.00  0.00    +0.000 A 
ATOM      6  F   UNL     1      47.426   4.609  14.699  0.00  0.00    +0.000 F 
ATOM      7  C   UNL     1      45.609   4.588  13.208  0.00  0.00    +0.000 A 
ENDROOT
BRANCH   1   8
ATOM      8  C   UNL     1      43.616   4.560  11.656  0.00  0.00    +0.000 C 
BRANCH   8   9
ATOM      9  C   UNL     1      43.738   3.194  10.974  0.00  0.00    +0.000 C 
BRANCH   9  10
ATOM     10  N   UNL     1      43.006   2.166  11.710  0.00  0.00    +0.000 NA
ATOM     11  H   UNL     1      42.007   2.361  11.656  0.00  0.00    +0.000 HD
ATOM     12  H   UNL     1      43.249   2.211  12.699  0.00  0.00    +0.000 HD
ENDBRANCH   9  10
ENDBRANCH   8   9
ENDBRANCH   1   8
BRANCH   4  13
ATOM     13  C   UNL     1      48.819   6.636  13.295  0.00  0.00    +0.000 C 
BRANCH  13  14
ATOM     14  N   UNL     1      48.735   7.518  14.448  0.00  0.00    +0.000 N 
ATOM     15  C   UNL     1      48.070   8.714  14.468  0.00  0.00    +0.000 A 
ATOM     16  N   UNL     1      47.989   9.206  15.684  0.00  0.00    +0.000 NA
ATOM     17  C   UNL     1      48.624   8.292  16.487  0.00  0.00    +0.000 A 
ATOM     18  C   UNL     1      48.792   8.299  17.879  0.00  0.00    +0.000 A 
ATOM     19  C   UNL     1      49.471   7.230  18.468  0.00  0.00    +0.000 A 
ATOM     20 CL   UNL     1      49.655   7.189  20.180  0.00  0.00    +0.000 Cl
ATOM     21  C   UNL     1      49.994   6.189  17.699  0.00  0.00    +0.000 A 
ATOM     22  C   UNL     1      49.835   6.168  16.310  0.00  0.00    +0.000 A 
ATOM     23  C   UNL     1      49.129   7.230  15.737  0.00  0.00    +0.000 A 
ENDBRANCH  13  14
ENDBRANCH   4  13
TORSDOF 5
ENDMDL
