MODEL 1
REMARK VINA RESULT:    -8.081      0.000      0.000
REMARK INTER + INTRA:         -10.962
REMARK INTER:                 -10.443
REMARK INTRA:                  -0.520
REMARK UNBOUND:                -0.520
REMARK  Name = 
REMARK  6 active torsions:
REMARK  status: ('A' for Active; 'I' for Inactive)
REMARK    1  A    between atoms: N_1  and  C_2
REMARK    2  A    between atoms: C_2  and  C_3
REMARK    3  A    between atoms: C_7  and  C_8
REMARK    4  A    between atoms: C_8  and  N_9
REMARK    5  A    between atoms: C_15  and  C_16
REMARK    6  A    between atoms: C_16  and  O_18
REMARK                            x       y       z     vdW  Elec       q    Type
REMARK                         _______ _______ _______ _____ _____    ______ ____
ROOT
ATOM      1  N   UNL     1      44.130   4.247  10.501  0.00  0.00    +0.000 N 
ATOM      2  N   UNL     1      43.190   3.481  11.103  0.00  0.00    +0.000 NA
ATOM      3  C   UNL     1      43.474   3.585  12.402  0.00  0.00    +0.000 A 
ATOM      4  C   UNL     1      44.599   4.402  12.649  0.00  0.00    +0.000 A 
ATOM      5  C   UNL     1      45.321   4.803  13.785  0.00  0.00    +0.000 A 
ATOM      6  C   UNL     1      46.461   5.605  13.624  0.00  0.00    +0.000 A 
ATOM      7  C   UNL     1      46.858   6.031  12.350  0.00  0.00    +0.000 A 
ATOM      8  C   UNL     1      46.128   5.654  11.209  0.00  0.00    +0.000 A 
ATOM      9  C   UNL     1      45.011   4.828  11.389  0.00  0.00    +0.000 A 
ENDROOT
BRANCH   7  10
ATOM     10  C   UNL     1      48.100   6.818  12.124  0.00  0.00    +0.000 C 
ATOM     11  O   UNL     1      48.127   7.800  11.402  0.00  0.00    +0.000 OA
BRANCH  10  12
ATOM     12  O   UNL     1      49.183   6.373  12.794  0.00  0.00    +0.000 OA
ATOM     13  H   UNL     1      49.006   5.736  13.508  0.00  0.00    +0.000 HD
ENDBRANCH  10  12
ENDBRANCH   7  10
BRANCH   1  14
ATOM     14  C   UNL     1      44.196   4.285   9.043  0.00  0.00    +0.000 C 
BRANCH  14  19
ATOM     15  C   UNL     1      46.706   2.575   6.707  0.00  0.00    +0.000 A 
ATOM     16  C   UNL     1      46.732   1.337   7.333  0.00  0.00    +0.000 A 
ATOM     17  N   UNL     1      46.055   1.048   8.467  0.00  0.00    +0.000 NA
ATOM     18  C   UNL     1      45.288   2.032   8.985  0.00  0.00    +0.000 A 
ATOM     19  C   UNL     1      45.178   3.312   8.449  0.00  0.00    +0.000 A 
ATOM     20  C   UNL     1      45.910   3.571   7.285  0.00  0.00    +0.000 A 
BRANCH  15  21
ATOM     21  C   UNL     1      47.428   2.815   5.416  0.00  0.00    +0.000 C 
BRANCH  21  22
ATOM     22  N   UNL     1      48.482   1.828   5.220  0.00  0.00    +0.000 NA
ATOM     23  H   UNL     1      49.094   2.131   4.465  0.00  0.00    +0.000 HD
ATOM     24  H   UNL     1      48.066   0.950   4.915  0.00  0.00    +0.000 HD
ENDBRANCH  21  22
ENDBRANCH  15  21
ENDBRANCH  14  19
ENDBRANCH   1  14
TORSDOF 6
ENDMDL
MODEL 2
REMARK VINA RESULT:    -7.653      2.153      2.826
REMARK INTER + INTRA:         -10.409
REMARK INTER:                  -9.915
REMARK INTRA:                  -0.495
REMARK UNBOUND:                -0.520
REMARK  Name = 
REMARK  6 active torsions:
REMARK  status: ('A' for Active; 'I' for Inactive)
REMARK    1  A    between atoms: N_1  and  C_2
REMARK    2  A    between atoms: C_2  and  C_3
REMARK    3  A    between atoms: C_7  and  C_8
REMARK    4  A    between atoms: C_8  and  N_9
REMARK    5  A    between atoms: C_15  and  C_16
REMARK    6  A    between atoms: C_16  and  O_18
REMARK                            x       y       z     vdW  Elec       q    Type
REMARK                         _______ _______ _______ _____ _____    ______ ____
ROOT
ATOM      1  N   UNL     1      44.951   3.738  11.669  0.00  0.00    +0.000 N 
ATOM      2  N   UNL     1      45.684   2.913  12.454  0.00  0.00    +0.000 NA
ATOM      3  C   UNL     1      46.299   3.739  13.302  0.00  0.00    +0.000 A 
ATOM      4  C   UNL     1      45.981   5.095  13.067  0.00  0.00    +0.000 A 
ATOM      5  C   UNL     1      46.362   6.328  13.622  0.00  0.00    +0.000 A 
ATOM      6  C   UNL     1      45.859   7.513  13.065  0.00  0.00    +0.000 A 
ATOM      7  C   UNL     1      44.962   7.471  11.990  0.00  0.00    +0.000 A 
ATOM      8  C   UNL     1      44.556   6.241  11.443  0.00  0.00    +0.000 A 
ATOM      9  C   UNL     1      45.093   5.070  11.994  0.00  0.00    +0.000 A 
ENDROOT
BRANCH   7  10
ATOM     10  C   UNL     1      44.463   8.702  11.320  0.00  0.00    +0.000 C 
ATOM     11  O   UNL     1      45.119   9.729  11.271  0.00  0.00    +0.000 OA
BRANCH  10  12
ATOM     12  O   UNL     1      43.242   8.586  10.758  0.00  0.00    +0.000 OA
ATOM     13  H   UNL     1      42.798   9.423  10.536  0.00  0.00    +0.000 HD
ENDBRANCH  10  12
ENDBRANCH   7  10
BRANCH   1  14
ATOM     14  C   UNL     1      44.216   3.181  10.537  0.00  0.00    +0.000 C 
BRANCH  14  19
ATOM     15  C   UNL     1      46.444   1.997   7.654  0.00  0.00    +0.000 A 
ATOM     16  C   UNL     1      46.652   3.233   7.057  0.00  0.00    +0.000 A 
ATOM     17  N   UNL     1      46.083   4.383   7.482  0.00  0.00    +0.000 NA
ATOM     18  C   UNL     1      45.293   4.304   8.575  0.00  0.00    +0.000 A 
ATOM     19  C   UNL     1      45.010   3.126   9.260  0.00  0.00    +0.000 A 
ATOM     20  C   UNL     1      45.607   1.957   8.775  0.00  0.00    +0.000 A 
BRANCH  15  21
ATOM     21  C   UNL     1      47.154   0.767   7.175  0.00  0.00    +0.000 C 
BRANCH  21  22
ATOM     22  N   UNL     1      46.715  -0.408   7.917  0.00  0.00    +0.000 NA
ATOM     23  H   UNL     1      45.980  -0.881   7.397  0.00  0.00    +0.000 HD
ATOM     24  H   UNL     1      46.297  -0.111   8.797  0.00  0.00    +0.000 HD
ENDBRANCH  21  22
ENDBRANCH  15  21
ENDBRANCH  14  19
ENDBRANCH   1  14
TORSDOF 6
ENDMDL
MODEL 3
REMARK VINA RESULT:    -7.473      1.593      2.223
REMARK INTER + INTRA:         -10.177
REMARK INTER:                  -9.744
REMARK INTRA:                  -0.434
REMARK UNBOUND:                -0.520
REMARK  Name = 
REMARK  6 active torsions:
REMARK  status: ('A' for Active; 'I' for Inactive)
REMARK    1  A    between atoms: N_1  and  C_2
REMARK    2  A    between atoms: C_2  and  C_3
REMARK    3  A    between atoms: C_7  and  C_8
REMARK    4  A    between atoms: C_8  and  N_9
REMARK    5  A    between atoms: C_15  and  C_16
REMARK    6  A    between atoms: C_16  and  O_18
REMARK                            x       y       z     vdW  Elec       q    Type
REMARK                         _______ _______ _______ _____ _____    ______ ____
ROOT
ATOM      1  N   UNL     1      44.243   4.703  10.880  0.00  0.00    +0.000 N 
ATOM      2  N   UNL     1      43.009   5.217  10.671  0.00  0.00    +0.000 NA
ATOM      3  C   UNL     1      43.059   6.419  11.249  0.00  0.00    +0.000 A 
ATOM      4  C   UNL     1      44.312   6.684  11.842  0.00  0.00    +0.000 A 
ATOM      5  C   UNL     1      44.871   7.740  12.582  0.00  0.00    +0.000 A 
ATOM      6  C   UNL     1      46.181   7.614  13.071  0.00  0.00    +0.000 A 
ATOM      7  C   UNL     1      46.936   6.466  12.798  0.00  0.00    +0.000 A 
ATOM      8  C   UNL     1      46.393   5.415  12.039  0.00  0.00    +0.000 A 
ATOM      9  C   UNL     1      45.074   5.547  11.586  0.00  0.00    +0.000 A 
ENDROOT
BRANCH   7  10
ATOM     10  C   UNL     1      48.299   6.257  13.358  0.00  0.00    +0.000 C 
ATOM     11  O   UNL     1      48.482   5.904  14.511  0.00  0.00    +0.000 OA
BRANCH  10  12
ATOM     12  O   UNL     1      49.308   6.470  12.489  0.00  0.00    +0.000 OA
ATOM     13  H   UNL     1      49.176   7.198  11.858  0.00  0.00    +0.000 HD
ENDBRANCH  10  12
ENDBRANCH   7  10
BRANCH   1  14
ATOM     14  C   UNL     1      44.525   3.331  10.470  0.00  0.00    +0.000 C 
BRANCH  14  19
ATOM     15  C   UNL     1      46.569   2.000   7.515  0.00  0.00    +0.000 A 
ATOM     16  C   UNL     1      46.828   3.218   6.902  0.00  0.00    +0.000 A 
ATOM     17  N   UNL     1      46.345   4.403   7.339  0.00  0.00    +0.000 NA
ATOM     18  C   UNL     1      45.593   4.377   8.461  0.00  0.00    +0.000 A 
ATOM     19  C   UNL     1      45.266   3.221   9.164  0.00  0.00    +0.000 A 
ATOM     20  C   UNL     1      45.773   2.016   8.666  0.00  0.00    +0.000 A 
BRANCH  15  21
ATOM     21  C   UNL     1      47.186   0.727   7.019  0.00  0.00    +0.000 C 
BRANCH  21  22
ATOM     22  N   UNL     1      46.764  -0.405   7.832  0.00  0.00    +0.000 NA
ATOM     23  H   UNL     1      46.610  -1.214   7.233  0.00  0.00    +0.000 HD
ATOM     24  H   UNL     1      45.864  -0.193   8.260  0.00  0.00    +0.000 HD
ENDBRANCH  21  22
ENDBRANCH  15  21
ENDBRANCH  14  19
ENDBRANCH   1  14
TORSDOF 6
ENDMDL
MODEL 4
REMARK VINA RESULT:    -7.106      2.337      3.486
REMARK INTER + INTRA:          -9.703
REMARK INTER:                  -9.055
REMARK INTRA:                  -0.648
REMARK UNBOUND:                -0.520
REMARK  Name = 
REMARK  6 active torsions:
REMARK  status: ('A' for Active; 'I' for Inactive)
REMARK    1  A    between atoms: N_1  and  C_2
REMARK    2  A    between atoms: C_2  and  C_3
REMARK    3  A    between atoms: C_7  and  C_8
REMARK    4  A    between atoms: C_8  and  N_9
REMARK    5  A    between atoms: C_15  and  C_16
REMARK    6  A    between atoms: C_16  and  O_18
REMARK                            x       y       z     vdW  Elec       q    Type
REMARK                         _______ _______ _______ _____ _____    ______ ____
ROOT
ATOM      1  N   UNL     1      44.828   6.600  11.761  0.00  0.00    +0.000 N 
ATOM      2  N   UNL     1      44.927   7.884  11.345  0.00  0.00    +0.000 NA
ATOM      3  C   UNL     1      45.971   8.362  12.024  0.00  0.00    +0.000 A 
ATOM      4  C   UNL     1      46.543   7.403  12.887  0.00  0.00    +0.000 A 
ATOM      5  C   UNL     1      47.596   7.388  13.817  0.00  0.00    +0.000 A 
ATOM      6  C   UNL     1      47.840   6.221  14.556  0.00  0.00    +0.000 A 
ATOM      7  C   UNL     1      47.067   5.071  14.347  0.00  0.00    +0.000 A 
ATOM      8  C   UNL     1      46.027   5.069  13.401  0.00  0.00    +0.000 A 
ATOM      9  C   UNL     1      45.780   6.254  12.696  0.00  0.00    +0.000 A 
ENDROOT
BRANCH   7  10
ATOM     10  C   UNL     1      47.241   3.836  15.159  0.00  0.00    +0.000 C 
ATOM     11  O   UNL     1      47.751   2.825  14.706  0.00  0.00    +0.000 OA
BRANCH  10  12
ATOM     12  O   UNL     1      46.810   3.930  16.433  0.00  0.00    +0.000 OA
ATOM     13  H   UNL     1      47.094   4.724  16.918  0.00  0.00    +0.000 HD
ENDBRANCH  10  12
ENDBRANCH   7  10
BRANCH   1  14
ATOM     14  C   UNL     1      43.710   5.782  11.300  0.00  0.00    +0.000 C 
BRANCH  14  19
ATOM     15  C   UNL     1      45.095   3.408   8.631  0.00  0.00    +0.000 A 
ATOM     16  C   UNL     1      44.576   2.226   9.142  0.00  0.00    +0.000 A 
ATOM     17  N   UNL     1      43.877   2.145  10.297  0.00  0.00    +0.000 NA
ATOM     18  C   UNL     1      43.657   3.302  10.959  0.00  0.00    +0.000 A 
ATOM     19  C   UNL     1      44.124   4.547  10.546  0.00  0.00    +0.000 A 
ATOM     20  C   UNL     1      44.856   4.582   9.355  0.00  0.00    +0.000 A 
BRANCH  15  21
ATOM     21  C   UNL     1      45.806   3.444   7.312  0.00  0.00    +0.000 C 
BRANCH  21  22
ATOM     22  N   UNL     1      46.944   4.353   7.361  0.00  0.00    +0.000 NA
ATOM     23  H   UNL     1      46.981   4.800   8.274  0.00  0.00    +0.000 HD
ATOM     24  H   UNL     1      46.804   5.101   6.683  0.00  0.00    +0.000 HD
ENDBRANCH  21  22
ENDBRANCH  15  21
ENDBRANCH  14  19
ENDBRANCH   1  14
TORSDOF 6
ENDMDL
MODEL 5
REMARK VINA RESULT:    -6.836      3.100      6.075
REMARK INTER + INTRA:          -9.354
REMARK INTER:                  -8.736
REMARK INTRA:                  -0.617
REMARK UNBOUND:                -0.520
REMARK  Name = 
REMARK  6 active torsions:
REMARK  status: ('A' for Active; 'I' for Inactive)
REMARK    1  A    between atoms: N_1  and  C_2
REMARK    2  A    between atoms: C_2  and  C_3
REMARK    3  A    between atoms: C_7  and  C_8
REMARK    4  A    between atoms: C_8  and  N_9
REMARK    5  A    between atoms: C_15  and  C_16
REMARK    6  A    between atoms: C_16  and  O_18
REMARK                            x       y       z     vdW  Elec       q    Type
REMARK                         _______ _______ _______ _____ _____    ______ ____
ROOT
ATOM      1  N   UNL     1      43.816   5.150  11.152  0.00  0.00    +0.000 N 
ATOM      2  N   UNL     1      43.064   4.517  12.082  0.00  0.00    +0.000 NA
ATOM      3  C   UNL     1      43.182   3.226  11.765  0.00  0.00    +0.000 A 
ATOM      4  C   UNL     1      43.993   3.017  10.628  0.00  0.00    +0.000 A 
ATOM      5  C   UNL     1      44.402   1.903   9.876  0.00  0.00    +0.000 A 
ATOM      6  C   UNL     1      45.193   2.103   8.734  0.00  0.00    +0.000 A 
ATOM      7  C   UNL     1      45.600   3.391   8.365  0.00  0.00    +0.000 A 
ATOM      8  C   UNL     1      45.215   4.510   9.126  0.00  0.00    +0.000 A 
ATOM      9  C   UNL     1      44.400   4.292  10.244  0.00  0.00    +0.000 A 
ENDROOT
BRANCH   7  10
ATOM     10  C   UNL     1      46.375   3.657   7.123  0.00  0.00    +0.000 C 
ATOM     11  O   UNL     1      46.250   2.976   6.119  0.00  0.00    +0.000 OA
BRANCH  10  12
ATOM     12  O   UNL     1      47.207   4.716   7.190  0.00  0.00    +0.000 OA
ATOM     13  H   UNL     1      46.821   5.535   7.546  0.00  0.00    +0.000 HD
ENDBRANCH  10  12
ENDBRANCH   7  10
BRANCH   1  14
ATOM     14  C   UNL     1      43.836   6.610  11.121  0.00  0.00    +0.000 C 
BRANCH  14  19
ATOM     15  C   UNL     1      47.017   7.101  13.200  0.00  0.00    +0.000 A 
ATOM     16  C   UNL     1      47.014   8.489  13.223  0.00  0.00    +0.000 A 
ATOM     17  N   UNL     1      46.108   9.254  12.575  0.00  0.00    +0.000 NA
ATOM     18  C   UNL     1      45.136   8.604  11.896  0.00  0.00    +0.000 A 
ATOM     19  C   UNL     1      45.032   7.220  11.801  0.00  0.00    +0.000 A 
ATOM     20  C   UNL     1      46.002   6.468  12.473  0.00  0.00    +0.000 A 
BRANCH  15  21
ATOM     21  C   UNL     1      48.012   6.307  13.992  0.00  0.00    +0.000 C 
BRANCH  21  22
ATOM     22  N   UNL     1      49.373   6.725  13.683  0.00  0.00    +0.000 NA
ATOM     23  H   UNL     1      49.671   7.429  14.355  0.00  0.00    +0.000 HD
ATOM     24  H   UNL     1      49.385   7.180  12.771  0.00  0.00    +0.000 HD
ENDBRANCH  21  22
ENDBRANCH  15  21
ENDBRANCH  14  19
ENDBRANCH   1  14
TORSDOF 6
ENDMDL
MODEL 6
REMARK VINA RESULT:    -6.713      3.101      5.653
REMARK INTER + INTRA:          -9.195
REMARK INTER:                  -8.532
REMARK INTRA:                  -0.664
REMARK UNBOUND:                -0.520
REMARK  Name = 
REMARK  6 active torsions:
REMARK  status: ('A' for Active; 'I' for Inactive)
REMARK    1  A    between atoms: N_1  and  C_2
REMARK    2  A    between atoms: C_2  and  C_3
REMARK    3  A    between atoms: C_7  and  C_8
REMARK    4  A    between atoms: C_8  and  N_9
REMARK    5  A    between atoms: C_15  and  C_16
REMARK    6  A    between atoms: C_16  and  O_18
REMARK                            x       y       z     vdW  Elec       q    Type
REMARK                         _______ _______ _______ _____ _____    ______ ____
ROOT
ATOM      1  N   UNL     1      44.454   4.924  11.089  0.00  0.00    +0.000 N 
ATOM      2  N   UNL     1      43.467   4.416  11.863  0.00  0.00    +0.000 NA
ATOM      3  C   UNL     1      43.279   3.187  11.378  0.00  0.00    +0.000 A 
ATOM      4  C   UNL     1      44.127   2.898  10.287  0.00  0.00    +0.000 A 
ATOM      5  C   UNL     1      44.312   1.809   9.419  0.00  0.00    +0.000 A 
ATOM      6  C   UNL     1      45.248   1.915   8.378  0.00  0.00    +0.000 A 
ATOM      7  C   UNL     1      46.014   3.078   8.225  0.00  0.00    +0.000 A 
ATOM      8  C   UNL     1      45.852   4.164   9.104  0.00  0.00    +0.000 A 
ATOM      9  C   UNL     1      44.891   4.049  10.117  0.00  0.00    +0.000 A 
ENDROOT
BRANCH   7  10
ATOM     10  C   UNL     1      46.963   3.264   7.094  0.00  0.00    +0.000 C 
ATOM     11  O   UNL     1      47.826   2.446   6.826  0.00  0.00    +0.000 OA
BRANCH  10  12
ATOM     12  O   UNL     1      46.779   4.394   6.380  0.00  0.00    +0.000 OA
ATOM     13  H   UNL     1      46.000   4.924   6.621  0.00  0.00    +0.000 HD
ENDBRANCH  10  12
ENDBRANCH   7  10
BRANCH   1  14
ATOM     14  C   UNL     1      44.856   6.316  11.265  0.00  0.00    +0.000 C 
BRANCH  14  19
ATOM     15  C   UNL     1      48.473   7.308  12.048  0.00  0.00    +0.000 A 
ATOM     16  C   UNL     1      48.656   6.493  13.157  0.00  0.00    +0.000 A 
ATOM     17  N   UNL     1      47.689   5.711  13.688  0.00  0.00    +0.000 NA
ATOM     18  C   UNL     1      46.491   5.717  13.065  0.00  0.00    +0.000 A 
ATOM     19  C   UNL     1      46.187   6.488  11.947  0.00  0.00    +0.000 A 
ATOM     20  C   UNL     1      47.212   7.294  11.441  0.00  0.00    +0.000 A 
BRANCH  15  21
ATOM     21  C   UNL     1      49.603   8.103  11.468  0.00  0.00    +0.000 C 
BRANCH  21  22
ATOM     22  N   UNL     1      50.852   7.355  11.531  0.00  0.00    +0.000 NA
ATOM     23  H   UNL     1      50.662   6.406  11.847  0.00  0.00    +0.000 HD
ATOM     24  H   UNL     1      51.458   7.773  12.235  0.00  0.00    +0.000 HD
ENDBRANCH  21  22
ENDBRANCH  15  21
ENDBRANCH  14  19
ENDBRANCH   1  14
TORSDOF 6
ENDMDL
MODEL 7
REMARK VINA RESULT:    -6.514      3.080      5.200
REMARK INTER + INTRA:          -8.937
REMARK INTER:                  -8.374
REMARK INTRA:                  -0.563
REMARK UNBOUND:                -0.520
REMARK  Name = 
REMARK  6 active torsions:
REMARK  status: ('A' for Active; 'I' for Inactive)
REMARK    1  A    between atoms: N_1  and  C_2
REMARK    2  A    between atoms: C_2  and  C_3
REMARK    3  A    between atoms: C_7  and  C_8
REMARK    4  A    between atoms: C_8  and  N_9
REMARK    5  A    between atoms: C_15  and  C_16
REMARK    6  A    between atoms: C_16  and  O_18
REMARK                            x       y       z     vdW  Elec       q    Type
REMARK                         _______ _______ _______ _____ _____    ______ ____
ROOT
ATOM      1  N   UNL     1      47.107   6.227  13.373  0.00  0.00    +0.000 N 
ATOM      2  N   UNL     1      48.404   5.843  13.329  0.00  0.00    +0.000 NA
ATOM      3  C   UNL     1      49.035   6.902  12.822  0.00  0.00    +0.000 A 
ATOM      4  C   UNL     1      48.157   7.967  12.522  0.00  0.00    +0.000 A 
ATOM      5  C   UNL     1      48.285   9.248  11.961  0.00  0.00    +0.000 A 
ATOM      6  C   UNL     1      47.134  10.025  11.761  0.00  0.00    +0.000 A 
ATOM      7  C   UNL     1      45.876   9.547  12.148  0.00  0.00    +0.000 A 
ATOM      8  C   UNL     1      45.741   8.276  12.733  0.00  0.00    +0.000 A 
ATOM      9  C   UNL     1      46.898   7.503  12.895  0.00  0.00    +0.000 A 
ENDROOT
BRANCH   7  10
ATOM     10  C   UNL     1      44.621  10.304  11.888  0.00  0.00    +0.000 C 
ATOM     11  O   UNL     1      44.555  11.516  12.007  0.00  0.00    +0.000 OA
BRANCH  10  12
ATOM     12  O   UNL     1      43.575   9.550  11.493  0.00  0.00    +0.000 OA
ATOM     13  H   UNL     1      43.181   8.983  12.178  0.00  0.00    +0.000 HD
ENDBRANCH  10  12
ENDBRANCH   7  10
BRANCH   1  14
ATOM     14  C   UNL     1      46.089   5.263  13.783  0.00  0.00    +0.000 C 
BRANCH  14  19
ATOM     15  C   UNL     1      44.278   4.553  10.482  0.00  0.00    +0.000 A 
ATOM     16  C   UNL     1      42.994   4.877  10.898  0.00  0.00    +0.000 A 
ATOM     17  N   UNL     1      42.678   5.242  12.161  0.00  0.00    +0.000 NA
ATOM     18  C   UNL     1      43.696   5.319  13.046  0.00  0.00    +0.000 A 
ATOM     19  C   UNL     1      45.023   5.021  12.748  0.00  0.00    +0.000 A 
ATOM     20  C   UNL     1      45.301   4.631  11.433  0.00  0.00    +0.000 A 
BRANCH  15  21
ATOM     21  C   UNL     1      44.576   4.218   9.051  0.00  0.00    +0.000 C 
BRANCH  21  22
ATOM     22  N   UNL     1      45.591   5.111   8.510  0.00  0.00    +0.000 NA
ATOM     23  H   UNL     1      45.387   6.067   8.793  0.00  0.00    +0.000 HD
ATOM     24  H   UNL     1      45.540   5.098   7.492  0.00  0.00    +0.000 HD
ENDBRANCH  21  22
ENDBRANCH  15  21
ENDBRANCH  14  19
ENDBRANCH   1  14
TORSDOF 6
ENDMDL
MODEL 8
REMARK VINA RESULT:    -6.478      5.317      7.915
REMARK INTER + INTRA:          -8.891
REMARK INTER:                  -8.475
REMARK INTRA:                  -0.416
REMARK UNBOUND:                -0.520
REMARK  Name = 
REMARK  6 active torsions:
REMARK  status: ('A' for Active; 'I' for Inactive)
REMARK    1  A    between atoms: N_1  and  C_2
REMARK    2  A    between atoms: C_2  and  C_3
REMARK    3  A    between atoms: C_7  and  C_8
REMARK    4  A    between atoms: C_8  and  N_9
REMARK    5  A    between atoms: C_15  and  C_16
REMARK    6  A    between atoms: C_16  and  O_18
REMARK                            x       y       z     vdW  Elec       q    Type
REMARK                         _______ _______ _______ _____ _____    ______ ____
ROOT
ATOM      1  N   UNL     1      47.293   5.134  15.114  0.00  0.00    +0.000 N 
ATOM      2  N   UNL     1      48.335   5.993  15.012  0.00  0.00    +0.000 NA
ATOM      3  C   UNL     1      48.233   6.475  13.772  0.00  0.00    +0.000 A 
ATOM      4  C   UNL     1      47.142   5.927  13.064  0.00  0.00    +0.000 A 
ATOM      5  C   UNL     1      46.619   6.055  11.766  0.00  0.00    +0.000 A 
ATOM      6  C   UNL     1      45.513   5.276  11.395  0.00  0.00    +0.000 A 
ATOM      7  C   UNL     1      44.912   4.407  12.314  0.00  0.00    +0.000 A 
ATOM      8  C   UNL     1      45.413   4.290  13.622  0.00  0.00    +0.000 A 
ATOM      9  C   UNL     1      46.538   5.053  13.964  0.00  0.00    +0.000 A 
ENDROOT
BRANCH   7  10
ATOM     10  C   UNL     1      43.785   3.509  11.943  0.00  0.00    +0.000 C 
ATOM     11  O   UNL     1      42.963   3.811  11.095  0.00  0.00    +0.000 OA
BRANCH  10  12
ATOM     12  O   UNL     1      43.758   2.332  12.601  0.00  0.00    +0.000 OA
ATOM     13  H   UNL     1      43.526   2.380  13.544  0.00  0.00    +0.000 HD
ENDBRANCH  10  12
ENDBRANCH   7  10
BRANCH   1  14
ATOM     14  C   UNL     1      47.148   4.327  16.322  0.00  0.00    +0.000 C 
BRANCH  14  19
ATOM     15  C   UNL     1      50.579   3.353  17.721  0.00  0.00    +0.000 A 
ATOM     16  C   UNL     1      50.708   2.133  17.072  0.00  0.00    +0.000 A 
ATOM     17  N   UNL     1      49.754   1.594  16.280  0.00  0.00    +0.000 NA
ATOM     18  C   UNL     1      48.628   2.320  16.101  0.00  0.00    +0.000 A 
ATOM     19  C   UNL     1      48.384   3.555  16.695  0.00  0.00    +0.000 A 
ATOM     20  C   UNL     1      49.392   4.067  17.520  0.00  0.00    +0.000 A 
BRANCH  15  21
ATOM     21  C   UNL     1      51.699   3.928  18.535  0.00  0.00    +0.000 C 
BRANCH  21  22
ATOM     22  N   UNL     1      52.681   2.903  18.864  0.00  0.00    +0.000 NA
ATOM     23  H   UNL     1      53.378   3.292  19.495  0.00  0.00    +0.000 HD
ATOM     24  H   UNL     1      53.181   2.634  18.018  0.00  0.00    +0.000 HD
ENDBRANCH  21  22
ENDBRANCH  15  21
ENDBRANCH  14  19
ENDBRANCH   1  14
TORSDOF 6
ENDMDL
MODEL 9
REMARK VINA RESULT:    -6.041      2.201      3.302
REMARK INTER + INTRA:          -8.327
REMARK INTER:                  -7.980
REMARK INTRA:                  -0.347
REMARK UNBOUND:                -0.520
REMARK  Name = 
REMARK  6 active torsions:
REMARK  status: ('A' for Active; 'I' for Inactive)
REMARK    1  A    between atoms: N_1  and  C_2
REMARK    2  A    between atoms: C_2  and  C_3
REMARK    3  A    between atoms: C_7  and  C_8
REMARK    4  A    between atoms: C_8  and  N_9
REMARK    5  A    between atoms: C_15  and  C_16
REMARK    6  A    between atoms: C_16  and  O_18
REMARK                            x       y       z     vdW  Elec       q    Type
REMARK                         _______ _______ _______ _____ _____    ______ ____
ROOT
ATOM      1  N   UNL     1      45.791   5.900  12.323  0.00  0.00    +0.000 N 
ATOM      2  N   UNL     1      46.084   4.779  13.022  0.00  0.00    +0.000 NA
ATOM      3  C   UNL     1      47.107   5.143  13.798  0.00  0.00    +0.000 A 
ATOM      4  C   UNL     1      47.488   6.488  13.599  0.00  0.00    +0.000 A 
ATOM      5  C   UNL     1      48.485   7.337  14.108  0.00  0.00    +0.000 A 
ATOM      6  C   UNL     1      48.592   8.643  13.608  0.00  0.00    +0.000 A 
ATOM      7  C   UNL     1      47.696   9.111  12.638  0.00  0.00    +0.000 A 
ATOM      8  C   UNL     1      46.680   8.276  12.139  0.00  0.00    +0.000 A 
ATOM      9  C   UNL     1      46.610   6.966  12.629  0.00  0.00    +0.000 A 
ENDROOT
BRANCH   7  10
ATOM     10  C   UNL     1      47.818  10.462  12.026  0.00  0.00    +0.000 C 
ATOM     11  O   UNL     1      48.577  10.691  11.100  0.00  0.00    +0.000 OA
BRANCH  10  12
ATOM     12  O   UNL     1      47.012  11.401  12.561  0.00  0.00    +0.000 OA
ATOM     13  H   UNL     1      47.287  12.323  12.421  0.00  0.00    +0.000 HD
ENDBRANCH  10  12
ENDBRANCH   7  10
BRANCH   1  14
ATOM     14  C   UNL     1      44.773   5.844  11.278  0.00  0.00    +0.000 C 
BRANCH  14  19
ATOM     15  C   UNL     1      45.344   3.281   8.488  0.00  0.00    +0.000 A 
ATOM     16  C   UNL     1      44.515   2.282   8.978  0.00  0.00    +0.000 A 
ATOM     17  N   UNL     1      43.850   2.359  10.152  0.00  0.00    +0.000 NA
ATOM     18  C   UNL     1      43.992   3.502  10.858  0.00  0.00    +0.000 A 
ATOM     19  C   UNL     1      44.791   4.574  10.471  0.00  0.00    +0.000 A 
ATOM     20  C   UNL     1      45.475   4.443   9.257  0.00  0.00    +0.000 A 
BRANCH  15  21
ATOM     21  C   UNL     1      46.005   3.163   7.147  0.00  0.00    +0.000 C 
BRANCH  21  22
ATOM     22  N   UNL     1      46.879   4.302   6.897  0.00  0.00    +0.000 NA
ATOM     23  H   UNL     1      47.595   4.038   6.225  0.00  0.00    +0.000 HD
ATOM     24  H   UNL     1      47.370   4.542   7.757  0.00  0.00    +0.000 HD
ENDBRANCH  21  22
ENDBRANCH  15  21
ENDBRANCH  14  19
ENDBRANCH   1  14
TORSDOF 6
ENDMDL
