MODEL 1
REMARK VINA RESULT:    -9.057      0.000      0.000
REMARK INTER + INTRA:         -12.801
REMARK INTER:                 -11.704
REMARK INTRA:                  -1.097
REMARK UNBOUND:                -1.097
REMARK  Name = 
REMARK  8 active torsions:
REMARK  status: ('A' for Active; 'I' for Inactive)
REMARK    1  A    between atoms: C_1  and  C_2
REMARK    2  A    between atoms: C_4  and  C_5
REMARK    3  A    between atoms: C_9  and  C_10
REMARK    4  A    between atoms: C_10  and  C_11
REMARK    5  A    between atoms: C_10  and  C_12
REMARK    6  A    between atoms: C_10  and  C_13
REMARK    7  A    between atoms: C_13  and  N_14
REMARK    8  A    between atoms: C_18  and  C_19
REMARK                            x       y       z     vdW  Elec       q    Type
REMARK                         _______ _______ _______ _____ _____    ______ ____
ROOT
ATOM      1  C   UNL     1      43.663   4.768  11.816  0.00  0.00    +0.000 C 
ATOM      2  C   UNL     1      43.569   3.535  12.749  0.00  0.00    +0.000 C 
ATOM      3  C   UNL     1      42.485   5.724  12.105  0.00  0.00    +0.000 C 
ENDROOT
BRANCH   1   8
ATOM      4  C   UNL     1      46.932   5.788  13.638  0.00  0.00    +0.000 A 
ATOM      5  C   UNL     1      47.569   6.536  12.637  0.00  0.00    +0.000 A 
ATOM      6  C   UNL     1      46.937   6.803  11.423  0.00  0.00    +0.000 A 
ATOM      7  C   UNL     1      45.669   6.284  11.159  0.00  0.00    +0.000 A 
ATOM      8  C   UNL     1      45.001   5.495  12.107  0.00  0.00    +0.000 A 
ATOM      9  C   UNL     1      45.636   5.313  13.353  0.00  0.00    +0.000 A 
BRANCH   4  13
ATOM     10  C   UNL     1      47.538   2.825  17.658  0.00  0.00    +0.000 C 
ATOM     11  C   UNL     1      47.909   4.037  16.858  0.00  0.00    +0.000 A 
ATOM     12  C   UNL     1      47.273   4.314  15.651  0.00  0.00    +0.000 A 
ATOM     13  C   UNL     1      47.601   5.469  14.923  0.00  0.00    +0.000 A 
ATOM     14  C   UNL     1      48.595   6.290  15.464  0.00  0.00    +0.000 A 
ATOM     15  C   UNL     1      49.195   5.934  16.662  0.00  0.00    +0.000 A 
ATOM     16  N   UNL     1      48.871   4.834  17.370  0.00  0.00    +0.000 NA
ENDBRANCH   4  13
ENDBRANCH   1   8
BRANCH   1  17
ATOM     17  C   UNL     1      43.580   4.273  10.340  0.00  0.00    +0.000 C 
BRANCH  17  18
ATOM     18  N   UNL     1      44.026   2.884  10.152  0.00  0.00    +0.000 N 
ATOM     19  C   UNL     1      44.967   2.760   9.113  0.00  0.00    +0.000 A 
ATOM     20  C   UNL     1      45.471   1.498   8.813  0.00  0.00    +0.000 A 
ATOM     21  C   UNL     1      46.391   1.356   7.774  0.00  0.00    +0.000 A 
ATOM     22  C   UNL     1      46.797   2.478   7.052  0.00  0.00    +0.000 A 
ATOM     23  C   UNL     1      46.261   3.698   7.430  0.00  0.00    +0.000 A 
ATOM     24  N   UNL     1      45.370   3.854   8.437  0.00  0.00    +0.000 NA
ATOM     25  H   UNL     1      43.257   2.253   9.946  0.00  0.00    +0.000 HD
BRANCH  22  26
ATOM     26  C   UNL     1      47.755   2.327   5.931  0.00  0.00    +0.000 C 
ATOM     27  N   UNL     1      47.697   3.206   4.883  0.00  0.00    +0.000 N 
ATOM     28  O   UNL     1      48.585   1.427   5.930  0.00  0.00    +0.000 OA
ATOM     29  H   UNL     1      47.056   3.977   4.784  0.00  0.00    +0.000 HD
ATOM     30  H   UNL     1      48.367   3.059   4.139  0.00  0.00    +0.000 HD
ENDBRANCH  22  26
ENDBRANCH  17  18
ENDBRANCH   1  17
TORSDOF 5
ENDMDL
MODEL 2
REMARK VINA RESULT:    -8.040      2.451      3.245
REMARK INTER + INTRA:         -11.487
REMARK INTER:                 -10.553
REMARK INTRA:                  -0.934
REMARK UNBOUND:                -1.097
REMARK  Name = 
REMARK  8 active torsions:
REMARK  status: ('A' for Active; 'I' for Inactive)
REMARK    1  A    between atoms: C_1  and  C_2
REMARK    2  A    between atoms: C_4  and  C_5
REMARK    3  A    between atoms: C_9  and  C_10
REMARK    4  A    between atoms: C_10  and  C_11
REMARK    5  A    between atoms: C_10  and  C_12
REMARK    6  A    between atoms: C_10  and  C_13
REMARK    7  A    between atoms: C_13  and  N_14
REMARK    8  A    between atoms: C_18  and  C_19
REMARK                            x       y       z     vdW  Elec       q    Type
REMARK                         _______ _______ _______ _____ _____    ______ ____
ROOT
ATOM      1  C   UNL     1      44.131   5.051  12.139  0.00  0.00    +0.000 C 
ATOM      2  C   UNL     1      45.226   4.080  12.645  0.00  0.00    +0.000 C 
ATOM      3  C   UNL     1      42.940   5.044  13.123  0.00  0.00    +0.000 C 
ENDROOT
BRANCH   1   8
ATOM      4  C   UNL     1      46.768   7.894  12.259  0.00  0.00    +0.000 A 
ATOM      5  C   UNL     1      46.028   8.962  11.732  0.00  0.00    +0.000 A 
ATOM      6  C   UNL     1      44.675   8.821  11.426  0.00  0.00    +0.000 A 
ATOM      7  C   UNL     1      44.039   7.591  11.591  0.00  0.00    +0.000 A 
ATOM      8  C   UNL     1      44.740   6.476  12.076  0.00  0.00    +0.000 A 
ATOM      9  C   UNL     1      46.084   6.676  12.451  0.00  0.00    +0.000 A 
BRANCH   4  13
ATOM     10  C   UNL     1      51.585   7.788  10.810  0.00  0.00    +0.000 C 
ATOM     11  C   UNL     1      50.541   7.982  11.868  0.00  0.00    +0.000 A 
ATOM     12  C   UNL     1      49.187   7.867  11.560  0.00  0.00    +0.000 A 
ATOM     13  C   UNL     1      48.215   8.017  12.562  0.00  0.00    +0.000 A 
ATOM     14  C   UNL     1      48.680   8.300  13.850  0.00  0.00    +0.000 A 
ATOM     15  C   UNL     1      50.044   8.418  14.072  0.00  0.00    +0.000 A 
ATOM     16  N   UNL     1      50.980   8.259  13.114  0.00  0.00    +0.000 NA
ENDBRANCH   4  13
ENDBRANCH   1   8
BRANCH   1  17
ATOM     17  C   UNL     1      43.650   4.563  10.740  0.00  0.00    +0.000 C 
BRANCH  17  18
ATOM     18  N   UNL     1      44.000   3.164  10.445  0.00  0.00    +0.000 N 
ATOM     19  C   UNL     1      44.892   3.052   9.363  0.00  0.00    +0.000 A 
ATOM     20  C   UNL     1      45.303   1.784   8.963  0.00  0.00    +0.000 A 
ATOM     21  C   UNL     1      46.174   1.655   7.882  0.00  0.00    +0.000 A 
ATOM     22  C   UNL     1      46.625   2.796   7.217  0.00  0.00    +0.000 A 
ATOM     23  C   UNL     1      46.183   4.018   7.693  0.00  0.00    +0.000 A 
ATOM     24  N   UNL     1      45.340   4.161   8.744  0.00  0.00    +0.000 NA
ATOM     25  H   UNL     1      43.185   2.597  10.230  0.00  0.00    +0.000 HD
BRANCH  22  26
ATOM     26  C   UNL     1      47.531   2.660   6.051  0.00  0.00    +0.000 C 
ATOM     27  N   UNL     1      48.838   2.315   6.261  0.00  0.00    +0.000 N 
ATOM     28  O   UNL     1      47.126   2.862   4.913  0.00  0.00    +0.000 OA
ATOM     29  H   UNL     1      49.273   2.130   7.151  0.00  0.00    +0.000 HD
ATOM     30  H   UNL     1      49.420   2.241   5.436  0.00  0.00    +0.000 HD
ENDBRANCH  22  26
ENDBRANCH  17  18
ENDBRANCH   1  17
TORSDOF 5
ENDMDL
MODEL 3
REMARK VINA RESULT:    -7.708      2.685      4.762
REMARK INTER + INTRA:         -11.058
REMARK INTER:                 -10.101
REMARK INTRA:                  -0.957
REMARK UNBOUND:                -1.097
REMARK  Name = 
REMARK  8 active torsions:
REMARK  status: ('A' for Active; 'I' for Inactive)
REMARK    1  A    between atoms: C_1  and  C_2
REMARK    2  A    between atoms: C_4  and  C_5
REMARK    3  A    between atoms: C_9  and  C_10
REMARK    4  A    between atoms: C_10  and  C_11
REMARK    5  A    between atoms: C_10  and  C_12
REMARK    6  A    between atoms: C_10  and  C_13
REMARK    7  A    between atoms: C_13  and  N_14
REMARK    8  A    between atoms: C_18  and  C_19
REMARK                            x       y       z     vdW  Elec       q    Type
REMARK                         _______ _______ _______ _____ _____    ______ ____
ROOT
ATOM      1  C   UNL     1      44.466   4.111  12.310  0.00  0.00    +0.000 C 
ATOM      2  C   UNL     1      45.346   2.902  12.713  0.00  0.00    +0.000 C 
ATOM      3  C   UNL     1      43.319   4.277  13.331  0.00  0.00    +0.000 C 
ENDROOT
BRANCH   1   8
ATOM      4  C   UNL     1      45.499   7.834  11.970  0.00  0.00    +0.000 A 
ATOM      5  C   UNL     1      46.775   7.807  12.552  0.00  0.00    +0.000 A 
ATOM      6  C   UNL     1      47.354   6.609  12.966  0.00  0.00    +0.000 A 
ATOM      7  C   UNL     1      46.649   5.410  12.857  0.00  0.00    +0.000 A 
ATOM      8  C   UNL     1      45.354   5.382  12.320  0.00  0.00    +0.000 A 
ATOM      9  C   UNL     1      44.832   6.600  11.837  0.00  0.00    +0.000 A 
BRANCH   4  13
ATOM     10  C   UNL     1      41.584  10.355  10.065  0.00  0.00    +0.000 C 
ATOM     11  C   UNL     1      42.965  10.328  10.646  0.00  0.00    +0.000 A 
ATOM     12  C   UNL     1      43.549   9.126  11.038  0.00  0.00    +0.000 A 
ATOM     13  C   UNL     1      44.856   9.103  11.551  0.00  0.00    +0.000 A 
ATOM     14  C   UNL     1      45.509  10.335  11.656  0.00  0.00    +0.000 A 
ATOM     15  C   UNL     1      44.852  11.491  11.262  0.00  0.00    +0.000 A 
ATOM     16  N   UNL     1      43.603  11.513  10.756  0.00  0.00    +0.000 NA
ENDBRANCH   4  13
ENDBRANCH   1   8
BRANCH   1  17
ATOM     17  C   UNL     1      43.868   3.832  10.898  0.00  0.00    +0.000 C 
BRANCH  17  18
ATOM     18  N   UNL     1      44.135   2.475  10.396  0.00  0.00    +0.000 N 
ATOM     19  C   UNL     1      45.022   2.474   9.303  0.00  0.00    +0.000 A 
ATOM     20  C   UNL     1      45.358   1.258   8.715  0.00  0.00    +0.000 A 
ATOM     21  C   UNL     1      46.222   1.241   7.621  0.00  0.00    +0.000 A 
ATOM     22  C   UNL     1      46.741   2.440   7.131  0.00  0.00    +0.000 A 
ATOM     23  C   UNL     1      46.370   3.601   7.788  0.00  0.00    +0.000 A 
ATOM     24  N   UNL     1      45.535   3.635   8.853  0.00  0.00    +0.000 NA
ATOM     25  H   UNL     1      43.289   1.995  10.104  0.00  0.00    +0.000 HD
BRANCH  22  26
ATOM     26  C   UNL     1      47.639   2.428   5.952  0.00  0.00    +0.000 C 
ATOM     27  N   UNL     1      47.415   3.316   4.935  0.00  0.00    +0.000 N 
ATOM     28  O   UNL     1      48.568   1.634   5.876  0.00  0.00    +0.000 OA
ATOM     29  H   UNL     1      46.682   4.007   4.895  0.00  0.00    +0.000 HD
ATOM     30  H   UNL     1      48.050   3.266   4.149  0.00  0.00    +0.000 HD
ENDBRANCH  22  26
ENDBRANCH  17  18
ENDBRANCH   1  17
TORSDOF 5
ENDMDL
MODEL 4
REMARK VINA RESULT:    -7.619      3.111      8.590
REMARK INTER + INTRA:         -10.942
REMARK INTER:                 -10.175
REMARK INTRA:                  -0.767
REMARK UNBOUND:                -1.097
REMARK  Name = 
REMARK  8 active torsions:
REMARK  status: ('A' for Active; 'I' for Inactive)
REMARK    1  A    between atoms: C_1  and  C_2
REMARK    2  A    between atoms: C_4  and  C_5
REMARK    3  A    between atoms: C_9  and  C_10
REMARK    4  A    between atoms: C_10  and  C_11
REMARK    5  A    between atoms: C_10  and  C_12
REMARK    6  A    between atoms: C_10  and  C_13
REMARK    7  A    between atoms: C_13  and  N_14
REMARK    8  A    between atoms: C_18  and  C_19
REMARK                            x       y       z     vdW  Elec       q    Type
REMARK                         _______ _______ _______ _____ _____    ______ ____
ROOT
ATOM      1  C   UNL     1      46.346   6.941  12.125  0.00  0.00    +0.000 C 
ATOM      2  C   UNL     1      47.552   7.347  11.243  0.00  0.00    +0.000 C 
ATOM      3  C   UNL     1      45.593   8.209  12.584  0.00  0.00    +0.000 C 
ENDROOT
BRANCH   1   8
ATOM      4  C   UNL     1      45.173   4.367   9.471  0.00  0.00    +0.000 A 
ATOM      5  C   UNL     1      43.828   4.206   9.836  0.00  0.00    +0.000 A 
ATOM      6  C   UNL     1      43.261   4.972  10.853  0.00  0.00    +0.000 A 
ATOM      7  C   UNL     1      44.038   5.884  11.567  0.00  0.00    +0.000 A 
ATOM      8  C   UNL     1      45.398   6.058  11.273  0.00  0.00    +0.000 A 
ATOM      9  C   UNL     1      45.919   5.326  10.186  0.00  0.00    +0.000 A 
BRANCH   4  13
ATOM     10  C   UNL     1      46.691  -0.090   7.698  0.00  0.00    +0.000 C 
ATOM     11  C   UNL     1      46.523   1.391   7.543  0.00  0.00    +0.000 A 
ATOM     12  C   UNL     1      45.925   2.148   8.548  0.00  0.00    +0.000 A 
ATOM     13  C   UNL     1      45.801   3.540   8.411  0.00  0.00    +0.000 A 
ATOM     14  C   UNL     1      46.287   4.100   7.225  0.00  0.00    +0.000 A 
ATOM     15  C   UNL     1      46.851   3.275   6.264  0.00  0.00    +0.000 A 
ATOM     16  N   UNL     1      46.985   1.940   6.400  0.00  0.00    +0.000 NA
ENDBRANCH   4  13
ENDBRANCH   1   8
BRANCH   1  17
ATOM     17  C   UNL     1      46.886   6.178  13.372  0.00  0.00    +0.000 C 
BRANCH  17  18
ATOM     18  N   UNL     1      47.740   6.996  14.247  0.00  0.00    +0.000 N 
ATOM     19  C   UNL     1      48.176   6.288  15.383  0.00  0.00    +0.000 A 
ATOM     20  C   UNL     1      48.984   6.942  16.309  0.00  0.00    +0.000 A 
ATOM     21  C   UNL     1      49.410   6.259  17.448  0.00  0.00    +0.000 A 
ATOM     22  C   UNL     1      49.025   4.933  17.645  0.00  0.00    +0.000 A 
ATOM     23  C   UNL     1      48.237   4.354  16.664  0.00  0.00    +0.000 A 
ATOM     24  N   UNL     1      47.817   5.001  15.551  0.00  0.00    +0.000 NA
ATOM     25  H   UNL     1      47.271   7.837  14.572  0.00  0.00    +0.000 HD
BRANCH  22  26
ATOM     26  C   UNL     1      49.456   4.213  18.867  0.00  0.00    +0.000 C 
ATOM     27  N   UNL     1      48.522   3.536  19.604  0.00  0.00    +0.000 N 
ATOM     28  O   UNL     1      50.626   4.226  19.225  0.00  0.00    +0.000 OA
ATOM     29  H   UNL     1      47.538   3.463  19.401  0.00  0.00    +0.000 HD
ATOM     30  H   UNL     1      48.862   3.065  20.433  0.00  0.00    +0.000 HD
ENDBRANCH  22  26
ENDBRANCH  17  18
ENDBRANCH   1  17
TORSDOF 5
ENDMDL
MODEL 5
REMARK VINA RESULT:    -7.337      3.053      7.997
REMARK INTER + INTRA:         -10.579
REMARK INTER:                  -9.410
REMARK INTRA:                  -1.169
REMARK UNBOUND:                -1.097
REMARK  Name = 
REMARK  8 active torsions:
REMARK  status: ('A' for Active; 'I' for Inactive)
REMARK    1  A    between atoms: C_1  and  C_2
REMARK    2  A    between atoms: C_4  and  C_5
REMARK    3  A    between atoms: C_9  and  C_10
REMARK    4  A    between atoms: C_10  and  C_11
REMARK    5  A    between atoms: C_10  and  C_12
REMARK    6  A    between atoms: C_10  and  C_13
REMARK    7  A    between atoms: C_13  and  N_14
REMARK    8  A    between atoms: C_18  and  C_19
REMARK                            x       y       z     vdW  Elec       q    Type
REMARK                         _______ _______ _______ _____ _____    ______ ____
ROOT
ATOM      1  C   UNL     1      48.726   8.983  12.781  0.00  0.00    +0.000 C 
ATOM      2  C   UNL     1      49.518   9.750  11.694  0.00  0.00    +0.000 C 
ATOM      3  C   UNL     1      48.603   9.861  14.046  0.00  0.00    +0.000 C 
ENDROOT
BRANCH   1   8
ATOM      4  C   UNL     1      45.703   6.969  11.419  0.00  0.00    +0.000 A 
ATOM      5  C   UNL     1      44.695   7.945  11.462  0.00  0.00    +0.000 A 
ATOM      6  C   UNL     1      44.980   9.259  11.827  0.00  0.00    +0.000 A 
ATOM      7  C   UNL     1      46.271   9.622  12.210  0.00  0.00    +0.000 A 
ATOM      8  C   UNL     1      47.310   8.679  12.225  0.00  0.00    +0.000 A 
ATOM      9  C   UNL     1      47.004   7.379  11.773  0.00  0.00    +0.000 A 
BRANCH   4  13
ATOM     10  C   UNL     1      44.992   3.365   7.982  0.00  0.00    +0.000 C 
ATOM     11  C   UNL     1      45.083   3.811   9.410  0.00  0.00    +0.000 A 
ATOM     12  C   UNL     1      45.362   5.140   9.723  0.00  0.00    +0.000 A 
ATOM     13  C   UNL     1      45.413   5.559  11.062  0.00  0.00    +0.000 A 
ATOM     14  C   UNL     1      45.190   4.579  12.035  0.00  0.00    +0.000 A 
ATOM     15  C   UNL     1      44.938   3.274  11.642  0.00  0.00    +0.000 A 
ATOM     16  N   UNL     1      44.874   2.872  10.356  0.00  0.00    +0.000 NA
ENDBRANCH   4  13
ENDBRANCH   1   8
BRANCH   1  17
ATOM     17  C   UNL     1      49.505   7.679  13.128  0.00  0.00    +0.000 C 
BRANCH  17  18
ATOM     18  N   UNL     1      49.995   7.630  14.515  0.00  0.00    +0.000 N 
ATOM     19  C   UNL     1      49.364   6.625  15.271  0.00  0.00    +0.000 A 
ATOM     20  C   UNL     1      49.722   6.469  16.607  0.00  0.00    +0.000 A 
ATOM     21  C   UNL     1      49.093   5.488  17.374  0.00  0.00    +0.000 A 
ATOM     22  C   UNL     1      48.118   4.675  16.795  0.00  0.00    +0.000 A 
ATOM     23  C   UNL     1      47.839   4.886  15.455  0.00  0.00    +0.000 A 
ATOM     24  N   UNL     1      48.442   5.830  14.695  0.00  0.00    +0.000 NA
ATOM     25  H   UNL     1      49.864   8.510  15.005  0.00  0.00    +0.000 HD
BRANCH  22  26
ATOM     26  C   UNL     1      47.431   3.650  17.614  0.00  0.00    +0.000 C 
ATOM     27  N   UNL     1      47.987   3.265  18.803  0.00  0.00    +0.000 N 
ATOM     28  O   UNL     1      46.382   3.142  17.237  0.00  0.00    +0.000 OA
ATOM     29  H   UNL     1      48.843   3.615  19.204  0.00  0.00    +0.000 HD
ATOM     30  H   UNL     1      47.485   2.557  19.325  0.00  0.00    +0.000 HD
ENDBRANCH  22  26
ENDBRANCH  17  18
ENDBRANCH   1  17
TORSDOF 5
ENDMDL
MODEL 6
REMARK VINA RESULT:    -7.333      3.215      8.541
REMARK INTER + INTRA:         -10.574
REMARK INTER:                  -9.722
REMARK INTRA:                  -0.852
REMARK UNBOUND:                -1.097
REMARK  Name = 
REMARK  8 active torsions:
REMARK  status: ('A' for Active; 'I' for Inactive)
REMARK    1  A    between atoms: C_1  and  C_2
REMARK    2  A    between atoms: C_4  and  C_5
REMARK    3  A    between atoms: C_9  and  C_10
REMARK    4  A    between atoms: C_10  and  C_11
REMARK    5  A    between atoms: C_10  and  C_12
REMARK    6  A    between atoms: C_10  and  C_13
REMARK    7  A    between atoms: C_13  and  N_14
REMARK    8  A    between atoms: C_18  and  C_19
REMARK                            x       y       z     vdW  Elec       q    Type
REMARK                         _______ _______ _______ _____ _____    ______ ____
ROOT
ATOM      1  C   UNL     1      47.466   7.554  12.666  0.00  0.00    +0.000 C 
ATOM      2  C   UNL     1      48.399   8.026  11.523  0.00  0.00    +0.000 C 
ATOM      3  C   UNL     1      47.114   8.753  13.574  0.00  0.00    +0.000 C 
ENDROOT
BRANCH   1   8
ATOM      4  C   UNL     1      45.134   5.282  10.557  0.00  0.00    +0.000 A 
ATOM      5  C   UNL     1      43.875   5.696  11.018  0.00  0.00    +0.000 A 
ATOM      6  C   UNL     1      43.749   6.751  11.920  0.00  0.00    +0.000 A 
ATOM      7  C   UNL     1      44.883   7.387  12.425  0.00  0.00    +0.000 A 
ATOM      8  C   UNL     1      46.169   6.989  12.030  0.00  0.00    +0.000 A 
ATOM      9  C   UNL     1      46.256   5.973  11.056  0.00  0.00    +0.000 A 
BRANCH   4  13
ATOM     10  C   UNL     1      46.680   3.386   6.161  0.00  0.00    +0.000 C 
ATOM     11  C   UNL     1      46.045   3.216   7.508  0.00  0.00    +0.000 A 
ATOM     12  C   UNL     1      45.915   4.299   8.374  0.00  0.00    +0.000 A 
ATOM     13  C   UNL     1      45.289   4.141   9.621  0.00  0.00    +0.000 A 
ATOM     14  C   UNL     1      44.834   2.857   9.936  0.00  0.00    +0.000 A 
ATOM     15  C   UNL     1      45.019   1.827   9.028  0.00  0.00    +0.000 A 
ATOM     16  N   UNL     1      45.606   1.979   7.824  0.00  0.00    +0.000 NA
ENDBRANCH   4  13
ENDBRANCH   1   8
BRANCH   1  17
ATOM     17  C   UNL     1      48.220   6.475  13.500  0.00  0.00    +0.000 C 
BRANCH  17  18
ATOM     18  N   UNL     1      47.331   5.551  14.222  0.00  0.00    +0.000 N 
ATOM     19  C   UNL     1      47.793   5.267  15.520  0.00  0.00    +0.000 A 
ATOM     20  C   UNL     1      47.056   4.396  16.317  0.00  0.00    +0.000 A 
ATOM     21  C   UNL     1      47.510   4.091  17.600  0.00  0.00    +0.000 A 
ATOM     22  C   UNL     1      48.693   4.662  18.070  0.00  0.00    +0.000 A 
ATOM     23  C   UNL     1      49.352   5.533  17.218  0.00  0.00    +0.000 A 
ATOM     24  N   UNL     1      48.923   5.843  15.972  0.00  0.00    +0.000 NA
ATOM     25  H   UNL     1      47.214   4.666  13.738  0.00  0.00    +0.000 HD
BRANCH  22  26
ATOM     26  C   UNL     1      49.192   4.320  19.422  0.00  0.00    +0.000 C 
ATOM     27  N   UNL     1      48.444   3.496  20.218  0.00  0.00    +0.000 N 
ATOM     28  O   UNL     1      50.253   4.771  19.835  0.00  0.00    +0.000 OA
ATOM     29  H   UNL     1      47.560   3.074  19.980  0.00  0.00    +0.000 HD
ATOM     30  H   UNL     1      48.822   3.295  21.136  0.00  0.00    +0.000 HD
ENDBRANCH  22  26
ENDBRANCH  17  18
ENDBRANCH   1  17
TORSDOF 5
ENDMDL
MODEL 7
REMARK VINA RESULT:    -6.611      4.086      6.566
REMARK INTER + INTRA:          -9.641
REMARK INTER:                  -8.823
REMARK INTRA:                  -0.818
REMARK UNBOUND:                -1.097
REMARK  Name = 
REMARK  8 active torsions:
REMARK  status: ('A' for Active; 'I' for Inactive)
REMARK    1  A    between atoms: C_1  and  C_2
REMARK    2  A    between atoms: C_4  and  C_5
REMARK    3  A    between atoms: C_9  and  C_10
REMARK    4  A    between atoms: C_10  and  C_11
REMARK    5  A    between atoms: C_10  and  C_12
REMARK    6  A    between atoms: C_10  and  C_13
REMARK    7  A    between atoms: C_13  and  N_14
REMARK    8  A    between atoms: C_18  and  C_19
REMARK                            x       y       z     vdW  Elec       q    Type
REMARK                         _______ _______ _______ _____ _____    ______ ____
ROOT
ATOM      1  C   UNL     1      48.058   4.437  17.140  0.00  0.00    +0.000 C 
ATOM      2  C   UNL     1      47.977   2.897  17.280  0.00  0.00    +0.000 C 
ATOM      3  C   UNL     1      47.242   5.102  18.270  0.00  0.00    +0.000 C 
ENDROOT
BRANCH   1   8
ATOM      4  C   UNL     1      51.861   4.200  17.870  0.00  0.00    +0.000 A 
ATOM      5  C   UNL     1      52.316   5.391  17.284  0.00  0.00    +0.000 A 
ATOM      6  C   UNL     1      51.424   6.315  16.743  0.00  0.00    +0.000 A 
ATOM      7  C   UNL     1      50.055   6.049  16.727  0.00  0.00    +0.000 A 
ATOM      8  C   UNL     1      49.546   4.857  17.262  0.00  0.00    +0.000 A 
ATOM      9  C   UNL     1      50.468   3.982  17.873  0.00  0.00    +0.000 A 
BRANCH   4  13
ATOM     10  C   UNL     1      54.096  -0.302  17.656  0.00  0.00    +0.000 C 
ATOM     11  C   UNL     1      53.890   1.026  18.319  0.00  0.00    +0.000 A 
ATOM     12  C   UNL     1      53.011   1.962  17.779  0.00  0.00    +0.000 A 
ATOM     13  C   UNL     1      52.797   3.191  18.423  0.00  0.00    +0.000 A 
ATOM     14  C   UNL     1      53.519   3.417  19.599  0.00  0.00    +0.000 A 
ATOM     15  C   UNL     1      54.391   2.443  20.061  0.00  0.00    +0.000 A 
ATOM     16  N   UNL     1      54.586   1.256  19.453  0.00  0.00    +0.000 NA
ENDBRANCH   4  13
ENDBRANCH   1   8
BRANCH   1  17
ATOM     17  C   UNL     1      47.454   4.837  15.760  0.00  0.00    +0.000 C 
BRANCH  17  18
ATOM     18  N   UNL     1      47.158   3.691  14.886  0.00  0.00    +0.000 N 
ATOM     19  C   UNL     1      46.316   4.039  13.813  0.00  0.00    +0.000 A 
ATOM     20  C   UNL     1      45.941   3.051  12.908  0.00  0.00    +0.000 A 
ATOM     21  C   UNL     1      45.094   3.377  11.849  0.00  0.00    +0.000 A 
ATOM     22  C   UNL     1      44.636   4.687  11.708  0.00  0.00    +0.000 A 
ATOM     23  C   UNL     1      45.074   5.611  12.641  0.00  0.00    +0.000 A 
ATOM     24  N   UNL     1      45.899   5.313  13.673  0.00  0.00    +0.000 NA
ATOM     25  H   UNL     1      46.715   2.925  15.385  0.00  0.00    +0.000 HD
BRANCH  22  26
ATOM     26  C   UNL     1      43.715   5.031  10.599  0.00  0.00    +0.000 C 
ATOM     27  N   UNL     1      44.073   4.719   9.315  0.00  0.00    +0.000 N 
ATOM     28  O   UNL     1      42.650   5.595  10.816  0.00  0.00    +0.000 OA
ATOM     29  H   UNL     1      44.922   4.259   9.026  0.00  0.00    +0.000 HD
ATOM     30  H   UNL     1      43.416   4.978   8.591  0.00  0.00    +0.000 HD
ENDBRANCH  22  26
ENDBRANCH  17  18
ENDBRANCH   1  17
TORSDOF 5
ENDMDL
MODEL 8
REMARK VINA RESULT:    -6.598      2.974      5.192
REMARK INTER + INTRA:          -9.624
REMARK INTER:                  -8.597
REMARK INTRA:                  -1.027
REMARK UNBOUND:                -1.097
REMARK  Name = 
REMARK  8 active torsions:
REMARK  status: ('A' for Active; 'I' for Inactive)
REMARK    1  A    between atoms: C_1  and  C_2
REMARK    2  A    between atoms: C_4  and  C_5
REMARK    3  A    between atoms: C_9  and  C_10
REMARK    4  A    between atoms: C_10  and  C_11
REMARK    5  A    between atoms: C_10  and  C_12
REMARK    6  A    between atoms: C_10  and  C_13
REMARK    7  A    between atoms: C_13  and  N_14
REMARK    8  A    between atoms: C_18  and  C_19
REMARK                            x       y       z     vdW  Elec       q    Type
REMARK                         _______ _______ _______ _____ _____    ______ ____
ROOT
ATOM      1  C   UNL     1      48.358   8.567  12.830  0.00  0.00    +0.000 C 
ATOM      2  C   UNL     1      48.946   9.968  12.529  0.00  0.00    +0.000 C 
ATOM      3  C   UNL     1      49.212   7.487  12.130  0.00  0.00    +0.000 C 
ENDROOT
BRANCH   1   8
ATOM      4  C   UNL     1      48.806   6.768  16.238  0.00  0.00    +0.000 A 
ATOM      5  C   UNL     1      48.777   7.860  17.118  0.00  0.00    +0.000 A 
ATOM      6  C   UNL     1      48.523   9.151  16.658  0.00  0.00    +0.000 A 
ATOM      7  C   UNL     1      48.342   9.391  15.296  0.00  0.00    +0.000 A 
ATOM      8  C   UNL     1      48.401   8.344  14.365  0.00  0.00    +0.000 A 
ATOM      9  C   UNL     1      48.579   7.041  14.874  0.00  0.00    +0.000 A 
BRANCH   4  13
ATOM     10  C   UNL     1      52.001   3.356  18.098  0.00  0.00    +0.000 C 
ATOM     11  C   UNL     1      50.636   3.744  17.616  0.00  0.00    +0.000 A 
ATOM     12  C   UNL     1      50.376   5.043  17.187  0.00  0.00    +0.000 A 
ATOM     13  C   UNL     1      49.104   5.392  16.706  0.00  0.00    +0.000 A 
ATOM     14  C   UNL     1      48.136   4.383  16.703  0.00  0.00    +0.000 A 
ATOM     15  C   UNL     1      48.468   3.119  17.166  0.00  0.00    +0.000 A 
ATOM     16  N   UNL     1      49.693   2.778  17.614  0.00  0.00    +0.000 NA
ENDBRANCH   4  13
ENDBRANCH   1   8
BRANCH   1  17
ATOM     17  C   UNL     1      46.902   8.517  12.277  0.00  0.00    +0.000 C 
BRANCH  17  18
ATOM     18  N   UNL     1      45.959   7.798  13.148  0.00  0.00    +0.000 N 
ATOM     19  C   UNL     1      45.516   6.591  12.576  0.00  0.00    +0.000 A 
ATOM     20  C   UNL     1      44.609   5.807  13.284  0.00  0.00    +0.000 A 
ATOM     21  C   UNL     1      44.149   4.617  12.723  0.00  0.00    +0.000 A 
ATOM     22  C   UNL     1      44.603   4.223  11.464  0.00  0.00    +0.000 A 
ATOM     23  C   UNL     1      45.520   5.051  10.839  0.00  0.00    +0.000 A 
ATOM     24  N   UNL     1      45.980   6.208  11.370  0.00  0.00    +0.000 NA
ATOM     25  H   UNL     1      45.136   8.350  13.370  0.00  0.00    +0.000 HD
BRANCH  22  26
ATOM     26  C   UNL     1      44.096   2.971  10.855  0.00  0.00    +0.000 C 
ATOM     27  N   UNL     1      44.825   2.369   9.866  0.00  0.00    +0.000 N 
ATOM     28  O   UNL     1      43.035   2.479  11.219  0.00  0.00    +0.000 OA
ATOM     29  H   UNL     1      45.705   2.688   9.493  0.00  0.00    +0.000 HD
ATOM     30  H   UNL     1      44.436   1.520   9.476  0.00  0.00    +0.000 HD
ENDBRANCH  22  26
ENDBRANCH  17  18
ENDBRANCH   1  17
TORSDOF 5
ENDMDL
MODEL 9
REMARK VINA RESULT:    -6.298      3.311      6.250
REMARK INTER + INTRA:          -9.235
REMARK INTER:                  -8.569
REMARK INTRA:                  -0.667
REMARK UNBOUND:                -1.097
REMARK  Name = 
REMARK  8 active torsions:
REMARK  status: ('A' for Active; 'I' for Inactive)
REMARK    1  A    between atoms: C_1  and  C_2
REMARK    2  A    between atoms: C_4  and  C_5
REMARK    3  A    between atoms: C_9  and  C_10
REMARK    4  A    between atoms: C_10  and  C_11
REMARK    5  A    between atoms: C_10  and  C_12
REMARK    6  A    between atoms: C_10  and  C_13
REMARK    7  A    between atoms: C_13  and  N_14
REMARK    8  A    between atoms: C_18  and  C_19
REMARK                            x       y       z     vdW  Elec       q    Type
REMARK                         _______ _______ _______ _____ _____    ______ ____
ROOT
ATOM      1  C   UNL     1      49.190   7.670  15.587  0.00  0.00    +0.000 C 
ATOM      2  C   UNL     1      48.759   9.085  16.048  0.00  0.00    +0.000 C 
ATOM      3  C   UNL     1      50.642   7.718  15.064  0.00  0.00    +0.000 C 
ENDROOT
BRANCH   1   8
ATOM      4  C   UNL     1      50.029   4.725  17.968  0.00  0.00    +0.000 A 
ATOM      5  C   UNL     1      49.265   5.070  19.093  0.00  0.00    +0.000 A 
ATOM      6  C   UNL     1      48.412   6.173  19.075  0.00  0.00    +0.000 A 
ATOM      7  C   UNL     1      48.341   6.991  17.948  0.00  0.00    +0.000 A 
ATOM      8  C   UNL     1      49.113   6.718  16.809  0.00  0.00    +0.000 A 
ATOM      9  C   UNL     1      49.902   5.550  16.832  0.00  0.00    +0.000 A 
BRANCH   4  13
ATOM     10  C   UNL     1      54.443   2.660  19.219  0.00  0.00    +0.000 C 
ATOM     11  C   UNL     1      53.085   2.565  18.592  0.00  0.00    +0.000 A 
ATOM     12  C   UNL     1      52.221   3.658  18.598  0.00  0.00    +0.000 A 
ATOM     13  C   UNL     1      50.964   3.573  17.979  0.00  0.00    +0.000 A 
ATOM     14  C   UNL     1      50.636   2.348  17.389  0.00  0.00    +0.000 A 
ATOM     15  C   UNL     1      51.544   1.301  17.443  0.00  0.00    +0.000 A 
ATOM     16  N   UNL     1      52.758   1.385  18.023  0.00  0.00    +0.000 NA
ENDBRANCH   4  13
ENDBRANCH   1   8
BRANCH   1  17
ATOM     17  C   UNL     1      48.239   7.218  14.438  0.00  0.00    +0.000 C 
BRANCH  17  18
ATOM     18  N   UNL     1      47.637   5.893  14.651  0.00  0.00    +0.000 N 
ATOM     19  C   UNL     1      46.828   5.493  13.571  0.00  0.00    +0.000 A 
ATOM     20  C   UNL     1      46.182   4.261  13.639  0.00  0.00    +0.000 A 
ATOM     21  C   UNL     1      45.364   3.858  12.584  0.00  0.00    +0.000 A 
ATOM     22  C   UNL     1      45.204   4.690  11.475  0.00  0.00    +0.000 A 
ATOM     23  C   UNL     1      45.898   5.888  11.482  0.00  0.00    +0.000 A 
ATOM     24  N   UNL     1      46.699   6.293  12.495  0.00  0.00    +0.000 NA
ATOM     25  H   UNL     1      47.067   5.855  15.491  0.00  0.00    +0.000 HD
BRANCH  22  26
ATOM     26  C   UNL     1      44.314   4.276  10.365  0.00  0.00    +0.000 C 
ATOM     27  N   UNL     1      44.601   4.690   9.092  0.00  0.00    +0.000 N 
ATOM     28  O   UNL     1      43.329   3.579  10.573  0.00  0.00    +0.000 OA
ATOM     29  H   UNL     1      45.380   5.264   8.811  0.00  0.00    +0.000 HD
ATOM     30  H   UNL     1      43.962   4.388   8.368  0.00  0.00    +0.000 HD
ENDBRANCH  22  26
ENDBRANCH  17  18
ENDBRANCH   1  17
TORSDOF 5
ENDMDL
