MODEL 1
REMARK VINA RESULT:    -7.733      0.000      0.000
REMARK INTER + INTRA:          -9.376
REMARK INTER:                  -9.089
REMARK INTRA:                  -0.287
REMARK UNBOUND:                -0.287
REMARK  Name = 
REMARK  3 active torsions:
REMARK  status: ('A' for Active; 'I' for Inactive)
REMARK    1  A    between atoms: C_2  and  C_4
REMARK    2  A    between atoms: N_8  and  C_9
REMARK    3  A    between atoms: C_9  and  C_10
REMARK                            x       y       z     vdW  Elec       q    Type
REMARK                         _______ _______ _______ _____ _____    ______ ____
ROOT
ATOM      1  C   UNL     1      46.544   4.483  13.471  0.00  0.00    +0.000 A 
ATOM      2  C   UNL     1      46.730   5.690  12.804  0.00  0.00    +0.000 A 
ATOM      3  C   UNL     1      46.089   5.895  11.579  0.00  0.00    +0.000 A 
ATOM      4  C   UNL     1      45.313   4.881  11.016  0.00  0.00    +0.000 A 
ATOM      5  N   UNL     1      44.732   5.108   9.771  0.00  0.00    +0.000 N 
ATOM      6  N   UNL     1      45.158   3.698  11.641  0.00  0.00    +0.000 NA
ATOM      7  C   UNL     1      45.756   3.527  12.847  0.00  0.00    +0.000 A 
ATOM      8  H   UNL     1      44.020   5.830   9.811  0.00  0.00    +0.000 HD
ENDROOT
BRANCH   1  10
ATOM      9  N   UNL     1      47.157   5.130  15.733  0.00  0.00    +0.000 N 
ATOM     10  C   UNL     1      47.159   4.158  14.774  0.00  0.00    +0.000 C 
ATOM     11  O   UNL     1      47.623   3.046  15.001  0.00  0.00    +0.000 OA
ATOM     12  H   UNL     1      47.490   4.855  16.649  0.00  0.00    +0.000 HD
ATOM     13  H   UNL     1      46.576   5.952  15.676  0.00  0.00    +0.000 HD
ENDBRANCH   1  10
BRANCH   5  14
ATOM     14  C   UNL     1      44.317   3.949   8.986  0.00  0.00    +0.000 C 
BRANCH  14  15
ATOM     15  C   UNL     1      45.426   3.165   8.306  0.00  0.00    +0.000 A 
ATOM     16  C   UNL     1      46.170   3.743   7.278  0.00  0.00    +0.000 A 
ATOM     17  C   UNL     1      47.089   2.965   6.578  0.00  0.00    +0.000 A 
ATOM     18  C   UNL     1      47.238   1.628   6.911  0.00  0.00    +0.000 A 
ATOM     19  C   UNL     1      46.472   1.126   7.948  0.00  0.00    +0.000 A 
ATOM     20  N   UNL     1      45.582   1.859   8.658  0.00  0.00    +0.000 NA
ENDBRANCH  14  15
ENDBRANCH   5  14
TORSDOF 3
ENDMDL
MODEL 2
REMARK VINA RESULT:    -7.696      2.581      6.147
REMARK INTER + INTRA:          -9.333
REMARK INTER:                  -9.017
REMARK INTRA:                  -0.316
REMARK UNBOUND:                -0.287
REMARK  Name = 
REMARK  3 active torsions:
REMARK  status: ('A' for Active; 'I' for Inactive)
REMARK    1  A    between atoms: C_2  and  C_4
REMARK    2  A    between atoms: N_8  and  C_9
REMARK    3  A    between atoms: C_9  and  C_10
REMARK                            x       y       z     vdW  Elec       q    Type
REMARK                         _______ _______ _______ _____ _____    ______ ____
ROOT
ATOM      1  C   UNL     1      46.535   2.617   7.410  0.00  0.00    +0.000 A 
ATOM      2  C   UNL     1      45.968   1.662   8.249  0.00  0.00    +0.000 A 
ATOM      3  C   UNL     1      45.049   2.070   9.220  0.00  0.00    +0.000 A 
ATOM      4  C   UNL     1      44.745   3.424   9.372  0.00  0.00    +0.000 A 
ATOM      5  N   UNL     1      43.862   3.793  10.383  0.00  0.00    +0.000 N 
ATOM      6  N   UNL     1      45.316   4.355   8.584  0.00  0.00    +0.000 NA
ATOM      7  C   UNL     1      46.179   3.940   7.622  0.00  0.00    +0.000 A 
ATOM      8  H   UNL     1      42.921   3.452  10.208  0.00  0.00    +0.000 HD
ENDROOT
BRANCH   1  10
ATOM      9  N   UNL     1      47.484   3.079   5.220  0.00  0.00    +0.000 N 
ATOM     10  C   UNL     1      47.506   2.303   6.343  0.00  0.00    +0.000 C 
ATOM     11  O   UNL     1      48.329   1.403   6.474  0.00  0.00    +0.000 OA
ATOM     12  H   UNL     1      48.222   2.913   4.547  0.00  0.00    +0.000 HD
ATOM     13  H   UNL     1      47.006   3.966   5.179  0.00  0.00    +0.000 HD
ENDBRANCH   1  10
BRANCH   5  14
ATOM     14  C   UNL     1      43.882   5.180  10.839  0.00  0.00    +0.000 C 
BRANCH  14  15
ATOM     15  C   UNL     1      45.008   5.560  11.785  0.00  0.00    +0.000 A 
ATOM     16  C   UNL     1      45.951   6.517  11.410  0.00  0.00    +0.000 A 
ATOM     17  C   UNL     1      47.050   6.753  12.233  0.00  0.00    +0.000 A 
ATOM     18  C   UNL     1      47.190   6.023  13.403  0.00  0.00    +0.000 A 
ATOM     19  C   UNL     1      46.211   5.095  13.713  0.00  0.00    +0.000 A 
ATOM     20  N   UNL     1      45.123   4.854  12.944  0.00  0.00    +0.000 NA
ENDBRANCH  14  15
ENDBRANCH   5  14
TORSDOF 3
ENDMDL
MODEL 3
REMARK VINA RESULT:    -6.558      2.268      2.726
REMARK INTER + INTRA:          -7.996
REMARK INTER:                  -7.750
REMARK INTRA:                  -0.245
REMARK UNBOUND:                -0.287
REMARK  Name = 
REMARK  3 active torsions:
REMARK  status: ('A' for Active; 'I' for Inactive)
REMARK    1  A    between atoms: C_2  and  C_4
REMARK    2  A    between atoms: N_8  and  C_9
REMARK    3  A    between atoms: C_9  and  C_10
REMARK                            x       y       z     vdW  Elec       q    Type
REMARK                         _______ _______ _______ _____ _____    ______ ____
ROOT
ATOM      1  C   UNL     1      45.209   7.010  12.205  0.00  0.00    +0.000 A 
ATOM      2  C   UNL     1      44.105   7.072  11.361  0.00  0.00    +0.000 A 
ATOM      3  C   UNL     1      43.662   5.903  10.735  0.00  0.00    +0.000 A 
ATOM      4  C   UNL     1      44.351   4.704  10.922  0.00  0.00    +0.000 A 
ATOM      5  N   UNL     1      43.906   3.573  10.242  0.00  0.00    +0.000 N 
ATOM      6  N   UNL     1      45.441   4.647  11.712  0.00  0.00    +0.000 NA
ATOM      7  C   UNL     1      45.837   5.781  12.341  0.00  0.00    +0.000 A 
ATOM      8  H   UNL     1      42.994   3.268  10.569  0.00  0.00    +0.000 HD
ENDROOT
BRANCH   1  10
ATOM      9  N   UNL     1      45.030   9.329  12.914  0.00  0.00    +0.000 N 
ATOM     10  C   UNL     1      45.759   8.175  12.928  0.00  0.00    +0.000 C 
ATOM     11  O   UNL     1      46.814   8.100  13.549  0.00  0.00    +0.000 OA
ATOM     12  H   UNL     1      45.373  10.081  13.498  0.00  0.00    +0.000 HD
ATOM     13  H   UNL     1      44.061   9.359  12.636  0.00  0.00    +0.000 HD
ENDBRANCH   1  10
BRANCH   5  14
ATOM     14  C   UNL     1      44.841   2.465  10.067  0.00  0.00    +0.000 C 
BRANCH  14  15
ATOM     15  C   UNL     1      45.664   2.476   8.791  0.00  0.00    +0.000 A 
ATOM     16  C   UNL     1      45.697   3.613   7.983  0.00  0.00    +0.000 A 
ATOM     17  C   UNL     1      46.346   3.559   6.752  0.00  0.00    +0.000 A 
ATOM     18  C   UNL     1      46.938   2.371   6.349  0.00  0.00    +0.000 A 
ATOM     19  C   UNL     1      46.872   1.287   7.207  0.00  0.00    +0.000 A 
ATOM     20  N   UNL     1      46.264   1.312   8.416  0.00  0.00    +0.000 NA
ENDBRANCH  14  15
ENDBRANCH   5  14
TORSDOF 3
ENDMDL
MODEL 4
REMARK VINA RESULT:    -6.435      2.909      7.117
REMARK INTER + INTRA:          -7.851
REMARK INTER:                  -7.606
REMARK INTRA:                  -0.246
REMARK UNBOUND:                -0.287
REMARK  Name = 
REMARK  3 active torsions:
REMARK  status: ('A' for Active; 'I' for Inactive)
REMARK    1  A    between atoms: C_2  and  C_4
REMARK    2  A    between atoms: N_8  and  C_9
REMARK    3  A    between atoms: C_9  and  C_10
REMARK                            x       y       z     vdW  Elec       q    Type
REMARK                         _______ _______ _______ _____ _____    ______ ____
ROOT
ATOM      1  C   UNL     1      45.100   4.282  11.473  0.00  0.00    +0.000 A 
ATOM      2  C   UNL     1      45.589   5.570  11.669  0.00  0.00    +0.000 A 
ATOM      3  C   UNL     1      46.356   5.840  12.806  0.00  0.00    +0.000 A 
ATOM      4  C   UNL     1      46.584   4.838  13.751  0.00  0.00    +0.000 A 
ATOM      5  N   UNL     1      47.312   5.161  14.893  0.00  0.00    +0.000 N 
ATOM      6  N   UNL     1      46.084   3.599  13.582  0.00  0.00    +0.000 NA
ATOM      7  C   UNL     1      45.372   3.343  12.455  0.00  0.00    +0.000 A 
ATOM      8  H   UNL     1      48.279   5.380  14.677  0.00  0.00    +0.000 HD
ENDROOT
BRANCH   1  10
ATOM      9  N   UNL     1      44.172   4.770   9.278  0.00  0.00    +0.000 N 
ATOM     10  C   UNL     1      44.289   3.878  10.306  0.00  0.00    +0.000 C 
ATOM     11  O   UNL     1      43.770   2.768  10.243  0.00  0.00    +0.000 OA
ATOM     12  H   UNL     1      43.700   4.435   8.448  0.00  0.00    +0.000 HD
ATOM     13  H   UNL     1      44.775   5.571   9.181  0.00  0.00    +0.000 HD
ENDBRANCH   1  10
BRANCH   5  14
ATOM     14  C   UNL     1      47.176   4.295  16.061  0.00  0.00    +0.000 C 
BRANCH  14  15
ATOM     15  C   UNL     1      48.470   3.818  16.697  0.00  0.00    +0.000 A 
ATOM     16  C   UNL     1      49.320   4.726  17.330  0.00  0.00    +0.000 A 
ATOM     17  C   UNL     1      50.563   4.293  17.788  0.00  0.00    +0.000 A 
ATOM     18  C   UNL     1      50.934   2.971  17.596  0.00  0.00    +0.000 A 
ATOM     19  C   UNL     1      50.034   2.127  16.967  0.00  0.00    +0.000 A 
ATOM     20  N   UNL     1      48.814   2.512  16.526  0.00  0.00    +0.000 NA
ENDBRANCH  14  15
ENDBRANCH   5  14
TORSDOF 3
ENDMDL
MODEL 5
REMARK VINA RESULT:    -5.754      3.709      5.799
REMARK INTER + INTRA:          -7.051
REMARK INTER:                  -6.857
REMARK INTRA:                  -0.193
REMARK UNBOUND:                -0.287
REMARK  Name = 
REMARK  3 active torsions:
REMARK  status: ('A' for Active; 'I' for Inactive)
REMARK    1  A    between atoms: C_2  and  C_4
REMARK    2  A    between atoms: N_8  and  C_9
REMARK    3  A    between atoms: C_9  and  C_10
REMARK                            x       y       z     vdW  Elec       q    Type
REMARK                         _______ _______ _______ _____ _____    ______ ____
ROOT
ATOM      1  C   UNL     1      49.016   4.576  18.247  0.00  0.00    +0.000 A 
ATOM      2  C   UNL     1      48.260   3.409  18.198  0.00  0.00    +0.000 A 
ATOM      3  C   UNL     1      47.540   3.114  17.037  0.00  0.00    +0.000 A 
ATOM      4  C   UNL     1      47.546   4.006  15.963  0.00  0.00    +0.000 A 
ATOM      5  N   UNL     1      46.777   3.698  14.844  0.00  0.00    +0.000 N 
ATOM      6  N   UNL     1      48.249   5.153  16.019  0.00  0.00    +0.000 NA
ATOM      7  C   UNL     1      48.972   5.409  17.139  0.00  0.00    +0.000 A 
ATOM      8  H   UNL     1      47.129   2.880  14.355  0.00  0.00    +0.000 HD
ENDROOT
BRANCH   1  10
ATOM      9  N   UNL     1      49.562   4.378  20.608  0.00  0.00    +0.000 N 
ATOM     10  C   UNL     1      49.824   4.986  19.413  0.00  0.00    +0.000 C 
ATOM     11  O   UNL     1      50.723   5.813  19.308  0.00  0.00    +0.000 OA
ATOM     12  H   UNL     1      50.193   4.598  21.369  0.00  0.00    +0.000 HD
ATOM     13  H   UNL     1      49.018   3.533  20.682  0.00  0.00    +0.000 HD
ENDBRANCH   1  10
BRANCH   5  14
ATOM     14  C   UNL     1      46.417   4.785  13.938  0.00  0.00    +0.000 C 
BRANCH  14  15
ATOM     15  C   UNL     1      45.153   4.587  13.120  0.00  0.00    +0.000 A 
ATOM     16  C   UNL     1      45.095   3.596  12.140  0.00  0.00    +0.000 A 
ATOM     17  C   UNL     1      43.979   3.518  11.310  0.00  0.00    +0.000 A 
ATOM     18  C   UNL     1      42.952   4.436  11.469  0.00  0.00    +0.000 A 
ATOM     19  C   UNL     1      43.075   5.386  12.467  0.00  0.00    +0.000 A 
ATOM     20  N   UNL     1      44.139   5.478  13.300  0.00  0.00    +0.000 NA
ENDBRANCH  14  15
ENDBRANCH   5  14
TORSDOF 3
ENDMDL
MODEL 6
REMARK VINA RESULT:    -5.664      3.500      5.214
REMARK INTER + INTRA:          -6.944
REMARK INTER:                  -6.668
REMARK INTRA:                  -0.277
REMARK UNBOUND:                -0.287
REMARK  Name = 
REMARK  3 active torsions:
REMARK  status: ('A' for Active; 'I' for Inactive)
REMARK    1  A    between atoms: C_2  and  C_4
REMARK    2  A    between atoms: N_8  and  C_9
REMARK    3  A    between atoms: C_9  and  C_10
REMARK                            x       y       z     vdW  Elec       q    Type
REMARK                         _______ _______ _______ _____ _____    ______ ____
ROOT
ATOM      1  C   UNL     1      48.322   4.519  17.832  0.00  0.00    +0.000 A 
ATOM      2  C   UNL     1      48.878   5.533  17.058  0.00  0.00    +0.000 A 
ATOM      3  C   UNL     1      48.401   5.734  15.759  0.00  0.00    +0.000 A 
ATOM      4  C   UNL     1      47.415   4.897  15.237  0.00  0.00    +0.000 A 
ATOM      5  N   UNL     1      47.002   5.101  13.923  0.00  0.00    +0.000 N 
ATOM      6  N   UNL     1      46.898   3.893  15.971  0.00  0.00    +0.000 NA
ATOM      7  C   UNL     1      47.344   3.732  17.243  0.00  0.00    +0.000 A 
ATOM      8  H   UNL     1      46.516   5.985  13.811  0.00  0.00    +0.000 HD
ENDROOT
BRANCH   1  10
ATOM      9  N   UNL     1      48.334   3.031  19.756  0.00  0.00    +0.000 N 
ATOM     10  C   UNL     1      48.736   4.220  19.218  0.00  0.00    +0.000 C 
ATOM     11  O   UNL     1      49.447   4.994  19.852  0.00  0.00    +0.000 OA
ATOM     12  H   UNL     1      48.713   2.802  20.666  0.00  0.00    +0.000 HD
ATOM     13  H   UNL     1      47.972   2.275  19.197  0.00  0.00    +0.000 HD
ENDBRANCH   1  10
BRANCH   5  14
ATOM     14  C   UNL     1      46.336   4.000  13.233  0.00  0.00    +0.000 C 
BRANCH  14  15
ATOM     15  C   UNL     1      44.999   4.322  12.588  0.00  0.00    +0.000 A 
ATOM     16  C   UNL     1      44.853   4.261  11.202  0.00  0.00    +0.000 A 
ATOM     17  C   UNL     1      43.662   4.689  10.620  0.00  0.00    +0.000 A 
ATOM     18  C   UNL     1      42.649   5.178  11.432  0.00  0.00    +0.000 A 
ATOM     19  C   UNL     1      42.863   5.200  12.799  0.00  0.00    +0.000 A 
ATOM     20  N   UNL     1      44.002   4.776  13.396  0.00  0.00    +0.000 NA
ENDBRANCH  14  15
ENDBRANCH   5  14
TORSDOF 3
ENDMDL
MODEL 7
REMARK VINA RESULT:    -5.616      2.839      7.580
REMARK INTER + INTRA:          -6.888
REMARK INTER:                  -6.672
REMARK INTRA:                  -0.216
REMARK UNBOUND:                -0.287
REMARK  Name = 
REMARK  3 active torsions:
REMARK  status: ('A' for Active; 'I' for Inactive)
REMARK    1  A    between atoms: C_2  and  C_4
REMARK    2  A    between atoms: N_8  and  C_9
REMARK    3  A    between atoms: C_9  and  C_10
REMARK                            x       y       z     vdW  Elec       q    Type
REMARK                         _______ _______ _______ _____ _____    ______ ____
ROOT
ATOM      1  C   UNL     1      45.421   4.506  10.603  0.00  0.00    +0.000 A 
ATOM      2  C   UNL     1      45.149   3.319  11.277  0.00  0.00    +0.000 A 
ATOM      3  C   UNL     1      45.433   3.233  12.642  0.00  0.00    +0.000 A 
ATOM      4  C   UNL     1      46.025   4.309  13.304  0.00  0.00    +0.000 A 
ATOM      5  N   UNL     1      46.336   4.165  14.654  0.00  0.00    +0.000 N 
ATOM      6  N   UNL     1      46.322   5.448  12.649  0.00  0.00    +0.000 NA
ATOM      7  C   UNL     1      46.007   5.530  11.331  0.00  0.00    +0.000 A 
ATOM      8  H   UNL     1      45.503   4.082  15.229  0.00  0.00    +0.000 HD
ENDROOT
BRANCH   1  10
ATOM      9  N   UNL     1      43.921   4.368   8.695  0.00  0.00    +0.000 N 
ATOM     10  C   UNL     1      45.154   4.717   9.166  0.00  0.00    +0.000 C 
ATOM     11  O   UNL     1      45.994   5.221   8.428  0.00  0.00    +0.000 OA
ATOM     12  H   UNL     1      43.723   4.615   7.733  0.00  0.00    +0.000 HD
ATOM     13  H   UNL     1      43.135   4.191   9.302  0.00  0.00    +0.000 HD
ENDBRANCH   1  10
BRANCH   5  14
ATOM     14  C   UNL     1      47.331   5.066  15.229  0.00  0.00    +0.000 C 
BRANCH  14  15
ATOM     15  C   UNL     1      47.896   4.668  16.582  0.00  0.00    +0.000 A 
ATOM     16  C   UNL     1      47.800   3.348  17.025  0.00  0.00    +0.000 A 
ATOM     17  C   UNL     1      48.201   3.031  18.320  0.00  0.00    +0.000 A 
ATOM     18  C   UNL     1      48.679   4.037  19.147  0.00  0.00    +0.000 A 
ATOM     19  C   UNL     1      48.753   5.321  18.636  0.00  0.00    +0.000 A 
ATOM     20  N   UNL     1      48.386   5.658  17.377  0.00  0.00    +0.000 NA
ENDBRANCH  14  15
ENDBRANCH   5  14
TORSDOF 3
ENDMDL
MODEL 8
REMARK VINA RESULT:    -5.497      1.857      2.916
REMARK INTER + INTRA:          -6.748
REMARK INTER:                  -6.513
REMARK INTRA:                  -0.235
REMARK UNBOUND:                -0.287
REMARK  Name = 
REMARK  3 active torsions:
REMARK  status: ('A' for Active; 'I' for Inactive)
REMARK    1  A    between atoms: C_2  and  C_4
REMARK    2  A    between atoms: N_8  and  C_9
REMARK    3  A    between atoms: C_9  and  C_10
REMARK                            x       y       z     vdW  Elec       q    Type
REMARK                         _______ _______ _______ _____ _____    ______ ____
ROOT
ATOM      1  C   UNL     1      48.120   5.515  15.551  0.00  0.00    +0.000 A 
ATOM      2  C   UNL     1      48.248   6.497  14.574  0.00  0.00    +0.000 A 
ATOM      3  C   UNL     1      47.355   6.505  13.498  0.00  0.00    +0.000 A 
ATOM      4  C   UNL     1      46.381   5.511  13.388  0.00  0.00    +0.000 A 
ATOM      5  N   UNL     1      45.544   5.528  12.276  0.00  0.00    +0.000 N 
ATOM      6  N   UNL     1      46.276   4.539  14.314  0.00  0.00    +0.000 NA
ATOM      7  C   UNL     1      47.126   4.565  15.372  0.00  0.00    +0.000 A 
ATOM      8  H   UNL     1      44.927   6.335  12.277  0.00  0.00    +0.000 HD
ENDROOT
BRANCH   1  10
ATOM      9  N   UNL     1      48.433   5.641  17.960  0.00  0.00    +0.000 N 
ATOM     10  C   UNL     1      48.996   5.414  16.736  0.00  0.00    +0.000 C 
ATOM     11  O   UNL     1      50.177   5.101  16.631  0.00  0.00    +0.000 OA
ATOM     12  H   UNL     1      49.024   5.467  18.763  0.00  0.00    +0.000 HD
ATOM     13  H   UNL     1      47.436   5.651  18.107  0.00  0.00    +0.000 HD
ENDBRANCH   1  10
BRANCH   5  14
ATOM     14  C   UNL     1      44.853   4.291  11.918  0.00  0.00    +0.000 C 
BRANCH  14  15
ATOM     15  C   UNL     1      44.952   3.863  10.465  0.00  0.00    +0.000 A 
ATOM     16  C   UNL     1      44.682   2.544  10.099  0.00  0.00    +0.000 A 
ATOM     17  C   UNL     1      44.909   2.138   8.786  0.00  0.00    +0.000 A 
ATOM     18  C   UNL     1      45.409   3.053   7.871  0.00  0.00    +0.000 A 
ATOM     19  C   UNL     1      45.645   4.346   8.305  0.00  0.00    +0.000 A 
ATOM     20  N   UNL     1      45.420   4.775   9.569  0.00  0.00    +0.000 NA
ENDBRANCH  14  15
ENDBRANCH   5  14
TORSDOF 3
ENDMDL
MODEL 9
REMARK VINA RESULT:    -5.486      3.520      6.122
REMARK INTER + INTRA:          -6.736
REMARK INTER:                  -6.456
REMARK INTRA:                  -0.280
REMARK UNBOUND:                -0.287
REMARK  Name = 
REMARK  3 active torsions:
REMARK  status: ('A' for Active; 'I' for Inactive)
REMARK    1  A    between atoms: C_2  and  C_4
REMARK    2  A    between atoms: N_8  and  C_9
REMARK    3  A    between atoms: C_9  and  C_10
REMARK                            x       y       z     vdW  Elec       q    Type
REMARK                         _______ _______ _______ _____ _____    ______ ____
ROOT
ATOM      1  C   UNL     1      44.804   3.956  11.732  0.00  0.00    +0.000 A 
ATOM      2  C   UNL     1      45.642   3.741  12.822  0.00  0.00    +0.000 A 
ATOM      3  C   UNL     1      46.241   4.839  13.446  0.00  0.00    +0.000 A 
ATOM      4  C   UNL     1      46.035   6.126  12.947  0.00  0.00    +0.000 A 
ATOM      5  N   UNL     1      46.690   7.187  13.568  0.00  0.00    +0.000 N 
ATOM      6  N   UNL     1      45.253   6.336  11.872  0.00  0.00    +0.000 NA
ATOM      7  C   UNL     1      44.648   5.264  11.299  0.00  0.00    +0.000 A 
ATOM      8  H   UNL     1      46.351   7.342  14.513  0.00  0.00    +0.000 HD
ENDROOT
BRANCH   1  10
ATOM      9  N   UNL     1      44.747   2.328   9.927  0.00  0.00    +0.000 N 
ATOM     10  C   UNL     1      44.109   2.877  11.002  0.00  0.00    +0.000 C 
ATOM     11  O   UNL     1      43.015   2.461  11.369  0.00  0.00    +0.000 OA
ATOM     12  H   UNL     1      44.300   1.524   9.505  0.00  0.00    +0.000 HD
ATOM     13  H   UNL     1      45.730   2.463   9.749  0.00  0.00    +0.000 HD
ENDBRANCH   1  10
BRANCH   5  14
ATOM     14  C   UNL     1      46.850   8.429  12.816  0.00  0.00    +0.000 C 
BRANCH  14  15
ATOM     15  C   UNL     1      48.199   8.644  12.153  0.00  0.00    +0.000 A 
ATOM     16  C   UNL     1      49.072   7.571  11.968  0.00  0.00    +0.000 A 
ATOM     17  C   UNL     1      50.356   7.811  11.483  0.00  0.00    +0.000 A 
ATOM     18  C   UNL     1      50.743   9.113  11.203  0.00  0.00    +0.000 A 
ATOM     19  C   UNL     1      49.820  10.124  11.403  0.00  0.00    +0.000 A 
ATOM     20  N   UNL     1      48.561   9.923  11.858  0.00  0.00    +0.000 NA
ENDBRANCH  14  15
ENDBRANCH   5  14
TORSDOF 3
ENDMDL
