MODEL 1
REMARK VINA RESULT:    -8.981      0.000      0.000
REMARK INTER + INTRA:         -12.441
REMARK INTER:                 -11.606
REMARK INTRA:                  -0.835
REMARK UNBOUND:                -0.835
REMARK  Name = 
REMARK  5 active torsions:
REMARK  status: ('A' for Active; 'I' for Inactive)
REMARK    1  A    between atoms: C_2  and  C_4
REMARK    2  A    between atoms: C_7  and  N_8
REMARK    3  A    between atoms: N_8  and  C_9
REMARK    4  A    between atoms: C_9  and  C_10
REMARK    5  A    between atoms: C_12  and  C_13
REMARK                            x       y       z     vdW  Elec       q    Type
REMARK                         _______ _______ _______ _____ _____    ______ ____
ROOT
ATOM      1  C   UNL     1      43.574   4.472  11.453  0.00  0.00    +0.000 C 
ENDROOT
BRANCH   1   2
ATOM      2  C   UNL     1      44.824   4.886  12.203  0.00  0.00    +0.000 A 
ATOM      3  C   UNL     1      45.466   6.079  11.863  0.00  0.00    +0.000 A 
ATOM      4  C   UNL     1      46.661   6.451  12.495  0.00  0.00    +0.000 A 
ATOM      5  C   UNL     1      47.169   5.553  13.444  0.00  0.00    +0.000 A 
ATOM      6  C   UNL     1      46.480   4.382  13.718  0.00  0.00    +0.000 A 
ATOM      7  N   UNL     1      45.320   4.031  13.126  0.00  0.00    +0.000 NA
BRANCH   4   8
ATOM      8  C   UNL     1      47.337   7.734  12.189  0.00  0.00    +0.000 A 
ATOM      9  C   UNL     1      48.691   7.773  11.790  0.00  0.00    +0.000 A 
ATOM     10  C   UNL     1      49.331   8.973  11.464  0.00  0.00    +0.000 A 
ATOM     11  C   UNL     1      48.629  10.171  11.522  0.00  0.00    +0.000 A 
ATOM     12  C   UNL     1      47.300  10.155  11.920  0.00  0.00    +0.000 A 
ATOM     13  F   UNL     1      46.617  11.306  11.977  0.00  0.00    +0.000 F 
ATOM     14  C   UNL     1      46.660   8.964  12.259  0.00  0.00    +0.000 A 
ENDBRANCH   4   8
ENDBRANCH   1   2
BRANCH   1  15
ATOM     15  N   UNL     1      43.710   4.717  10.020  0.00  0.00    +0.000 N 
ATOM     16  H   UNL     1      42.835   4.985   9.575  0.00  0.00    +0.000 HD
BRANCH  15  20
ATOM     17  C   UNL     1      46.403   2.415   7.732  0.00  0.00    +0.000 A 
ATOM     18  C   UNL     1      45.513   1.776   8.598  0.00  0.00    +0.000 A 
ATOM     19  C   UNL     1      44.590   2.525   9.330  0.00  0.00    +0.000 A 
ATOM     20  C   UNL     1      44.519   3.919   9.215  0.00  0.00    +0.000 A 
ATOM     21  C   UNL     1      45.433   4.548   8.354  0.00  0.00    +0.000 A 
ATOM     22  C   UNL     1      46.369   3.806   7.619  0.00  0.00    +0.000 A 
BRANCH  17  24
ATOM     23  N   UNL     1      48.499   2.324   6.500  0.00  0.00    +0.000 N 
ATOM     24  C   UNL     1      47.406   1.642   6.960  0.00  0.00    +0.000 C 
ATOM     25  O   UNL     1      47.282   0.437   6.767  0.00  0.00    +0.000 OA
ATOM     26  H   UNL     1      49.222   1.773   6.059  0.00  0.00    +0.000 HD
ATOM     27  H   UNL     1      48.747   3.239   6.846  0.00  0.00    +0.000 HD
ENDBRANCH  17  24
ENDBRANCH  15  20
ENDBRANCH   1  15
TORSDOF 5
ENDMDL
MODEL 2
REMARK VINA RESULT:    -8.972      1.079      1.456
REMARK INTER + INTRA:         -12.430
REMARK INTER:                 -11.611
REMARK INTRA:                  -0.819
REMARK UNBOUND:                -0.835
REMARK  Name = 
REMARK  5 active torsions:
REMARK  status: ('A' for Active; 'I' for Inactive)
REMARK    1  A    between atoms: C_2  and  C_4
REMARK    2  A    between atoms: C_7  and  N_8
REMARK    3  A    between atoms: N_8  and  C_9
REMARK    4  A    between atoms: C_9  and  C_10
REMARK    5  A    between atoms: C_12  and  C_13
REMARK                            x       y       z     vdW  Elec       q    Type
REMARK                         _______ _______ _______ _____ _____    ______ ____
ROOT
ATOM      1  C   UNL     1      43.618   4.560  11.496  0.00  0.00    +0.000 C 
ENDROOT
BRANCH   1   2
ATOM      2  C   UNL     1      44.880   4.920  12.255  0.00  0.00    +0.000 A 
ATOM      3  C   UNL     1      45.608   6.053  11.881  0.00  0.00    +0.000 A 
ATOM      4  C   UNL     1      46.813   6.370  12.522  0.00  0.00    +0.000 A 
ATOM      5  C   UNL     1      47.242   5.480  13.517  0.00  0.00    +0.000 A 
ATOM      6  C   UNL     1      46.470   4.369  13.823  0.00  0.00    +0.000 A 
ATOM      7  N   UNL     1      45.301   4.072  13.221  0.00  0.00    +0.000 NA
BRANCH   4   8
ATOM      8  C   UNL     1      47.579   7.591  12.180  0.00  0.00    +0.000 A 
ATOM      9  C   UNL     1      46.988   8.872  12.253  0.00  0.00    +0.000 A 
ATOM     10  C   UNL     1      47.710  10.035  11.967  0.00  0.00    +0.000 A 
ATOM     11  C   UNL     1      49.049   9.950  11.606  0.00  0.00    +0.000 A 
ATOM     12  C   UNL     1      49.645   8.700  11.519  0.00  0.00    +0.000 A 
ATOM     13  F   UNL     1      50.936   8.610  11.173  0.00  0.00    +0.000 F 
ATOM     14  C   UNL     1      48.928   7.535  11.790  0.00  0.00    +0.000 A 
ENDBRANCH   4   8
ENDBRANCH   1   2
BRANCH   1  15
ATOM     15  N   UNL     1      43.782   4.779  10.061  0.00  0.00    +0.000 N 
ATOM     16  H   UNL     1      42.931   5.101   9.606  0.00  0.00    +0.000 HD
BRANCH  15  20
ATOM     17  C   UNL     1      46.328   2.279   7.812  0.00  0.00    +0.000 A 
ATOM     18  C   UNL     1      45.428   1.712   8.716  0.00  0.00    +0.000 A 
ATOM     19  C   UNL     1      44.552   2.526   9.437  0.00  0.00    +0.000 A 
ATOM     20  C   UNL     1      44.541   3.918   9.272  0.00  0.00    +0.000 A 
ATOM     21  C   UNL     1      45.465   4.474   8.373  0.00  0.00    +0.000 A 
ATOM     22  C   UNL     1      46.354   3.665   7.650  0.00  0.00    +0.000 A 
BRANCH  17  24
ATOM     23  N   UNL     1      48.395   2.051   6.548  0.00  0.00    +0.000 N 
ATOM     24  C   UNL     1      47.282   1.436   7.052  0.00  0.00    +0.000 C 
ATOM     25  O   UNL     1      47.102   0.231   6.906  0.00  0.00    +0.000 OA
ATOM     26  H   UNL     1      49.084   1.453   6.115  0.00  0.00    +0.000 HD
ATOM     27  H   UNL     1      48.688   2.967   6.855  0.00  0.00    +0.000 HD
ENDBRANCH  17  24
ENDBRANCH  15  20
ENDBRANCH   1  15
TORSDOF 5
ENDMDL
MODEL 3
REMARK VINA RESULT:    -8.585      2.789      4.048
REMARK INTER + INTRA:         -11.929
REMARK INTER:                 -11.309
REMARK INTRA:                  -0.620
REMARK UNBOUND:                -0.835
REMARK  Name = 
REMARK  5 active torsions:
REMARK  status: ('A' for Active; 'I' for Inactive)
REMARK    1  A    between atoms: C_2  and  C_4
REMARK    2  A    between atoms: C_7  and  N_8
REMARK    3  A    between atoms: N_8  and  C_9
REMARK    4  A    between atoms: C_9  and  C_10
REMARK    5  A    between atoms: C_12  and  C_13
REMARK                            x       y       z     vdW  Elec       q    Type
REMARK                         _______ _______ _______ _____ _____    ______ ____
ROOT
ATOM      1  C   UNL     1      43.980   4.735  11.558  0.00  0.00    +0.000 C 
ENDROOT
BRANCH   1   2
ATOM      2  C   UNL     1      45.252   5.373  12.082  0.00  0.00    +0.000 A 
ATOM      3  C   UNL     1      45.771   4.959  13.311  0.00  0.00    +0.000 A 
ATOM      4  C   UNL     1      46.908   5.579  13.849  0.00  0.00    +0.000 A 
ATOM      5  C   UNL     1      47.454   6.633  13.104  0.00  0.00    +0.000 A 
ATOM      6  C   UNL     1      46.873   6.993  11.897  0.00  0.00    +0.000 A 
ATOM      7  N   UNL     1      45.791   6.386  11.368  0.00  0.00    +0.000 NA
BRANCH   4   8
ATOM      8  C   UNL     1      47.509   5.128  15.127  0.00  0.00    +0.000 A 
ATOM      9  C   UNL     1      48.532   5.870  15.757  0.00  0.00    +0.000 A 
ATOM     10  C   UNL     1      49.084   5.475  16.980  0.00  0.00    +0.000 A 
ATOM     11  C   UNL     1      48.620   4.327  17.612  0.00  0.00    +0.000 A 
ATOM     12  C   UNL     1      47.622   3.579  17.004  0.00  0.00    +0.000 A 
ATOM     13  F   UNL     1      47.169   2.473  17.607  0.00  0.00    +0.000 F 
ATOM     14  C   UNL     1      47.076   3.961  15.778  0.00  0.00    +0.000 A 
ENDBRANCH   4   8
ENDBRANCH   1   2
BRANCH   1  15
ATOM     15  N   UNL     1      43.910   4.812  10.101  0.00  0.00    +0.000 N 
ATOM     16  H   UNL     1      42.971   4.992   9.754  0.00  0.00    +0.000 HD
BRANCH  15  20
ATOM     17  C   UNL     1      46.390   2.318   7.774  0.00  0.00    +0.000 A 
ATOM     18  C   UNL     1      45.512   1.748   8.698  0.00  0.00    +0.000 A 
ATOM     19  C   UNL     1      44.658   2.561   9.445  0.00  0.00    +0.000 A 
ATOM     20  C   UNL     1      44.646   3.953   9.288  0.00  0.00    +0.000 A 
ATOM     21  C   UNL     1      45.547   4.512   8.368  0.00  0.00    +0.000 A 
ATOM     22  C   UNL     1      46.415   3.705   7.617  0.00  0.00    +0.000 A 
BRANCH  17  24
ATOM     23  N   UNL     1      48.375   2.107   6.382  0.00  0.00    +0.000 N 
ATOM     24  C   UNL     1      47.322   1.476   6.984  0.00  0.00    +0.000 C 
ATOM     25  O   UNL     1      47.178   0.261   6.899  0.00  0.00    +0.000 OA
ATOM     26  H   UNL     1      49.056   1.516   5.927  0.00  0.00    +0.000 HD
ATOM     27  H   UNL     1      48.655   3.044   6.632  0.00  0.00    +0.000 HD
ENDBRANCH  17  24
ENDBRANCH  15  20
ENDBRANCH   1  15
TORSDOF 5
ENDMDL
MODEL 4
REMARK VINA RESULT:    -8.211      3.909      7.006
REMARK INTER + INTRA:         -11.447
REMARK INTER:                 -10.688
REMARK INTRA:                  -0.758
REMARK UNBOUND:                -0.835
REMARK  Name = 
REMARK  5 active torsions:
REMARK  status: ('A' for Active; 'I' for Inactive)
REMARK    1  A    between atoms: C_2  and  C_4
REMARK    2  A    between atoms: C_7  and  N_8
REMARK    3  A    between atoms: N_8  and  C_9
REMARK    4  A    between atoms: C_9  and  C_10
REMARK    5  A    between atoms: C_12  and  C_13
REMARK                            x       y       z     vdW  Elec       q    Type
REMARK                         _______ _______ _______ _____ _____    ______ ____
ROOT
ATOM      1  C   UNL     1      43.714   6.555  11.471  0.00  0.00    +0.000 C 
ENDROOT
BRANCH   1   2
ATOM      2  C   UNL     1      43.866   5.071  11.203  0.00  0.00    +0.000 A 
ATOM      3  C   UNL     1      44.601   4.644  10.093  0.00  0.00    +0.000 A 
ATOM      4  C   UNL     1      44.700   3.280   9.785  0.00  0.00    +0.000 A 
ATOM      5  C   UNL     1      44.005   2.400  10.627  0.00  0.00    +0.000 A 
ATOM      6  C   UNL     1      43.287   2.901  11.702  0.00  0.00    +0.000 A 
ATOM      7  N   UNL     1      43.206   4.211  12.012  0.00  0.00    +0.000 NA
BRANCH   4   8
ATOM      8  C   UNL     1      45.513   2.797   8.644  0.00  0.00    +0.000 A 
ATOM      9  C   UNL     1      45.974   3.683   7.646  0.00  0.00    +0.000 A 
ATOM     10  C   UNL     1      46.771   3.246   6.583  0.00  0.00    +0.000 A 
ATOM     11  C   UNL     1      47.136   1.909   6.493  0.00  0.00    +0.000 A 
ATOM     12  C   UNL     1      46.686   1.021   7.459  0.00  0.00    +0.000 A 
ATOM     13  F   UNL     1      47.035  -0.270   7.381  0.00  0.00    +0.000 F 
ATOM     14  C   UNL     1      45.879   1.447   8.515  0.00  0.00    +0.000 A 
ENDBRANCH   4   8
ENDBRANCH   1   2
BRANCH   1  15
ATOM     15  N   UNL     1      44.455   6.956  12.664  0.00  0.00    +0.000 N 
ATOM     16  H   UNL     1      43.896   7.500  13.318  0.00  0.00    +0.000 HD
BRANCH  15  20
ATOM     17  C   UNL     1      48.504   8.041  12.195  0.00  0.00    +0.000 A 
ATOM     18  C   UNL     1      47.513   9.021  12.108  0.00  0.00    +0.000 A 
ATOM     19  C   UNL     1      46.173   8.681  12.301  0.00  0.00    +0.000 A 
ATOM     20  C   UNL     1      45.784   7.368  12.595  0.00  0.00    +0.000 A 
ATOM     21  C   UNL     1      46.790   6.391  12.661  0.00  0.00    +0.000 A 
ATOM     22  C   UNL     1      48.139   6.721  12.462  0.00  0.00    +0.000 A 
BRANCH  17  24
ATOM     23  N   UNL     1      50.761   7.353  11.604  0.00  0.00    +0.000 N 
ATOM     24  C   UNL     1      49.932   8.375  11.973  0.00  0.00    +0.000 C 
ATOM     25  O   UNL     1      50.350   9.524  12.082  0.00  0.00    +0.000 OA
ATOM     26  H   UNL     1      51.709   7.605  11.362  0.00  0.00    +0.000 HD
ATOM     27  H   UNL     1      50.408   6.467  11.272  0.00  0.00    +0.000 HD
ENDBRANCH  17  24
ENDBRANCH  15  20
ENDBRANCH   1  15
TORSDOF 5
ENDMDL
MODEL 5
REMARK VINA RESULT:    -7.983      1.956      2.584
REMARK INTER + INTRA:         -11.152
REMARK INTER:                 -10.507
REMARK INTRA:                  -0.645
REMARK UNBOUND:                -0.835
REMARK  Name = 
REMARK  5 active torsions:
REMARK  status: ('A' for Active; 'I' for Inactive)
REMARK    1  A    between atoms: C_2  and  C_4
REMARK    2  A    between atoms: C_7  and  N_8
REMARK    3  A    between atoms: N_8  and  C_9
REMARK    4  A    between atoms: C_9  and  C_10
REMARK    5  A    between atoms: C_12  and  C_13
REMARK                            x       y       z     vdW  Elec       q    Type
REMARK                         _______ _______ _______ _____ _____    ______ ____
ROOT
ATOM      1  C   UNL     1      44.133   3.759  11.794  0.00  0.00    +0.000 C 
ENDROOT
BRANCH   1   2
ATOM      2  C   UNL     1      44.614   5.196  11.773  0.00  0.00    +0.000 A 
ATOM      3  C   UNL     1      45.912   5.492  12.199  0.00  0.00    +0.000 A 
ATOM      4  C   UNL     1      46.358   6.820  12.253  0.00  0.00    +0.000 A 
ATOM      5  C   UNL     1      45.429   7.805  11.889  0.00  0.00    +0.000 A 
ATOM      6  C   UNL     1      44.155   7.432  11.489  0.00  0.00    +0.000 A 
ATOM      7  N   UNL     1      43.729   6.154  11.418  0.00  0.00    +0.000 NA
BRANCH   4   8
ATOM      8  C   UNL     1      47.745   7.160  12.653  0.00  0.00    +0.000 A 
ATOM      9  C   UNL     1      48.650   7.740  11.737  0.00  0.00    +0.000 A 
ATOM     10  C   UNL     1      49.950   8.098  12.111  0.00  0.00    +0.000 A 
ATOM     11  C   UNL     1      50.378   7.891  13.417  0.00  0.00    +0.000 A 
ATOM     12  C   UNL     1      49.506   7.313  14.329  0.00  0.00    +0.000 A 
ATOM     13  F   UNL     1      49.911   7.112  15.589  0.00  0.00    +0.000 F 
ATOM     14  C   UNL     1      48.213   6.942  13.960  0.00  0.00    +0.000 A 
ENDBRANCH   4   8
ENDBRANCH   1   2
BRANCH   1  15
ATOM     15  N   UNL     1      43.819   3.286  10.448  0.00  0.00    +0.000 N 
ATOM     16  H   UNL     1      43.115   2.550  10.437  0.00  0.00    +0.000 HD
BRANCH  15  20
ATOM     17  C   UNL     1      46.611   2.633   7.355  0.00  0.00    +0.000 A 
ATOM     18  C   UNL     1      46.178   3.932   7.631  0.00  0.00    +0.000 A 
ATOM     19  C   UNL     1      45.285   4.165   8.678  0.00  0.00    +0.000 A 
ATOM     20  C   UNL     1      44.808   3.122   9.482  0.00  0.00    +0.000 A 
ATOM     21  C   UNL     1      45.238   1.819   9.181  0.00  0.00    +0.000 A 
ATOM     22  C   UNL     1      46.130   1.573   8.127  0.00  0.00    +0.000 A 
BRANCH  17  24
ATOM     23  N   UNL     1      47.356   3.069   5.081  0.00  0.00    +0.000 N 
ATOM     24  C   UNL     1      47.543   2.359   6.235  0.00  0.00    +0.000 C 
ATOM     25  O   UNL     1      48.463   1.555   6.344  0.00  0.00    +0.000 OA
ATOM     26  H   UNL     1      48.051   2.946   4.358  0.00  0.00    +0.000 HD
ATOM     27  H   UNL     1      46.778   3.895   5.045  0.00  0.00    +0.000 HD
ENDBRANCH  17  24
ENDBRANCH  15  20
ENDBRANCH   1  15
TORSDOF 5
ENDMDL
MODEL 6
REMARK VINA RESULT:    -7.807      4.175      7.691
REMARK INTER + INTRA:         -10.924
REMARK INTER:                 -10.379
REMARK INTRA:                  -0.545
REMARK UNBOUND:                -0.835
REMARK  Name = 
REMARK  5 active torsions:
REMARK  status: ('A' for Active; 'I' for Inactive)
REMARK    1  A    between atoms: C_2  and  C_4
REMARK    2  A    between atoms: C_7  and  N_8
REMARK    3  A    between atoms: N_8  and  C_9
REMARK    4  A    between atoms: C_9  and  C_10
REMARK    5  A    between atoms: C_12  and  C_13
REMARK                            x       y       z     vdW  Elec       q    Type
REMARK                         _______ _______ _______ _____ _____    ______ ____
ROOT
ATOM      1  C   UNL     1      46.033   7.028  11.749  0.00  0.00    +0.000 C 
ENDROOT
BRANCH   1   2
ATOM      2  C   UNL     1      45.251   5.903  11.100  0.00  0.00    +0.000 A 
ATOM      3  C   UNL     1      45.857   5.129  10.107  0.00  0.00    +0.000 A 
ATOM      4  C   UNL     1      45.134   4.127   9.444  0.00  0.00    +0.000 A 
ATOM      5  C   UNL     1      43.790   3.980   9.815  0.00  0.00    +0.000 A 
ATOM      6  C   UNL     1      43.257   4.796  10.802  0.00  0.00    +0.000 A 
ATOM      7  N   UNL     1      43.955   5.747  11.455  0.00  0.00    +0.000 NA
BRANCH   4   8
ATOM      8  C   UNL     1      45.765   3.258   8.422  0.00  0.00    +0.000 A 
ATOM      9  C   UNL     1      46.309   3.798   7.236  0.00  0.00    +0.000 A 
ATOM     10  C   UNL     1      46.939   2.994   6.281  0.00  0.00    +0.000 A 
ATOM     11  C   UNL     1      47.048   1.625   6.489  0.00  0.00    +0.000 A 
ATOM     12  C   UNL     1      46.511   1.074   7.644  0.00  0.00    +0.000 A 
ATOM     13  F   UNL     1      46.614  -0.245   7.853  0.00  0.00    +0.000 F 
ATOM     14  C   UNL     1      45.870   1.868   8.595  0.00  0.00    +0.000 A 
ENDBRANCH   4   8
ENDBRANCH   1   2
BRANCH   1  15
ATOM     15  N   UNL     1      47.320   6.556  12.254  0.00  0.00    +0.000 N 
ATOM     16  H   UNL     1      47.830   5.989  11.580  0.00  0.00    +0.000 HD
BRANCH  15  20
ATOM     17  C   UNL     1      47.935   5.009  16.129  0.00  0.00    +0.000 A 
ATOM     18  C   UNL     1      48.577   6.188  15.748  0.00  0.00    +0.000 A 
ATOM     19  C   UNL     1      48.350   6.732  14.482  0.00  0.00    +0.000 A 
ATOM     20  C   UNL     1      47.476   6.127  13.569  0.00  0.00    +0.000 A 
ATOM     21  C   UNL     1      46.852   4.931  13.961  0.00  0.00    +0.000 A 
ATOM     22  C   UNL     1      47.079   4.373  15.228  0.00  0.00    +0.000 A 
BRANCH  17  24
ATOM     23  N   UNL     1      47.163   4.480  18.375  0.00  0.00    +0.000 N 
ATOM     24  C   UNL     1      48.177   4.402  17.460  0.00  0.00    +0.000 C 
ATOM     25  O   UNL     1      49.227   3.824  17.724  0.00  0.00    +0.000 OA
ATOM     26  H   UNL     1      47.300   3.982  19.244  0.00  0.00    +0.000 HD
ATOM     27  H   UNL     1      46.220   4.723  18.113  0.00  0.00    +0.000 HD
ENDBRANCH  17  24
ENDBRANCH  15  20
ENDBRANCH   1  15
TORSDOF 5
ENDMDL
MODEL 7
REMARK VINA RESULT:    -7.533      3.998      7.333
REMARK INTER + INTRA:         -10.569
REMARK INTER:                 -10.124
REMARK INTRA:                  -0.445
REMARK UNBOUND:                -0.835
REMARK  Name = 
REMARK  5 active torsions:
REMARK  status: ('A' for Active; 'I' for Inactive)
REMARK    1  A    between atoms: C_2  and  C_4
REMARK    2  A    between atoms: C_7  and  N_8
REMARK    3  A    between atoms: N_8  and  C_9
REMARK    4  A    between atoms: C_9  and  C_10
REMARK    5  A    between atoms: C_12  and  C_13
REMARK                            x       y       z     vdW  Elec       q    Type
REMARK                         _______ _______ _______ _____ _____    ______ ____
ROOT
ATOM      1  C   UNL     1      44.163   6.631  11.511  0.00  0.00    +0.000 C 
ENDROOT
BRANCH   1   2
ATOM      2  C   UNL     1      44.136   5.151  11.185  0.00  0.00    +0.000 A 
ATOM      3  C   UNL     1      44.853   4.677  10.084  0.00  0.00    +0.000 A 
ATOM      4  C   UNL     1      44.790   3.324   9.721  0.00  0.00    +0.000 A 
ATOM      5  C   UNL     1      43.958   2.508  10.501  0.00  0.00    +0.000 A 
ATOM      6  C   UNL     1      43.268   3.056  11.572  0.00  0.00    +0.000 A 
ATOM      7  N   UNL     1      43.342   4.353  11.934  0.00  0.00    +0.000 NA
BRANCH   4   8
ATOM      8  C   UNL     1      45.579   2.784   8.588  0.00  0.00    +0.000 A 
ATOM      9  C   UNL     1      46.051   3.626   7.557  0.00  0.00    +0.000 A 
ATOM     10  C   UNL     1      46.826   3.136   6.501  0.00  0.00    +0.000 A 
ATOM     11  C   UNL     1      47.158   1.787   6.451  0.00  0.00    +0.000 A 
ATOM     12  C   UNL     1      46.695   0.942   7.450  0.00  0.00    +0.000 A 
ATOM     13  F   UNL     1      47.012  -0.358   7.410  0.00  0.00    +0.000 F 
ATOM     14  C   UNL     1      45.911   1.422   8.499  0.00  0.00    +0.000 A 
ENDBRANCH   4   8
ENDBRANCH   1   2
BRANCH   1  15
ATOM     15  N   UNL     1      45.505   7.184  11.352  0.00  0.00    +0.000 N 
ATOM     16  H   UNL     1      45.852   7.123  10.398  0.00  0.00    +0.000 HD
BRANCH  15  20
ATOM     17  C   UNL     1      48.378   6.839  14.421  0.00  0.00    +0.000 A 
ATOM     18  C   UNL     1      47.449   5.814  14.228  0.00  0.00    +0.000 A 
ATOM     19  C   UNL     1      46.519   5.899  13.190  0.00  0.00    +0.000 A 
ATOM     20  C   UNL     1      46.493   6.992  12.315  0.00  0.00    +0.000 A 
ATOM     21  C   UNL     1      47.422   8.023  12.533  0.00  0.00    +0.000 A 
ATOM     22  C   UNL     1      48.356   7.951  13.577  0.00  0.00    +0.000 A 
BRANCH  17  24
ATOM     23  N   UNL     1      48.869   6.582  16.790  0.00  0.00    +0.000 N 
ATOM     24  C   UNL     1      49.361   6.780  15.530  0.00  0.00    +0.000 C 
ATOM     25  O   UNL     1      50.568   6.873  15.327  0.00  0.00    +0.000 OA
ATOM     26  H   UNL     1      49.550   6.448  17.524  0.00  0.00    +0.000 HD
ATOM     27  H   UNL     1      47.926   6.261  16.955  0.00  0.00    +0.000 HD
ENDBRANCH  17  24
ENDBRANCH  15  20
ENDBRANCH   1  15
TORSDOF 5
ENDMDL
MODEL 8
REMARK VINA RESULT:    -7.312      3.848      7.107
REMARK INTER + INTRA:         -10.285
REMARK INTER:                  -9.547
REMARK INTRA:                  -0.738
REMARK UNBOUND:                -0.835
REMARK  Name = 
REMARK  5 active torsions:
REMARK  status: ('A' for Active; 'I' for Inactive)
REMARK    1  A    between atoms: C_2  and  C_4
REMARK    2  A    between atoms: C_7  and  N_8
REMARK    3  A    between atoms: N_8  and  C_9
REMARK    4  A    between atoms: C_9  and  C_10
REMARK    5  A    between atoms: C_12  and  C_13
REMARK                            x       y       z     vdW  Elec       q    Type
REMARK                         _______ _______ _______ _____ _____    ______ ____
ROOT
ATOM      1  C   UNL     1      45.724   4.943  13.549  0.00  0.00    +0.000 C 
ENDROOT
BRANCH   1   2
ATOM      2  C   UNL     1      44.971   4.694  12.257  0.00  0.00    +0.000 A 
ATOM      3  C   UNL     1      45.630   4.088  11.184  0.00  0.00    +0.000 A 
ATOM      4  C   UNL     1      44.977   3.907   9.956  0.00  0.00    +0.000 A 
ATOM      5  C   UNL     1      43.663   4.390   9.873  0.00  0.00    +0.000 A 
ATOM      6  C   UNL     1      43.081   4.991  10.979  0.00  0.00    +0.000 A 
ATOM      7  N   UNL     1      43.701   5.149  12.167  0.00  0.00    +0.000 NA
BRANCH   4   8
ATOM      8  C   UNL     1      45.635   3.224   8.818  0.00  0.00    +0.000 A 
ATOM      9  C   UNL     1      46.156   3.954   7.727  0.00  0.00    +0.000 A 
ATOM     10  C   UNL     1      46.811   3.324   6.663  0.00  0.00    +0.000 A 
ATOM     11  C   UNL     1      46.968   1.943   6.665  0.00  0.00    +0.000 A 
ATOM     12  C   UNL     1      46.454   1.208   7.723  0.00  0.00    +0.000 A 
ATOM     13  F   UNL     1      46.604  -0.123   7.732  0.00  0.00    +0.000 F 
ATOM     14  C   UNL     1      45.789   1.827   8.780  0.00  0.00    +0.000 A 
ENDBRANCH   4   8
ENDBRANCH   1   2
BRANCH   1  15
ATOM     15  N   UNL     1      46.151   6.337  13.652  0.00  0.00    +0.000 N 
ATOM     16  H   UNL     1      45.420   6.998  13.402  0.00  0.00    +0.000 HD
BRANCH  15  20
ATOM     17  C   UNL     1      49.891   7.844  12.417  0.00  0.00    +0.000 A 
ATOM     18  C   UNL     1      49.727   7.398  13.730  0.00  0.00    +0.000 A 
ATOM     19  C   UNL     1      48.506   6.860  14.139  0.00  0.00    +0.000 A 
ATOM     20  C   UNL     1      47.424   6.742  13.258  0.00  0.00    +0.000 A 
ATOM     21  C   UNL     1      47.599   7.211  11.946  0.00  0.00    +0.000 A 
ATOM     22  C   UNL     1      48.820   7.760  11.526  0.00  0.00    +0.000 A 
BRANCH  17  24
ATOM     23  N   UNL     1      52.064   8.810  12.935  0.00  0.00    +0.000 N 
ATOM     24  C   UNL     1      51.173   8.438  11.966  0.00  0.00    +0.000 C 
ATOM     25  O   UNL     1      51.442   8.564  10.775  0.00  0.00    +0.000 OA
ATOM     26  H   UNL     1      52.970   9.124  12.618  0.00  0.00    +0.000 HD
ATOM     27  H   UNL     1      51.978   8.499  13.891  0.00  0.00    +0.000 HD
ENDBRANCH  17  24
ENDBRANCH  15  20
ENDBRANCH   1  15
TORSDOF 5
ENDMDL
MODEL 9
REMARK VINA RESULT:    -7.294      3.676      7.226
REMARK INTER + INTRA:         -10.262
REMARK INTER:                  -9.629
REMARK INTRA:                  -0.633
REMARK UNBOUND:                -0.835
REMARK  Name = 
REMARK  5 active torsions:
REMARK  status: ('A' for Active; 'I' for Inactive)
REMARK    1  A    between atoms: C_2  and  C_4
REMARK    2  A    between atoms: C_7  and  N_8
REMARK    3  A    between atoms: N_8  and  C_9
REMARK    4  A    between atoms: C_9  and  C_10
REMARK    5  A    between atoms: C_12  and  C_13
REMARK                            x       y       z     vdW  Elec       q    Type
REMARK                         _______ _______ _______ _____ _____    ______ ____
ROOT
ATOM      1  C   UNL     1      44.988   6.843  11.438  0.00  0.00    +0.000 C 
ENDROOT
BRANCH   1   2
ATOM      2  C   UNL     1      44.683   5.413  11.035  0.00  0.00    +0.000 A 
ATOM      3  C   UNL     1      45.354   4.847   9.948  0.00  0.00    +0.000 A 
ATOM      4  C   UNL     1      45.041   3.552   9.514  0.00  0.00    +0.000 A 
ATOM      5  C   UNL     1      44.017   2.893  10.207  0.00  0.00    +0.000 A 
ATOM      6  C   UNL     1      43.389   3.526  11.269  0.00  0.00    +0.000 A 
ATOM      7  N   UNL     1      43.700   4.765  11.701  0.00  0.00    +0.000 NA
BRANCH   4   8
ATOM      8  C   UNL     1      45.771   2.908   8.395  0.00  0.00    +0.000 A 
ATOM      9  C   UNL     1      46.168   1.554   8.462  0.00  0.00    +0.000 A 
ATOM     10  C   UNL     1      46.825   0.925   7.400  0.00  0.00    +0.000 A 
ATOM     11  C   UNL     1      47.099   1.633   6.236  0.00  0.00    +0.000 A 
ATOM     12  C   UNL     1      46.726   2.967   6.155  0.00  0.00    +0.000 A 
ATOM     13  F   UNL     1      46.984   3.655   5.035  0.00  0.00    +0.000 F 
ATOM     14  C   UNL     1      46.081   3.604   7.215  0.00  0.00    +0.000 A 
ENDBRANCH   4   8
ENDBRANCH   1   2
BRANCH   1  15
ATOM     15  N   UNL     1      45.722   6.892  12.700  0.00  0.00    +0.000 N 
ATOM     16  H   UNL     1      45.152   7.209  13.481  0.00  0.00    +0.000 HD
BRANCH  15  20
ATOM     17  C   UNL     1      49.805   7.936  12.853  0.00  0.00    +0.000 A 
ATOM     18  C   UNL     1      49.022   8.372  11.783  0.00  0.00    +0.000 A 
ATOM     19  C   UNL     1      47.660   8.067  11.741  0.00  0.00    +0.000 A 
ATOM     20  C   UNL     1      47.041   7.333  12.761  0.00  0.00    +0.000 A 
ATOM     21  C   UNL     1      47.846   6.886  13.822  0.00  0.00    +0.000 A 
ATOM     22  C   UNL     1      49.216   7.182  13.869  0.00  0.00    +0.000 A 
BRANCH  17  24
ATOM     23  N   UNL     1      51.897   8.000  14.095  0.00  0.00    +0.000 N 
ATOM     24  C   UNL     1      51.258   8.230  12.908  0.00  0.00    +0.000 C 
ATOM     25  O   UNL     1      51.872   8.631  11.924  0.00  0.00    +0.000 OA
ATOM     26  H   UNL     1      52.900   8.112  14.096  0.00  0.00    +0.000 HD
ATOM     27  H   UNL     1      51.481   7.450  14.831  0.00  0.00    +0.000 HD
ENDBRANCH  17  24
ENDBRANCH  15  20
ENDBRANCH   1  15
TORSDOF 5
ENDMDL
