MODEL 1
REMARK VINA RESULT:    -8.161      0.000      0.000
REMARK INTER + INTRA:         -10.583
REMARK INTER:                 -10.308
REMARK INTRA:                  -0.275
REMARK UNBOUND:                -0.275
REMARK  Name = 
REMARK  5 active torsions:
REMARK  status: ('A' for Active; 'I' for Inactive)
REMARK    1  A    between atoms: N_1  and  C_2
REMARK    2  A    between atoms: C_2  and  C_3
REMARK    3  A    between atoms: C_6  and  C_7
REMARK    4  A    between atoms: C_7  and  N_8
REMARK    5  A    between atoms: C_13  and  C_14
REMARK                            x       y       z     vdW  Elec       q    Type
REMARK                         _______ _______ _______ _____ _____    ______ ____
ROOT
ATOM      1  N   UNL     1      44.061   3.698  11.189  0.00  0.00    +0.000 N 
ATOM      2  C   UNL     1      43.411   4.885  10.924  0.00  0.00    +0.000 A 
ATOM      3  C   UNL     1      43.552   5.694  12.029  0.00  0.00    +0.000 A 
ATOM      4  C   UNL     1      44.691   5.203  12.709  0.00  0.00    +0.000 A 
ATOM      5  C   UNL     1      45.610   5.762  13.616  0.00  0.00    +0.000 A 
ATOM      6  C   UNL     1      46.713   4.988  13.992  0.00  0.00    +0.000 A 
ATOM      7  C   UNL     1      46.762   3.670  13.542  0.00  0.00    +0.000 A 
ATOM      8  N   UNL     1      45.897   3.071  12.667  0.00  0.00    +0.000 NA
ATOM      9  C   UNL     1      44.930   3.911  12.239  0.00  0.00    +0.000 A 
ENDROOT
BRANCH   6  10
ATOM     10  C   UNL     1      47.801   5.656  14.755  0.00  0.00    +0.000 C 
ATOM     11  N   UNL     1      47.850   5.507  16.121  0.00  0.00    +0.000 N 
ATOM     12  O   UNL     1      48.671   6.305  14.198  0.00  0.00    +0.000 OA
ATOM     13  H   UNL     1      47.197   4.975  16.678  0.00  0.00    +0.000 HD
ATOM     14  H   UNL     1      48.630   5.917  16.595  0.00  0.00    +0.000 HD
ENDBRANCH   6  10
BRANCH   1  15
ATOM     15  C   UNL     1      44.086   2.560  10.276  0.00  0.00    +0.000 C 
BRANCH  15  19
ATOM     16  C   UNL     1      46.648   2.599   6.838  0.00  0.00    +0.000 A 
ATOM     17  C   UNL     1      46.083   3.795   7.282  0.00  0.00    +0.000 A 
ATOM     18  C   UNL     1      45.320   3.829   8.457  0.00  0.00    +0.000 A 
ATOM     19  C   UNL     1      45.114   2.646   9.169  0.00  0.00    +0.000 A 
ATOM     20  N   UNL     1      45.683   1.483   8.770  0.00  0.00    +0.000 NA
ATOM     21  C   UNL     1      46.426   1.481   7.634  0.00  0.00    +0.000 A 
BRANCH  16  22
ATOM     22  C   UNL     1      47.328   2.456   5.500  0.00  0.00    +0.000 C 
BRANCH  22  23
ATOM     23  N   UNL     1      48.603   1.745   5.558  0.00  0.00    +0.000 NA
ATOM     24  H   UNL     1      48.982   1.668   4.615  0.00  0.00    +0.000 HD
ATOM     25  H   UNL     1      48.434   0.792   5.872  0.00  0.00    +0.000 HD
ENDBRANCH  22  23
ENDBRANCH  16  22
ENDBRANCH  15  19
ENDBRANCH   1  15
TORSDOF 5
ENDMDL
MODEL 2
REMARK VINA RESULT:    -7.960      2.662      6.830
REMARK INTER + INTRA:         -10.329
REMARK INTER:                  -9.928
REMARK INTRA:                  -0.400
REMARK UNBOUND:                -0.275
REMARK  Name = 
REMARK  5 active torsions:
REMARK  status: ('A' for Active; 'I' for Inactive)
REMARK    1  A    between atoms: N_1  and  C_2
REMARK    2  A    between atoms: C_2  and  C_3
REMARK    3  A    between atoms: C_6  and  C_7
REMARK    4  A    between atoms: C_7  and  N_8
REMARK    5  A    between atoms: C_13  and  C_14
REMARK                            x       y       z     vdW  Elec       q    Type
REMARK                         _______ _______ _______ _____ _____    ______ ____
ROOT
ATOM      1  N   UNL     1      44.590   4.431  10.402  0.00  0.00    +0.000 N 
ATOM      2  C   UNL     1      44.156   3.251  10.971  0.00  0.00    +0.000 A 
ATOM      3  C   UNL     1      44.150   2.289   9.985  0.00  0.00    +0.000 A 
ATOM      4  C   UNL     1      45.051   2.758   9.000  0.00  0.00    +0.000 A 
ATOM      5  C   UNL     1      45.811   2.139   7.992  0.00  0.00    +0.000 A 
ATOM      6  C   UNL     1      46.710   2.931   7.269  0.00  0.00    +0.000 A 
ATOM      7  C   UNL     1      46.699   4.303   7.509  0.00  0.00    +0.000 A 
ATOM      8  N   UNL     1      45.978   4.962   8.468  0.00  0.00    +0.000 NA
ATOM      9  C   UNL     1      45.232   4.124   9.219  0.00  0.00    +0.000 A 
ENDROOT
BRANCH   6  10
ATOM     10  C   UNL     1      47.678   2.242   6.375  0.00  0.00    +0.000 C 
ATOM     11  N   UNL     1      47.980   2.800   5.155  0.00  0.00    +0.000 N 
ATOM     12  O   UNL     1      48.238   1.211   6.709  0.00  0.00    +0.000 OA
ATOM     13  H   UNL     1      47.594   3.659   4.791  0.00  0.00    +0.000 HD
ATOM     14  H   UNL     1      48.682   2.344   4.608  0.00  0.00    +0.000 HD
ENDBRANCH   6  10
BRANCH   1  15
ATOM     15  C   UNL     1      44.677   5.698  11.118  0.00  0.00    +0.000 C 
BRANCH  15  19
ATOM     16  C   UNL     1      47.927   6.567  13.777  0.00  0.00    +0.000 A 
ATOM     17  C   UNL     1      47.089   5.487  14.053  0.00  0.00    +0.000 A 
ATOM     18  C   UNL     1      46.078   5.120  13.153  0.00  0.00    +0.000 A 
ATOM     19  C   UNL     1      45.906   5.864  11.985  0.00  0.00    +0.000 A 
ATOM     20  N   UNL     1      46.732   6.896  11.686  0.00  0.00    +0.000 NA
ATOM     21  C   UNL     1      47.709   7.222  12.570  0.00  0.00    +0.000 A 
BRANCH  16  22
ATOM     22  C   UNL     1      48.912   7.122  14.774  0.00  0.00    +0.000 C 
BRANCH  22  23
ATOM     23  N   UNL     1      50.289   7.154  14.289  0.00  0.00    +0.000 NA
ATOM     24  H   UNL     1      50.606   6.199  14.124  0.00  0.00    +0.000 HD
ATOM     25  H   UNL     1      50.888   7.526  15.023  0.00  0.00    +0.000 HD
ENDBRANCH  22  23
ENDBRANCH  16  22
ENDBRANCH  15  19
ENDBRANCH   1  15
TORSDOF 5
ENDMDL
MODEL 3
REMARK VINA RESULT:    -7.897      1.827      2.161
REMARK INTER + INTRA:         -10.249
REMARK INTER:                  -9.827
REMARK INTRA:                  -0.423
REMARK UNBOUND:                -0.275
REMARK  Name = 
REMARK  5 active torsions:
REMARK  status: ('A' for Active; 'I' for Inactive)
REMARK    1  A    between atoms: N_1  and  C_2
REMARK    2  A    between atoms: C_2  and  C_3
REMARK    3  A    between atoms: C_6  and  C_7
REMARK    4  A    between atoms: C_7  and  N_8
REMARK    5  A    between atoms: C_13  and  C_14
REMARK                            x       y       z     vdW  Elec       q    Type
REMARK                         _______ _______ _______ _____ _____    ______ ____
ROOT
ATOM      1  N   UNL     1      44.269   4.518  11.014  0.00  0.00    +0.000 N 
ATOM      2  C   UNL     1      43.465   4.215  12.093  0.00  0.00    +0.000 A 
ATOM      3  C   UNL     1      44.216   4.383  13.234  0.00  0.00    +0.000 A 
ATOM      4  C   UNL     1      45.263   5.261  12.867  0.00  0.00    +0.000 A 
ATOM      5  C   UNL     1      46.096   6.145  13.576  0.00  0.00    +0.000 A 
ATOM      6  C   UNL     1      46.957   6.966  12.840  0.00  0.00    +0.000 A 
ATOM      7  C   UNL     1      47.023   6.764  11.463  0.00  0.00    +0.000 A 
ATOM      8  N   UNL     1      46.245   5.917  10.721  0.00  0.00    +0.000 NA
ATOM      9  C   UNL     1      45.344   5.251  11.474  0.00  0.00    +0.000 A 
ENDROOT
BRANCH   6  10
ATOM     10  C   UNL     1      47.660   8.059  13.563  0.00  0.00    +0.000 C 
ATOM     11  N   UNL     1      46.949   8.856  14.429  0.00  0.00    +0.000 N 
ATOM     12  O   UNL     1      48.859   8.245  13.435  0.00  0.00    +0.000 OA
ATOM     13  H   UNL     1      45.963   8.774  14.627  0.00  0.00    +0.000 HD
ATOM     14  H   UNL     1      47.466   9.539  14.946  0.00  0.00    +0.000 HD
ENDBRANCH   6  10
BRANCH   1  15
ATOM     15  C   UNL     1      43.845   4.404   9.623  0.00  0.00    +0.000 C 
BRANCH  15  19
ATOM     16  C   UNL     1      46.818   2.272   7.387  0.00  0.00    +0.000 A 
ATOM     17  C   UNL     1      46.012   1.577   8.288  0.00  0.00    +0.000 A 
ATOM     18  C   UNL     1      44.970   2.228   8.962  0.00  0.00    +0.000 A 
ATOM     19  C   UNL     1      44.760   3.589   8.735  0.00  0.00    +0.000 A 
ATOM     20  N   UNL     1      45.512   4.272   7.839  0.00  0.00    +0.000 NA
ATOM     21  C   UNL     1      46.507   3.613   7.192  0.00  0.00    +0.000 A 
BRANCH  16  22
ATOM     22  C   UNL     1      48.058   1.683   6.764  0.00  0.00    +0.000 C 
BRANCH  22  23
ATOM     23  N   UNL     1      48.383   2.238   5.453  0.00  0.00    +0.000 NA
ATOM     24  H   UNL     1      49.260   1.831   5.128  0.00  0.00    +0.000 HD
ATOM     25  H   UNL     1      48.556   3.236   5.552  0.00  0.00    +0.000 HD
ENDBRANCH  22  23
ENDBRANCH  16  22
ENDBRANCH  15  19
ENDBRANCH   1  15
TORSDOF 5
ENDMDL
MODEL 4
REMARK VINA RESULT:    -6.891      3.458      7.619
REMARK INTER + INTRA:          -8.978
REMARK INTER:                  -8.546
REMARK INTRA:                  -0.432
REMARK UNBOUND:                -0.275
REMARK  Name = 
REMARK  5 active torsions:
REMARK  status: ('A' for Active; 'I' for Inactive)
REMARK    1  A    between atoms: N_1  and  C_2
REMARK    2  A    between atoms: C_2  and  C_3
REMARK    3  A    between atoms: C_6  and  C_7
REMARK    4  A    between atoms: C_7  and  N_8
REMARK    5  A    between atoms: C_13  and  C_14
REMARK                            x       y       z     vdW  Elec       q    Type
REMARK                         _______ _______ _______ _____ _____    ______ ____
ROOT
ATOM      1  N   UNL     1      47.410   5.214  14.834  0.00  0.00    +0.000 N 
ATOM      2  C   UNL     1      48.119   6.342  14.476  0.00  0.00    +0.000 A 
ATOM      3  C   UNL     1      48.122   6.415  13.101  0.00  0.00    +0.000 A 
ATOM      4  C   UNL     1      47.008   5.649  12.683  0.00  0.00    +0.000 A 
ATOM      5  C   UNL     1      46.204   5.634  11.529  0.00  0.00    +0.000 A 
ATOM      6  C   UNL     1      45.082   4.799  11.522  0.00  0.00    +0.000 A 
ATOM      7  C   UNL     1      44.906   3.944  12.608  0.00  0.00    +0.000 A 
ATOM      8  N   UNL     1      45.656   3.908  13.753  0.00  0.00    +0.000 NA
ATOM      9  C   UNL     1      46.643   4.830  13.753  0.00  0.00    +0.000 A 
ENDROOT
BRANCH   6  10
ATOM     10  C   UNL     1      44.107   4.956  10.411  0.00  0.00    +0.000 C 
ATOM     11  N   UNL     1      44.481   4.602   9.135  0.00  0.00    +0.000 N 
ATOM     12  O   UNL     1      42.973   5.359  10.604  0.00  0.00    +0.000 OA
ATOM     13  H   UNL     1      45.384   4.236   8.868  0.00  0.00    +0.000 HD
ATOM     14  H   UNL     1      43.781   4.660   8.424  0.00  0.00    +0.000 HD
ENDBRANCH   6  10
BRANCH   1  15
ATOM     15  C   UNL     1      47.234   4.763  16.209  0.00  0.00    +0.000 C 
BRANCH  15  19
ATOM     16  C   UNL     1      50.613   2.357  17.294  0.00  0.00    +0.000 A 
ATOM     17  C   UNL     1      50.529   3.667  17.764  0.00  0.00    +0.000 A 
ATOM     18  C   UNL     1      49.393   4.446  17.505  0.00  0.00    +0.000 A 
ATOM     19  C   UNL     1      48.351   3.900  16.753  0.00  0.00    +0.000 A 
ATOM     20  N   UNL     1      48.402   2.618  16.318  0.00  0.00    +0.000 NA
ATOM     21  C   UNL     1      49.510   1.883  16.592  0.00  0.00    +0.000 A 
BRANCH  16  22
ATOM     22  C   UNL     1      51.869   1.527  17.383  0.00  0.00    +0.000 C 
BRANCH  22  23
ATOM     23  N   UNL     1      51.702   0.278  18.121  0.00  0.00    +0.000 NA
ATOM     24  H   UNL     1      51.012  -0.300  17.642  0.00  0.00    +0.000 HD
ATOM     25  H   UNL     1      51.308   0.486  19.036  0.00  0.00    +0.000 HD
ENDBRANCH  22  23
ENDBRANCH  16  22
ENDBRANCH  15  19
ENDBRANCH   1  15
TORSDOF 5
ENDMDL
MODEL 5
REMARK VINA RESULT:    -6.266      4.630      8.375
REMARK INTER + INTRA:          -8.189
REMARK INTER:                  -7.791
REMARK INTRA:                  -0.398
REMARK UNBOUND:                -0.275
REMARK  Name = 
REMARK  5 active torsions:
REMARK  status: ('A' for Active; 'I' for Inactive)
REMARK    1  A    between atoms: N_1  and  C_2
REMARK    2  A    between atoms: C_2  and  C_3
REMARK    3  A    between atoms: C_6  and  C_7
REMARK    4  A    between atoms: C_7  and  N_8
REMARK    5  A    between atoms: C_13  and  C_14
REMARK                            x       y       z     vdW  Elec       q    Type
REMARK                         _______ _______ _______ _____ _____    ______ ____
ROOT
ATOM      1  N   UNL     1      48.417   7.297  14.142  0.00  0.00    +0.000 N 
ATOM      2  C   UNL     1      47.938   8.576  13.950  0.00  0.00    +0.000 A 
ATOM      3  C   UNL     1      46.901   8.503  13.047  0.00  0.00    +0.000 A 
ATOM      4  C   UNL     1      46.444   7.165  13.111  0.00  0.00    +0.000 A 
ATOM      5  C   UNL     1      45.228   6.528  12.804  0.00  0.00    +0.000 A 
ATOM      6  C   UNL     1      45.101   5.171  13.121  0.00  0.00    +0.000 A 
ATOM      7  C   UNL     1      46.230   4.511  13.602  0.00  0.00    +0.000 A 
ATOM      8  N   UNL     1      47.438   5.075  13.912  0.00  0.00    +0.000 NA
ATOM      9  C   UNL     1      47.453   6.409  13.709  0.00  0.00    +0.000 A 
ENDROOT
BRANCH   6  10
ATOM     10  C   UNL     1      43.750   4.559  13.020  0.00  0.00    +0.000 C 
ATOM     11  N   UNL     1      42.643   5.376  12.994  0.00  0.00    +0.000 N 
ATOM     12  O   UNL     1      43.597   3.353  12.924  0.00  0.00    +0.000 OA
ATOM     13  H   UNL     1      42.656   6.384  13.043  0.00  0.00    +0.000 HD
ATOM     14  H   UNL     1      41.756   4.934  12.861  0.00  0.00    +0.000 HD
ENDBRANCH   6  10
BRANCH   1  15
ATOM     15  C   UNL     1      49.558   6.972  14.991  0.00  0.00    +0.000 C 
BRANCH  15  19
ATOM     16  C   UNL     1      49.060   5.458  18.971  0.00  0.00    +0.000 A 
ATOM     17  C   UNL     1      48.661   6.763  18.682  0.00  0.00    +0.000 A 
ATOM     18  C   UNL     1      48.723   7.253  17.371  0.00  0.00    +0.000 A 
ATOM     19  C   UNL     1      49.209   6.425  16.357  0.00  0.00    +0.000 A 
ATOM     20  N   UNL     1      49.568   5.145  16.615  0.00  0.00    +0.000 NA
ATOM     21  C   UNL     1      49.488   4.692  17.892  0.00  0.00    +0.000 A 
BRANCH  16  22
ATOM     22  C   UNL     1      49.185   4.926  20.376  0.00  0.00    +0.000 C 
BRANCH  22  23
ATOM     23  N   UNL     1      48.469   3.673  20.601  0.00  0.00    +0.000 NA
ATOM     24  H   UNL     1      48.911   2.936  20.054  0.00  0.00    +0.000 HD
ATOM     25  H   UNL     1      47.523   3.765  20.237  0.00  0.00    +0.000 HD
ENDBRANCH  22  23
ENDBRANCH  16  22
ENDBRANCH  15  19
ENDBRANCH   1  15
TORSDOF 5
ENDMDL
MODEL 6
REMARK VINA RESULT:    -6.009      3.407      8.380
REMARK INTER + INTRA:          -7.865
REMARK INTER:                  -7.650
REMARK INTRA:                  -0.214
REMARK UNBOUND:                -0.275
REMARK  Name = 
REMARK  5 active torsions:
REMARK  status: ('A' for Active; 'I' for Inactive)
REMARK    1  A    between atoms: N_1  and  C_2
REMARK    2  A    between atoms: C_2  and  C_3
REMARK    3  A    between atoms: C_6  and  C_7
REMARK    4  A    between atoms: C_7  and  N_8
REMARK    5  A    between atoms: C_13  and  C_14
REMARK                            x       y       z     vdW  Elec       q    Type
REMARK                         _______ _______ _______ _____ _____    ______ ____
ROOT
ATOM      1  N   UNL     1      47.342   4.539  14.666  0.00  0.00    +0.000 N 
ATOM      2  C   UNL     1      47.656   5.880  14.742  0.00  0.00    +0.000 A 
ATOM      3  C   UNL     1      47.512   6.415  13.482  0.00  0.00    +0.000 A 
ATOM      4  C   UNL     1      46.636   5.537  12.801  0.00  0.00    +0.000 A 
ATOM      5  C   UNL     1      45.770   5.672  11.700  0.00  0.00    +0.000 A 
ATOM      6  C   UNL     1      44.944   4.590  11.379  0.00  0.00    +0.000 A 
ATOM      7  C   UNL     1      45.125   3.405  12.091  0.00  0.00    +0.000 A 
ATOM      8  N   UNL     1      45.954   3.212  13.163  0.00  0.00    +0.000 NA
ATOM      9  C   UNL     1      46.625   4.332  13.505  0.00  0.00    +0.000 A 
ENDROOT
BRANCH   6  10
ATOM     10  C   UNL     1      43.869   4.812  10.377  0.00  0.00    +0.000 C 
ATOM     11  N   UNL     1      44.065   4.399   9.080  0.00  0.00    +0.000 N 
ATOM     12  O   UNL     1      42.803   5.320  10.681  0.00  0.00    +0.000 OA
ATOM     13  H   UNL     1      44.897   3.948   8.726  0.00  0.00    +0.000 HD
ATOM     14  H   UNL     1      43.298   4.506   8.448  0.00  0.00    +0.000 HD
ENDBRANCH   6  10
BRANCH   1  15
ATOM     15  C   UNL     1      47.431   3.615  15.791  0.00  0.00    +0.000 C 
BRANCH  15  19
ATOM     16  C   UNL     1      49.624   5.522  18.945  0.00  0.00    +0.000 A 
ATOM     17  C   UNL     1      48.230   5.489  19.004  0.00  0.00    +0.000 A 
ATOM     18  C   UNL     1      47.492   4.792  18.039  0.00  0.00    +0.000 A 
ATOM     19  C   UNL     1      48.167   4.145  17.002  0.00  0.00    +0.000 A 
ATOM     20  N   UNL     1      49.520   4.139  16.949  0.00  0.00    +0.000 NA
ATOM     21  C   UNL     1      50.211   4.813  17.903  0.00  0.00    +0.000 A 
BRANCH  16  22
ATOM     22  C   UNL     1      50.467   6.392  19.841  0.00  0.00    +0.000 C 
BRANCH  22  23
ATOM     23  N   UNL     1      49.833   7.654  20.209  0.00  0.00    +0.000 NA
ATOM     24  H   UNL     1      49.878   7.767  21.221  0.00  0.00    +0.000 HD
ATOM     25  H   UNL     1      48.843   7.606  19.975  0.00  0.00    +0.000 HD
ENDBRANCH  22  23
ENDBRANCH  16  22
ENDBRANCH  15  19
ENDBRANCH   1  15
TORSDOF 5
ENDMDL
MODEL 7
REMARK VINA RESULT:    -5.734      3.919      6.676
REMARK INTER + INTRA:          -7.517
REMARK INTER:                  -6.999
REMARK INTRA:                  -0.518
REMARK UNBOUND:                -0.275
REMARK  Name = 
REMARK  5 active torsions:
REMARK  status: ('A' for Active; 'I' for Inactive)
REMARK    1  A    between atoms: N_1  and  C_2
REMARK    2  A    between atoms: C_2  and  C_3
REMARK    3  A    between atoms: C_6  and  C_7
REMARK    4  A    between atoms: C_7  and  N_8
REMARK    5  A    between atoms: C_13  and  C_14
REMARK                            x       y       z     vdW  Elec       q    Type
REMARK                         _______ _______ _______ _____ _____    ______ ____
ROOT
ATOM      1  N   UNL     1      47.065   6.755  13.710  0.00  0.00    +0.000 N 
ATOM      2  C   UNL     1      47.684   5.698  14.346  0.00  0.00    +0.000 A 
ATOM      3  C   UNL     1      46.871   4.595  14.210  0.00  0.00    +0.000 A 
ATOM      4  C   UNL     1      46.059   4.865  13.083  0.00  0.00    +0.000 A 
ATOM      5  C   UNL     1      45.350   4.064  12.169  0.00  0.00    +0.000 A 
ATOM      6  C   UNL     1      44.744   4.695  11.077  0.00  0.00    +0.000 A 
ATOM      7  C   UNL     1      44.776   6.088  11.036  0.00  0.00    +0.000 A 
ATOM      8  N   UNL     1      45.442   6.918  11.897  0.00  0.00    +0.000 NA
ATOM      9  C   UNL     1      46.116   6.240  12.850  0.00  0.00    +0.000 A 
ENDROOT
BRANCH   6  10
ATOM     10  C   UNL     1      44.202   3.835   9.993  0.00  0.00    +0.000 C 
ATOM     11  N   UNL     1      44.149   4.327   8.709  0.00  0.00    +0.000 N 
ATOM     12  O   UNL     1      43.834   2.692  10.204  0.00  0.00    +0.000 OA
ATOM     13  H   UNL     1      44.449   5.246   8.420  0.00  0.00    +0.000 HD
ATOM     14  H   UNL     1      43.839   3.699   7.995  0.00  0.00    +0.000 HD
ENDBRANCH   6  10
BRANCH   1  15
ATOM     15  C   UNL     1      47.593   8.114  13.685  0.00  0.00    +0.000 C 
BRANCH  15  19
ATOM     16  C   UNL     1      51.427   8.187  11.765  0.00  0.00    +0.000 A 
ATOM     17  C   UNL     1      50.307   7.783  11.039  0.00  0.00    +0.000 A 
ATOM     18  C   UNL     1      49.028   7.840  11.610  0.00  0.00    +0.000 A 
ATOM     19  C   UNL     1      48.890   8.287  12.925  0.00  0.00    +0.000 A 
ATOM     20  N   UNL     1      49.963   8.714  13.633  0.00  0.00    +0.000 NA
ATOM     21  C   UNL     1      51.188   8.659  13.051  0.00  0.00    +0.000 A 
BRANCH  16  22
ATOM     22  C   UNL     1      52.840   7.990  11.280  0.00  0.00    +0.000 C 
BRANCH  22  23
ATOM     23  N   UNL     1      53.082   6.681  10.678  0.00  0.00    +0.000 NA
ATOM     24  H   UNL     1      52.666   6.662   9.748  0.00  0.00    +0.000 HD
ATOM     25  H   UNL     1      52.590   5.974  11.221  0.00  0.00    +0.000 HD
ENDBRANCH  22  23
ENDBRANCH  16  22
ENDBRANCH  15  19
ENDBRANCH   1  15
TORSDOF 5
ENDMDL
MODEL 8
REMARK VINA RESULT:    -5.605      3.683      4.809
REMARK INTER + INTRA:          -7.354
REMARK INTER:                  -7.088
REMARK INTRA:                  -0.266
REMARK UNBOUND:                -0.275
REMARK  Name = 
REMARK  5 active torsions:
REMARK  status: ('A' for Active; 'I' for Inactive)
REMARK    1  A    between atoms: N_1  and  C_2
REMARK    2  A    between atoms: C_2  and  C_3
REMARK    3  A    between atoms: C_6  and  C_7
REMARK    4  A    between atoms: C_7  and  N_8
REMARK    5  A    between atoms: C_13  and  C_14
REMARK                            x       y       z     vdW  Elec       q    Type
REMARK                         _______ _______ _______ _____ _____    ______ ____
ROOT
ATOM      1  N   UNL     1      46.113   7.839  12.650  0.00  0.00    +0.000 N 
ATOM      2  C   UNL     1      45.597   8.993  12.097  0.00  0.00    +0.000 A 
ATOM      3  C   UNL     1      46.604   9.933  12.077  0.00  0.00    +0.000 A 
ATOM      4  C   UNL     1      47.808   9.192  12.128  0.00  0.00    +0.000 A 
ATOM      5  C   UNL     1      49.135   9.448  11.739  0.00  0.00    +0.000 A 
ATOM      6  C   UNL     1      50.059   8.402  11.832  0.00  0.00    +0.000 A 
ATOM      7  C   UNL     1      49.633   7.214  12.423  0.00  0.00    +0.000 A 
ATOM      8  N   UNL     1      48.361   6.910  12.827  0.00  0.00    +0.000 NA
ATOM      9  C   UNL     1      47.490   7.913  12.587  0.00  0.00    +0.000 A 
ENDROOT
BRANCH   6  10
ATOM     10  C   UNL     1      51.393   8.596  11.204  0.00  0.00    +0.000 C 
ATOM     11  N   UNL     1      52.397   7.695  11.469  0.00  0.00    +0.000 N 
ATOM     12  O   UNL     1      51.611   9.515  10.432  0.00  0.00    +0.000 OA
ATOM     13  H   UNL     1      52.319   6.888  12.071  0.00  0.00    +0.000 HD
ATOM     14  H   UNL     1      53.261   7.820  10.980  0.00  0.00    +0.000 HD
ENDBRANCH   6  10
BRANCH   1  15
ATOM     15  C   UNL     1      45.332   6.632  12.893  0.00  0.00    +0.000 C 
BRANCH  15  19
ATOM     16  C   UNL     1      45.051   3.692   9.784  0.00  0.00    +0.000 A 
ATOM     17  C   UNL     1      45.492   4.977   9.471  0.00  0.00    +0.000 A 
ATOM     18  C   UNL     1      45.685   5.931  10.480  0.00  0.00    +0.000 A 
ATOM     19  C   UNL     1      45.410   5.584  11.804  0.00  0.00    +0.000 A 
ATOM     20  N   UNL     1      45.013   4.331  12.129  0.00  0.00    +0.000 NA
ATOM     21  C   UNL     1      44.845   3.424  11.133  0.00  0.00    +0.000 A 
BRANCH  16  22
ATOM     22  C   UNL     1      44.656   2.678   8.741  0.00  0.00    +0.000 C 
BRANCH  22  23
ATOM     23  N   UNL     1      45.101   1.319   9.038  0.00  0.00    +0.000 NA
ATOM     24  H   UNL     1      45.133   0.783   8.171  0.00  0.00    +0.000 HD
ATOM     25  H   UNL     1      44.403   0.865   9.624  0.00  0.00    +0.000 HD
ENDBRANCH  22  23
ENDBRANCH  16  22
ENDBRANCH  15  19
ENDBRANCH   1  15
TORSDOF 5
ENDMDL
MODEL 9
REMARK VINA RESULT:    -5.521      4.442      6.490
REMARK INTER + INTRA:          -7.248
REMARK INTER:                  -6.793
REMARK INTRA:                  -0.454
REMARK UNBOUND:                -0.275
REMARK  Name = 
REMARK  5 active torsions:
REMARK  status: ('A' for Active; 'I' for Inactive)
REMARK    1  A    between atoms: N_1  and  C_2
REMARK    2  A    between atoms: C_2  and  C_3
REMARK    3  A    between atoms: C_6  and  C_7
REMARK    4  A    between atoms: C_7  and  N_8
REMARK    5  A    between atoms: C_13  and  C_14
REMARK                            x       y       z     vdW  Elec       q    Type
REMARK                         _______ _______ _______ _____ _____    ______ ____
ROOT
ATOM      1  N   UNL     1      48.632   7.013  14.794  0.00  0.00    +0.000 N 
ATOM      2  C   UNL     1      49.176   8.256  15.042  0.00  0.00    +0.000 A 
ATOM      3  C   UNL     1      49.083   8.491  16.396  0.00  0.00    +0.000 A 
ATOM      4  C   UNL     1      48.971   7.211  16.990  0.00  0.00    +0.000 A 
ATOM      5  C   UNL     1      49.248   6.695  18.269  0.00  0.00    +0.000 A 
ATOM      6  C   UNL     1      49.127   5.314  18.459  0.00  0.00    +0.000 A 
ATOM      7  C   UNL     1      48.617   4.559  17.404  0.00  0.00    +0.000 A 
ATOM      8  N   UNL     1      48.323   5.005  16.144  0.00  0.00    +0.000 NA
ATOM      9  C   UNL     1      48.587   6.320  15.987  0.00  0.00    +0.000 A 
ENDROOT
BRANCH   6  10
ATOM     10  C   UNL     1      49.645   4.741  19.729  0.00  0.00    +0.000 C 
ATOM     11  N   UNL     1      50.985   4.454  19.839  0.00  0.00    +0.000 N 
ATOM     12  O   UNL     1      48.918   4.549  20.689  0.00  0.00    +0.000 OA
ATOM     13  H   UNL     1      51.677   4.596  19.117  0.00  0.00    +0.000 HD
ATOM     14  H   UNL     1      51.309   4.130  20.728  0.00  0.00    +0.000 HD
ENDBRANCH   6  10
BRANCH   1  15
ATOM     15  C   UNL     1      48.496   6.433  13.463  0.00  0.00    +0.000 C 
BRANCH  15  19
ATOM     16  C   UNL     1      44.358   5.604  12.708  0.00  0.00    +0.000 A 
ATOM     17  C   UNL     1      44.834   6.905  12.549  0.00  0.00    +0.000 A 
ATOM     18  C   UNL     1      46.199   7.188  12.696  0.00  0.00    +0.000 A 
ATOM     19  C   UNL     1      47.076   6.153  13.024  0.00  0.00    +0.000 A 
ATOM     20  N   UNL     1      46.636   4.878  13.148  0.00  0.00    +0.000 NA
ATOM     21  C   UNL     1      45.311   4.631  12.990  0.00  0.00    +0.000 A 
BRANCH  16  22
ATOM     22  C   UNL     1      42.891   5.260  12.737  0.00  0.00    +0.000 C 
BRANCH  22  23
ATOM     23  N   UNL     1      42.078   6.055  11.821  0.00  0.00    +0.000 NA
ATOM     24  H   UNL     1      41.110   6.042  12.140  0.00  0.00    +0.000 HD
ATOM     25  H   UNL     1      42.080   5.608  10.907  0.00  0.00    +0.000 HD
ENDBRANCH  22  23
ENDBRANCH  16  22
ENDBRANCH  15  19
ENDBRANCH   1  15
TORSDOF 5
ENDMDL
