MODEL 1
REMARK VINA RESULT:    -7.063      0.000      0.000
REMARK INTER + INTRA:          -7.412
REMARK INTER:                  -8.508
REMARK INTRA:                   1.095
REMARK UNBOUND:                 1.095
REMARK  Name = 
REMARK  4 active torsions:
REMARK  status: ('A' for Active; 'I' for Inactive)
REMARK    1  A    between atoms: N_1  and  C_2
REMARK    2  A    between atoms: C_4  and  N_5
REMARK    3  A    between atoms: C_4  and  C_16
REMARK    4  A    between atoms: C_9  and  C_10
REMARK                            x       y       z     vdW  Elec       q    Type
REMARK                         _______ _______ _______ _____ _____    ______ ____
ROOT
ATOM      1  C   UNL     1      42.768   4.481  12.719  0.00  0.00    +0.000 C 
ATOM      2  C   UNL     1      43.162   4.729  11.258  0.00  0.00    +0.000 C 
ATOM      3  C   UNL     1      44.584   4.113  11.510  0.00  0.00    +0.000 C 
ATOM      4  C   UNL     1      44.071   3.707  12.941  0.00  0.00    +0.000 C 
ENDROOT
BRANCH   3   5
ATOM      5  N   UNL     1      44.704   2.897  10.690  0.00  0.00    +0.000 N 
ATOM      6  C   UNL     1      45.279   2.892   9.392  0.00  0.00    +0.000 A 
ATOM      7  C   UNL     1      45.726   1.688   8.866  0.00  0.00    +0.000 A 
ATOM      8  C   UNL     1      46.321   1.663   7.603  0.00  0.00    +0.000 A 
ATOM      9  C   UNL     1      46.415   2.844   6.862  0.00  0.00    +0.000 A 
ATOM     10  C   UNL     1      45.912   3.992   7.447  0.00  0.00    +0.000 A 
ATOM     11  N   UNL     1      45.383   4.042   8.693  0.00  0.00    +0.000 NA
ATOM     12  H   UNL     1      43.792   2.448  10.604  0.00  0.00    +0.000 HD
BRANCH   9  13
ATOM     13  C   UNL     1      47.031   2.909   5.496  0.00  0.00    +0.000 C 
ATOM     14  F   UNL     1      47.136   4.171   5.007  0.00  0.00    +0.000 F 
ATOM     15  F   UNL     1      48.292   2.390   5.471  0.00  0.00    +0.000 F 
ATOM     16  F   UNL     1      46.321   2.206   4.575  0.00  0.00    +0.000 F 
ENDBRANCH   9  13
ENDBRANCH   3   5
BRANCH   3  17
ATOM     17  C   UNL     1      45.855   4.989  11.338  0.00  0.00    +0.000 C 
ATOM     18  C   UNL     1      46.773   5.150  12.546  0.00  0.00    +0.000 C 
ATOM     19  C   UNL     1      46.323   6.212  13.532  0.00  0.00    +0.000 C 
ATOM     20  C   UNL     1      45.941   7.500  12.827  0.00  0.00    +0.000 C 
ATOM     21  C   UNL     1      45.067   7.275  11.600  0.00  0.00    +0.000 C 
ATOM     22  O   UNL     1      45.546   6.260  10.730  0.00  0.00    +0.000 OA
ENDBRANCH   3  17
BRANCH   1  23
ATOM     23  N   UNL     1      42.793   5.727  13.483  0.00  0.00    +0.000 NA
ATOM     24  H   UNL     1      43.006   6.568  12.949  0.00  0.00    +0.000 HD
ATOM     25  H   UNL     1      43.364   5.744  14.326  0.00  0.00    +0.000 HD
ENDBRANCH   1  23
TORSDOF 4
ENDMDL
MODEL 2
REMARK VINA RESULT:    -6.597      2.860      4.121
REMARK INTER + INTRA:          -6.851
REMARK INTER:                  -7.323
REMARK INTRA:                   0.472
REMARK UNBOUND:                 1.095
REMARK  Name = 
REMARK  4 active torsions:
REMARK  status: ('A' for Active; 'I' for Inactive)
REMARK    1  A    between atoms: N_1  and  C_2
REMARK    2  A    between atoms: C_4  and  N_5
REMARK    3  A    between atoms: C_4  and  C_16
REMARK    4  A    between atoms: C_9  and  C_10
REMARK                            x       y       z     vdW  Elec       q    Type
REMARK                         _______ _______ _______ _____ _____    ______ ____
ROOT
ATOM      1  C   UNL     1      44.984   9.752  12.303  0.00  0.00    +0.000 C 
ATOM      2  C   UNL     1      45.161   8.645  11.256  0.00  0.00    +0.000 C 
ATOM      3  C   UNL     1      46.054   7.817  12.247  0.00  0.00    +0.000 C 
ATOM      4  C   UNL     1      45.690   8.882  13.347  0.00  0.00    +0.000 C 
ENDROOT
BRANCH   3   5
ATOM      5  N   UNL     1      45.350   6.562  12.554  0.00  0.00    +0.000 N 
ATOM      6  C   UNL     1      45.260   5.481  11.639  0.00  0.00    +0.000 A 
ATOM      7  C   UNL     1      44.956   4.217  12.128  0.00  0.00    +0.000 A 
ATOM      8  C   UNL     1      44.890   3.134  11.251  0.00  0.00    +0.000 A 
ATOM      9  C   UNL     1      45.084   3.341   9.883  0.00  0.00    +0.000 A 
ATOM     10  C   UNL     1      45.347   4.636   9.477  0.00  0.00    +0.000 A 
ATOM     11  N   UNL     1      45.468   5.689  10.322  0.00  0.00    +0.000 NA
ATOM     12  H   UNL     1      44.395   6.767  12.854  0.00  0.00    +0.000 HD
BRANCH   9  13
ATOM     13  C   UNL     1      45.024   2.238   8.868  0.00  0.00    +0.000 C 
ATOM     14  F   UNL     1      46.226   1.654   8.629  0.00  0.00    +0.000 F 
ATOM     15  F   UNL     1      44.186   1.230   9.248  0.00  0.00    +0.000 F 
ATOM     16  F   UNL     1      44.567   2.667   7.663  0.00  0.00    +0.000 F 
ENDBRANCH   9  13
ENDBRANCH   3   5
BRANCH   3  17
ATOM     17  C   UNL     1      47.535   7.513  11.892  0.00  0.00    +0.000 C 
ATOM     18  C   UNL     1      48.274   6.489  12.749  0.00  0.00    +0.000 C 
ATOM     19  C   UNL     1      48.827   7.049  14.048  0.00  0.00    +0.000 C 
ATOM     20  C   UNL     1      49.557   8.359  13.822  0.00  0.00    +0.000 C 
ATOM     21  C   UNL     1      48.798   9.321  12.918  0.00  0.00    +0.000 C 
ATOM     22  O   UNL     1      48.302   8.724  11.728  0.00  0.00    +0.000 OA
ENDBRANCH   3  17
BRANCH   1  23
ATOM     23  N   UNL     1      45.813  10.912  11.978  0.00  0.00    +0.000 NA
ATOM     24  H   UNL     1      46.209  11.408  12.775  0.00  0.00    +0.000 HD
ATOM     25  H   UNL     1      45.414  11.607  11.350  0.00  0.00    +0.000 HD
ENDBRANCH   1  23
TORSDOF 4
ENDMDL
MODEL 3
REMARK VINA RESULT:    -6.206      4.236      6.397
REMARK INTER + INTRA:          -6.381
REMARK INTER:                  -9.124
REMARK INTRA:                   2.743
REMARK UNBOUND:                 1.095
REMARK  Name = 
REMARK  4 active torsions:
REMARK  status: ('A' for Active; 'I' for Inactive)
REMARK    1  A    between atoms: N_1  and  C_2
REMARK    2  A    between atoms: C_4  and  N_5
REMARK    3  A    between atoms: C_4  and  C_16
REMARK    4  A    between atoms: C_9  and  C_10
REMARK                            x       y       z     vdW  Elec       q    Type
REMARK                         _______ _______ _______ _____ _____    ______ ____
ROOT
ATOM      1  C   UNL     1      43.696   3.266  12.071  0.00  0.00    +0.000 C 
ATOM      2  C   UNL     1      45.041   3.297  11.334  0.00  0.00    +0.000 C 
ATOM      3  C   UNL     1      44.445   4.248  10.235  0.00  0.00    +0.000 C 
ATOM      4  C   UNL     1      43.149   4.338  11.123  0.00  0.00    +0.000 C 
ENDROOT
BRANCH   3   5
ATOM      5  N   UNL     1      45.158   5.532  10.310  0.00  0.00    +0.000 N 
ATOM      6  C   UNL     1      46.031   5.873  11.377  0.00  0.00    +0.000 A 
ATOM      7  C   UNL     1      46.960   6.886  11.180  0.00  0.00    +0.000 A 
ATOM      8  C   UNL     1      47.847   7.219  12.205  0.00  0.00    +0.000 A 
ATOM      9  C   UNL     1      47.758   6.561  13.435  0.00  0.00    +0.000 A 
ATOM     10  C   UNL     1      46.782   5.590  13.556  0.00  0.00    +0.000 A 
ATOM     11  N   UNL     1      45.950   5.217  12.554  0.00  0.00    +0.000 NA
ATOM     12  H   UNL     1      44.493   6.302  10.225  0.00  0.00    +0.000 HD
BRANCH   9  13
ATOM     13  C   UNL     1      48.665   6.858  14.592  0.00  0.00    +0.000 C 
ATOM     14  F   UNL     1      49.967   7.004  14.239  0.00  0.00    +0.000 F 
ATOM     15  F   UNL     1      48.319   8.009  15.238  0.00  0.00    +0.000 F 
ATOM     16  F   UNL     1      48.637   5.880  15.536  0.00  0.00    +0.000 F 
ENDBRANCH   9  13
ENDBRANCH   3   5
BRANCH   3  17
ATOM     17  C   UNL     1      44.366   3.777   8.757  0.00  0.00    +0.000 C 
ATOM     18  C   UNL     1      44.447   2.278   8.485  0.00  0.00    +0.000 C 
ATOM     19  C   UNL     1      45.861   1.727   8.458  0.00  0.00    +0.000 C 
ATOM     20  C   UNL     1      46.780   2.593   7.618  0.00  0.00    +0.000 C 
ATOM     21  C   UNL     1      46.620   4.082   7.893  0.00  0.00    +0.000 C 
ATOM     22  O   UNL     1      45.269   4.522   7.913  0.00  0.00    +0.000 OA
ENDBRANCH   3  17
BRANCH   1  23
ATOM     23  N   UNL     1      43.006   1.998  11.840  0.00  0.00    +0.000 NA
ATOM     24  H   UNL     1      42.217   2.035  11.196  0.00  0.00    +0.000 HD
ATOM     25  H   UNL     1      42.708   1.476  12.662  0.00  0.00    +0.000 HD
ENDBRANCH   1  23
TORSDOF 4
ENDMDL
MODEL 4
REMARK VINA RESULT:    -6.191      1.663      2.506
REMARK INTER + INTRA:          -6.362
REMARK INTER:                  -8.557
REMARK INTRA:                   2.195
REMARK UNBOUND:                 1.095
REMARK  Name = 
REMARK  4 active torsions:
REMARK  status: ('A' for Active; 'I' for Inactive)
REMARK    1  A    between atoms: N_1  and  C_2
REMARK    2  A    between atoms: C_4  and  N_5
REMARK    3  A    between atoms: C_4  and  C_16
REMARK    4  A    between atoms: C_9  and  C_10
REMARK                            x       y       z     vdW  Elec       q    Type
REMARK                         _______ _______ _______ _____ _____    ______ ____
ROOT
ATOM      1  C   UNL     1      43.550   7.246  10.646  0.00  0.00    +0.000 C 
ATOM      2  C   UNL     1      44.727   6.263  10.702  0.00  0.00    +0.000 C 
ATOM      3  C   UNL     1      43.925   5.320  11.668  0.00  0.00    +0.000 C 
ATOM      4  C   UNL     1      42.683   6.256  11.430  0.00  0.00    +0.000 C 
ENDROOT
BRANCH   3   5
ATOM      5  N   UNL     1      43.695   4.045  10.971  0.00  0.00    +0.000 N 
ATOM      6  C   UNL     1      44.511   3.588   9.902  0.00  0.00    +0.000 A 
ATOM      7  C   UNL     1      44.495   2.237   9.583  0.00  0.00    +0.000 A 
ATOM      8  C   UNL     1      45.310   1.761   8.555  0.00  0.00    +0.000 A 
ATOM      9  C   UNL     1      46.097   2.657   7.827  0.00  0.00    +0.000 A 
ATOM     10  C   UNL     1      46.026   3.990   8.189  0.00  0.00    +0.000 A 
ATOM     11  N   UNL     1      45.282   4.460   9.219  0.00  0.00    +0.000 NA
ATOM     12  H   UNL     1      42.731   4.003  10.636  0.00  0.00    +0.000 HD
BRANCH   9  13
ATOM     13  C   UNL     1      46.997   2.235   6.703  0.00  0.00    +0.000 C 
ATOM     14  F   UNL     1      47.058   0.890   6.533  0.00  0.00    +0.000 F 
ATOM     15  F   UNL     1      46.601   2.748   5.503  0.00  0.00    +0.000 F 
ATOM     16  F   UNL     1      48.278   2.652   6.881  0.00  0.00    +0.000 F 
ENDBRANCH   9  13
ENDBRANCH   3   5
BRANCH   3  17
ATOM     17  C   UNL     1      44.451   5.045  13.103  0.00  0.00    +0.000 C 
ATOM     18  C   UNL     1      45.622   5.887  13.602  0.00  0.00    +0.000 C 
ATOM     19  C   UNL     1      46.982   5.395  13.140  0.00  0.00    +0.000 C 
ATOM     20  C   UNL     1      47.126   3.897  13.332  0.00  0.00    +0.000 C 
ATOM     21  C   UNL     1      45.908   3.112  12.865  0.00  0.00    +0.000 C 
ATOM     22  O   UNL     1      44.672   3.637  13.328  0.00  0.00    +0.000 OA
ENDBRANCH   3  17
BRANCH   1  23
ATOM     23  N   UNL     1      43.820   8.428  11.464  0.00  0.00    +0.000 NA
ATOM     24  H   UNL     1      43.305   8.484  12.342  0.00  0.00    +0.000 HD
ATOM     25  H   UNL     1      43.749   9.334  11.007  0.00  0.00    +0.000 HD
ENDBRANCH   1  23
TORSDOF 4
ENDMDL
MODEL 5
REMARK VINA RESULT:    -5.734      4.539      6.327
REMARK INTER + INTRA:          -5.812
REMARK INTER:                  -6.375
REMARK INTRA:                   0.563
REMARK UNBOUND:                 1.095
REMARK  Name = 
REMARK  4 active torsions:
REMARK  status: ('A' for Active; 'I' for Inactive)
REMARK    1  A    between atoms: N_1  and  C_2
REMARK    2  A    between atoms: C_4  and  N_5
REMARK    3  A    between atoms: C_4  and  C_16
REMARK    4  A    between atoms: C_9  and  C_10
REMARK                            x       y       z     vdW  Elec       q    Type
REMARK                         _______ _______ _______ _____ _____    ______ ____
ROOT
ATOM      1  C   UNL     1      48.835   9.212  15.652  0.00  0.00    +0.000 C 
ATOM      2  C   UNL     1      47.515   8.910  14.931  0.00  0.00    +0.000 C 
ATOM      3  C   UNL     1      48.264   8.004  13.889  0.00  0.00    +0.000 C 
ATOM      4  C   UNL     1      49.555   8.189  14.768  0.00  0.00    +0.000 C 
ENDROOT
BRANCH   3   5
ATOM      5  N   UNL     1      47.776   6.626  14.051  0.00  0.00    +0.000 N 
ATOM      6  C   UNL     1      46.624   6.128  13.387  0.00  0.00    +0.000 A 
ATOM      7  C   UNL     1      46.469   4.754  13.261  0.00  0.00    +0.000 A 
ATOM      8  C   UNL     1      45.359   4.243  12.587  0.00  0.00    +0.000 A 
ATOM      9  C   UNL     1      44.391   5.119  12.088  0.00  0.00    +0.000 A 
ATOM     10  C   UNL     1      44.607   6.470  12.288  0.00  0.00    +0.000 A 
ATOM     11  N   UNL     1      45.706   6.984  12.892  0.00  0.00    +0.000 NA
ATOM     12  H   UNL     1      47.649   6.419  15.043  0.00  0.00    +0.000 HD
BRANCH   9  13
ATOM     13  C   UNL     1      43.164   4.658  11.359  0.00  0.00    +0.000 C 
ATOM     14  F   UNL     1      42.870   3.349  11.564  0.00  0.00    +0.000 F 
ATOM     15  F   UNL     1      42.051   5.355  11.725  0.00  0.00    +0.000 F 
ATOM     16  F   UNL     1      43.274   4.813  10.013  0.00  0.00    +0.000 F 
ENDBRANCH   9  13
ENDBRANCH   3   5
BRANCH   3  17
ATOM     17  C   UNL     1      48.264   8.386  12.384  0.00  0.00    +0.000 C 
ATOM     18  C   UNL     1      49.036   7.485  11.424  0.00  0.00    +0.000 C 
ATOM     19  C   UNL     1      50.527   7.768  11.371  0.00  0.00    +0.000 C 
ATOM     20  C   UNL     1      50.808   9.252  11.240  0.00  0.00    +0.000 C 
ATOM     21  C   UNL     1      49.972  10.106  12.184  0.00  0.00    +0.000 C 
ATOM     22  O   UNL     1      48.590   9.778  12.188  0.00  0.00    +0.000 OA
ENDBRANCH   3  17
BRANCH   1  23
ATOM     23  N   UNL     1      49.303  10.561  15.335  0.00  0.00    +0.000 NA
ATOM     24  H   UNL     1      48.781  11.322  15.767  0.00  0.00    +0.000 HD
ATOM     25  H   UNL     1      49.425  10.791  14.351  0.00  0.00    +0.000 HD
ENDBRANCH   1  23
TORSDOF 4
ENDMDL
MODEL 6
REMARK VINA RESULT:    -5.609      6.316      8.291
REMARK INTER + INTRA:          -5.662
REMARK INTER:                  -6.202
REMARK INTRA:                   0.540
REMARK UNBOUND:                 1.095
REMARK  Name = 
REMARK  4 active torsions:
REMARK  status: ('A' for Active; 'I' for Inactive)
REMARK    1  A    between atoms: N_1  and  C_2
REMARK    2  A    between atoms: C_4  and  N_5
REMARK    3  A    between atoms: C_4  and  C_16
REMARK    4  A    between atoms: C_9  and  C_10
REMARK                            x       y       z     vdW  Elec       q    Type
REMARK                         _______ _______ _______ _____ _____    ______ ____
ROOT
ATOM      1  C   UNL     1      51.625   4.723  18.380  0.00  0.00    +0.000 C 
ATOM      2  C   UNL     1      50.603   4.058  17.449  0.00  0.00    +0.000 C 
ATOM      3  C   UNL     1      49.564   5.201  17.733  0.00  0.00    +0.000 C 
ATOM      4  C   UNL     1      50.706   5.940  18.523  0.00  0.00    +0.000 C 
ENDROOT
BRANCH   3   5
ATOM      5  N   UNL     1      49.322   5.918  16.472  0.00  0.00    +0.000 N 
ATOM      6  C   UNL     1      48.365   5.497  15.512  0.00  0.00    +0.000 A 
ATOM      7  C   UNL     1      47.909   6.417  14.578  0.00  0.00    +0.000 A 
ATOM      8  C   UNL     1      46.947   6.033  13.642  0.00  0.00    +0.000 A 
ATOM      9  C   UNL     1      46.489   4.713  13.626  0.00  0.00    +0.000 A 
ATOM     10  C   UNL     1      47.023   3.853  14.569  0.00  0.00    +0.000 A 
ATOM     11  N   UNL     1      47.915   4.224  15.517  0.00  0.00    +0.000 NA
ATOM     12  H   UNL     1      50.202   6.038  15.969  0.00  0.00    +0.000 HD
BRANCH   9  13
ATOM     13  C   UNL     1      45.464   4.211  12.652  0.00  0.00    +0.000 C 
ATOM     14  F   UNL     1      45.677   2.932  12.250  0.00  0.00    +0.000 F 
ATOM     15  F   UNL     1      44.202   4.237  13.170  0.00  0.00    +0.000 F 
ATOM     16  F   UNL     1      45.417   4.959  11.519  0.00  0.00    +0.000 F 
ENDBRANCH   9  13
ENDBRANCH   3   5
BRANCH   3  17
ATOM     17  C   UNL     1      48.209   4.869  18.416  0.00  0.00    +0.000 C 
ATOM     18  C   UNL     1      47.241   6.022  18.666  0.00  0.00    +0.000 C 
ATOM     19  C   UNL     1      47.538   6.822  19.921  0.00  0.00    +0.000 C 
ATOM     20  C   UNL     1      47.795   5.917  21.111  0.00  0.00    +0.000 C 
ATOM     21  C   UNL     1      48.726   4.755  20.790  0.00  0.00    +0.000 C 
ATOM     22  O   UNL     1      48.392   4.060  19.597  0.00  0.00    +0.000 OA
ENDBRANCH   3  17
BRANCH   1  23
ATOM     23  N   UNL     1      51.709   4.010  19.654  0.00  0.00    +0.000 NA
ATOM     24  H   UNL     1      51.455   3.023  19.625  0.00  0.00    +0.000 HD
ATOM     25  H   UNL     1      51.234   4.427  20.452  0.00  0.00    +0.000 HD
ENDBRANCH   1  23
TORSDOF 4
ENDMDL
MODEL 7
REMARK VINA RESULT:    -5.549      4.671      6.546
REMARK INTER + INTRA:          -5.589
REMARK INTER:                  -6.190
REMARK INTRA:                   0.602
REMARK UNBOUND:                 1.095
REMARK  Name = 
REMARK  4 active torsions:
REMARK  status: ('A' for Active; 'I' for Inactive)
REMARK    1  A    between atoms: N_1  and  C_2
REMARK    2  A    between atoms: C_4  and  N_5
REMARK    3  A    between atoms: C_4  and  C_16
REMARK    4  A    between atoms: C_9  and  C_10
REMARK                            x       y       z     vdW  Elec       q    Type
REMARK                         _______ _______ _______ _____ _____    ______ ____
ROOT
ATOM      1  C   UNL     1      50.455   7.913  11.716  0.00  0.00    +0.000 C 
ATOM      2  C   UNL     1      50.233   7.869  13.233  0.00  0.00    +0.000 C 
ATOM      3  C   UNL     1      48.677   7.938  13.032  0.00  0.00    +0.000 C 
ATOM      4  C   UNL     1      48.945   7.789  11.489  0.00  0.00    +0.000 C 
ENDROOT
BRANCH   3   5
ATOM      5  N   UNL     1      48.099   6.681  13.534  0.00  0.00    +0.000 N 
ATOM      6  C   UNL     1      46.884   6.136  13.041  0.00  0.00    +0.000 A 
ATOM      7  C   UNL     1      46.624   4.789  13.253  0.00  0.00    +0.000 A 
ATOM      8  C   UNL     1      45.449   4.225  12.753  0.00  0.00    +0.000 A 
ATOM      9  C   UNL     1      44.525   5.034  12.087  0.00  0.00    +0.000 A 
ATOM     10  C   UNL     1      44.847   6.372  11.951  0.00  0.00    +0.000 A 
ATOM     11  N   UNL     1      46.007   6.922  12.382  0.00  0.00    +0.000 NA
ATOM     12  H   UNL     1      48.005   6.726  14.549  0.00  0.00    +0.000 HD
BRANCH   9  13
ATOM     13  C   UNL     1      43.235   4.515  11.524  0.00  0.00    +0.000 C 
ATOM     14  F   UNL     1      42.961   3.235  11.884  0.00  0.00    +0.000 F 
ATOM     15  F   UNL     1      42.161   5.255  11.923  0.00  0.00    +0.000 F 
ATOM     16  F   UNL     1      43.217   4.537  10.165  0.00  0.00    +0.000 F 
ENDBRANCH   9  13
ENDBRANCH   3   5
BRANCH   3  17
ATOM     17  C   UNL     1      47.872   9.144  13.588  0.00  0.00    +0.000 C 
ATOM     18  C   UNL     1      48.392  10.545  13.280  0.00  0.00    +0.000 C 
ATOM     19  C   UNL     1      49.500  11.014  14.206  0.00  0.00    +0.000 C 
ATOM     20  C   UNL     1      49.159  10.749  15.660  0.00  0.00    +0.000 C 
ATOM     21  C   UNL     1      48.596   9.355  15.900  0.00  0.00    +0.000 C 
ATOM     22  O   UNL     1      47.572   8.982  14.990  0.00  0.00    +0.000 OA
ENDBRANCH   3  17
BRANCH   1  23
ATOM     23  N   UNL     1      50.915   9.235  11.295  0.00  0.00    +0.000 NA
ATOM     24  H   UNL     1      51.567   9.248  10.512  0.00  0.00    +0.000 HD
ATOM     25  H   UNL     1      51.289   9.848  12.017  0.00  0.00    +0.000 HD
ENDBRANCH   1  23
TORSDOF 4
ENDMDL
MODEL 8
REMARK VINA RESULT:    -5.527      3.963      5.636
REMARK INTER + INTRA:          -5.563
REMARK INTER:                  -6.330
REMARK INTRA:                   0.767
REMARK UNBOUND:                 1.095
REMARK  Name = 
REMARK  4 active torsions:
REMARK  status: ('A' for Active; 'I' for Inactive)
REMARK    1  A    between atoms: N_1  and  C_2
REMARK    2  A    between atoms: C_4  and  N_5
REMARK    3  A    between atoms: C_4  and  C_16
REMARK    4  A    between atoms: C_9  and  C_10
REMARK                            x       y       z     vdW  Elec       q    Type
REMARK                         _______ _______ _______ _____ _____    ______ ____
ROOT
ATOM      1  C   UNL     1      49.446   8.043  14.919  0.00  0.00    +0.000 C 
ATOM      2  C   UNL     1      48.235   8.928  14.600  0.00  0.00    +0.000 C 
ATOM      3  C   UNL     1      47.883   8.039  13.354  0.00  0.00    +0.000 C 
ATOM      4  C   UNL     1      49.016   7.056  13.828  0.00  0.00    +0.000 C 
ENDROOT
BRANCH   3   5
ATOM      5  N   UNL     1      46.577   7.408  13.600  0.00  0.00    +0.000 N 
ATOM      6  C   UNL     1      46.017   6.426  12.741  0.00  0.00    +0.000 A 
ATOM      7  C   UNL     1      45.018   5.599  13.237  0.00  0.00    +0.000 A 
ATOM      8  C   UNL     1      44.472   4.607  12.420  0.00  0.00    +0.000 A 
ATOM      9  C   UNL     1      44.905   4.489  11.097  0.00  0.00    +0.000 A 
ATOM     10  C   UNL     1      45.879   5.375  10.675  0.00  0.00    +0.000 A 
ATOM     11  N   UNL     1      46.457   6.307  11.471  0.00  0.00    +0.000 NA
ATOM     12  H   UNL     1      45.863   8.127  13.720  0.00  0.00    +0.000 HD
BRANCH   9  13
ATOM     13  C   UNL     1      44.370   3.459  10.147  0.00  0.00    +0.000 C 
ATOM     14  F   UNL     1      45.316   2.599   9.689  0.00  0.00    +0.000 F 
ATOM     15  F   UNL     1      43.402   2.684  10.714  0.00  0.00    +0.000 F 
ATOM     16  F   UNL     1      43.802   4.016   9.045  0.00  0.00    +0.000 F 
ENDBRANCH   9  13
ENDBRANCH   3   5
BRANCH   3  17
ATOM     17  C   UNL     1      47.908   8.653  11.928  0.00  0.00    +0.000 C 
ATOM     18  C   UNL     1      49.245   9.159  11.396  0.00  0.00    +0.000 C 
ATOM     19  C   UNL     1      49.615  10.553  11.871  0.00  0.00    +0.000 C 
ATOM     20  C   UNL     1      48.452  11.516  11.730  0.00  0.00    +0.000 C 
ATOM     21  C   UNL     1      47.133  10.940  12.227  0.00  0.00    +0.000 C 
ATOM     22  O   UNL     1      46.860   9.630  11.751  0.00  0.00    +0.000 OA
ENDBRANCH   3  17
BRANCH   1  23
ATOM     23  N   UNL     1      50.690   8.704  14.530  0.00  0.00    +0.000 NA
ATOM     24  H   UNL     1      50.608   9.399  13.789  0.00  0.00    +0.000 HD
ATOM     25  H   UNL     1      51.483   8.106  14.305  0.00  0.00    +0.000 HD
ENDBRANCH   1  23
TORSDOF 4
ENDMDL
MODEL 9
REMARK VINA RESULT:    -5.434      6.146      8.137
REMARK INTER + INTRA:          -5.450
REMARK INTER:                  -6.020
REMARK INTRA:                   0.570
REMARK UNBOUND:                 1.095
REMARK  Name = 
REMARK  4 active torsions:
REMARK  status: ('A' for Active; 'I' for Inactive)
REMARK    1  A    between atoms: N_1  and  C_2
REMARK    2  A    between atoms: C_4  and  N_5
REMARK    3  A    between atoms: C_4  and  C_16
REMARK    4  A    between atoms: C_9  and  C_10
REMARK                            x       y       z     vdW  Elec       q    Type
REMARK                         _______ _______ _______ _____ _____    ______ ____
ROOT
ATOM      1  C   UNL     1      48.761   7.913  19.112  0.00  0.00    +0.000 C 
ATOM      2  C   UNL     1      50.042   7.588  18.335  0.00  0.00    +0.000 C 
ATOM      3  C   UNL     1      49.325   6.398  17.603  0.00  0.00    +0.000 C 
ATOM      4  C   UNL     1      47.990   6.885  18.278  0.00  0.00    +0.000 C 
ENDROOT
BRANCH   3   5
ATOM      5  N   UNL     1      49.271   6.713  16.167  0.00  0.00    +0.000 N 
ATOM      6  C   UNL     1      48.355   6.100  15.273  0.00  0.00    +0.000 A 
ATOM      7  C   UNL     1      48.085   6.725  14.063  0.00  0.00    +0.000 A 
ATOM      8  C   UNL     1      47.166   6.155  13.181  0.00  0.00    +0.000 A 
ATOM      9  C   UNL     1      46.565   4.936  13.504  0.00  0.00    +0.000 A 
ATOM     10  C   UNL     1      46.917   4.364  14.713  0.00  0.00    +0.000 A 
ATOM     11  N   UNL     1      47.765   4.932  15.604  0.00  0.00    +0.000 NA
ATOM     12  H   UNL     1      50.198   6.600  15.754  0.00  0.00    +0.000 HD
BRANCH   9  13
ATOM     13  C   UNL     1      45.573   4.247  12.613  0.00  0.00    +0.000 C 
ATOM     14  F   UNL     1      44.292   4.337  13.055  0.00  0.00    +0.000 F 
ATOM     15  F   UNL     1      45.570   4.759  11.349  0.00  0.00    +0.000 F 
ATOM     16  F   UNL     1      45.833   2.921  12.477  0.00  0.00    +0.000 F 
ENDBRANCH   9  13
ENDBRANCH   3   5
BRANCH   3  17
ATOM     17  C   UNL     1      49.833   4.943  17.801  0.00  0.00    +0.000 C 
ATOM     18  C   UNL     1      50.054   4.458  19.231  0.00  0.00    +0.000 C 
ATOM     19  C   UNL     1      51.386   4.875  19.829  0.00  0.00    +0.000 C 
ATOM     20  C   UNL     1      52.532   4.618  18.869  0.00  0.00    +0.000 C 
ATOM     21  C   UNL     1      52.235   5.074  17.446  0.00  0.00    +0.000 C 
ATOM     22  O   UNL     1      50.968   4.656  16.959  0.00  0.00    +0.000 OA
ENDBRANCH   3  17
BRANCH   1  23
ATOM     23  N   UNL     1      48.862   7.456  20.497  0.00  0.00    +0.000 NA
ATOM     24  H   UNL     1      49.806   7.266  20.831  0.00  0.00    +0.000 HD
ATOM     25  H   UNL     1      48.274   6.671  20.770  0.00  0.00    +0.000 HD
ENDBRANCH   1  23
TORSDOF 4
ENDMDL
