MODEL 1
REMARK VINA RESULT:    -7.935      0.000      0.000
REMARK INTER + INTRA:         -11.804
REMARK INTER:                 -10.719
REMARK INTRA:                  -1.085
REMARK UNBOUND:                -1.085
REMARK  Name = 
REMARK  6 active torsions:
REMARK  status: ('A' for Active; 'I' for Inactive)
REMARK    1  A    between atoms: C_2  and  C_25
REMARK    2  A    between atoms: N_3  and  C_4
REMARK    3  A    between atoms: C_4  and  C_5
REMARK    4  A    between atoms: C_8  and  C_9
REMARK    5  A    between atoms: C_9  and  N_10
REMARK    6  A    between atoms: C_11  and  C_13
REMARK                            x       y       z     vdW  Elec       q    Type
REMARK                         _______ _______ _______ _____ _____    ______ ____
ROOT
ATOM      1  C   UNL     1      44.751   5.699  10.855  0.00  0.00    +0.000 A 
ATOM      2  C   UNL     1      46.081   6.016  10.547  0.00  0.00    +0.000 A 
ATOM      3  C   UNL     1      46.837   6.833  11.395  0.00  0.00    +0.000 A 
ATOM      4  C   UNL     1      46.284   7.332  12.583  0.00  0.00    +0.000 A 
ATOM      5  C   UNL     1      44.949   7.023  12.883  0.00  0.00    +0.000 A 
ATOM      6  C   UNL     1      44.194   6.206  12.035  0.00  0.00    +0.000 A 
ENDROOT
BRANCH   1   7
ATOM      7  C   UNL     1      43.944   4.810   9.944  0.00  0.00    +0.000 C 
BRANCH   7  10
ATOM      8  O   UNL     1      45.224   2.360   9.910  0.00  0.00    +0.000 OA
ATOM      9  C   UNL     1      45.331   3.068   8.910  0.00  0.00    +0.000 C 
ATOM     10  N   UNL     1      44.735   4.310   8.849  0.00  0.00    +0.000 N 
ATOM     11  H   UNL     1      44.824   4.858   8.003  0.00  0.00    +0.000 HD
BRANCH   9  12
ATOM     12  C   UNL     1      46.073   2.648   7.727  0.00  0.00    +0.000 A 
ATOM     13  C   UNL     1      46.292   3.397   6.583  0.00  0.00    +0.000 A 
ATOM     14  C   UNL     1      47.065   2.701   5.609  0.00  0.00    +0.000 A 
ATOM     15  C   UNL     1      47.404   1.437   6.033  0.00  0.00    +0.000 A 
ATOM     16  S   UNL     1      46.800   1.101   7.596  0.00  0.00    +0.000 S 
ENDBRANCH   9  12
ENDBRANCH   7  10
ENDBRANCH   1   7
BRANCH   4  17
ATOM     17  C   UNL     1      47.089   8.205  13.513  0.00  0.00    +0.000 C 
BRANCH  17  18
ATOM     18  N   UNL     1      47.522   7.479  14.680  0.00  0.00    +0.000 N 
ATOM     19  C   UNL     1      48.748   6.863  14.723  0.00  0.00    +0.000 C 
ATOM     20  O   UNL     1      49.546   6.930  13.791  0.00  0.00    +0.000 OA
ATOM     21  H   UNL     1      46.802   7.192  15.334  0.00  0.00    +0.000 HD
BRANCH  19  22
ATOM     22  C   UNL     1      49.087   6.168  15.971  0.00  0.00    +0.000 A 
ATOM     23  C   UNL     1      50.163   6.599  16.735  0.00  0.00    +0.000 A 
ATOM     24  S   UNL     1      50.376   5.714  18.179  0.00  0.00    +0.000 S 
ATOM     25  C   UNL     1      49.072   4.686  17.804  0.00  0.00    +0.000 A 
ATOM     26  N   UNL     1      48.729   3.661  18.631  0.00  0.00    +0.000 NA
ATOM     27  C   UNL     1      47.745   2.938  18.204  0.00  0.00    +0.000 A 
ATOM     28  N   UNL     1      47.069   3.155  17.031  0.00  0.00    +0.000 N 
ATOM     29  C   UNL     1      47.358   4.196  16.183  0.00  0.00    +0.000 A 
ATOM     30  O   UNL     1      46.702   4.392  15.165  0.00  0.00    +0.000 OA
ATOM     31  C   UNL     1      48.469   5.028  16.608  0.00  0.00    +0.000 A 
ATOM     32  H   UNL     1      46.301   2.561  16.758  0.00  0.00    +0.000 HD
ENDBRANCH  19  22
ENDBRANCH  17  18
ENDBRANCH   4  17
TORSDOF 6
ENDMDL
MODEL 2
REMARK VINA RESULT:    -7.568      1.119      1.290
REMARK INTER + INTRA:         -11.308
REMARK INTER:                 -10.674
REMARK INTRA:                  -0.634
REMARK UNBOUND:                -1.085
REMARK  Name = 
REMARK  6 active torsions:
REMARK  status: ('A' for Active; 'I' for Inactive)
REMARK    1  A    between atoms: C_2  and  C_25
REMARK    2  A    between atoms: N_3  and  C_4
REMARK    3  A    between atoms: C_4  and  C_5
REMARK    4  A    between atoms: C_8  and  C_9
REMARK    5  A    between atoms: C_9  and  N_10
REMARK    6  A    between atoms: C_11  and  C_13
REMARK                            x       y       z     vdW  Elec       q    Type
REMARK                         _______ _______ _______ _____ _____    ______ ____
ROOT
ATOM      1  C   UNL     1      44.675   5.365  11.369  0.00  0.00    +0.000 A 
ATOM      2  C   UNL     1      45.713   4.871  12.169  0.00  0.00    +0.000 A 
ATOM      3  C   UNL     1      46.551   5.744  12.875  0.00  0.00    +0.000 A 
ATOM      4  C   UNL     1      46.351   7.130  12.811  0.00  0.00    +0.000 A 
ATOM      5  C   UNL     1      45.319   7.623  12.000  0.00  0.00    +0.000 A 
ATOM      6  C   UNL     1      44.482   6.751  11.296  0.00  0.00    +0.000 A 
ENDROOT
BRANCH   1   7
ATOM      7  C   UNL     1      43.769   4.423  10.620  0.00  0.00    +0.000 C 
BRANCH   7  10
ATOM      8  O   UNL     1      45.260   4.946   8.351  0.00  0.00    +0.000 OA
ATOM      9  C   UNL     1      45.247   3.788   8.764  0.00  0.00    +0.000 C 
ATOM     10  N   UNL     1      44.518   3.438   9.882  0.00  0.00    +0.000 N 
ATOM     11  H   UNL     1      44.547   2.481  10.209  0.00  0.00    +0.000 HD
BRANCH   9  12
ATOM     12  C   UNL     1      45.999   2.717   8.122  0.00  0.00    +0.000 A 
ATOM     13  C   UNL     1      45.911   1.364   8.404  0.00  0.00    +0.000 A 
ATOM     14  C   UNL     1      46.775   0.574   7.591  0.00  0.00    +0.000 A 
ATOM     15  C   UNL     1      47.505   1.348   6.719  0.00  0.00    +0.000 A 
ATOM     16  S   UNL     1      47.142   3.011   6.878  0.00  0.00    +0.000 S 
ENDBRANCH   9  12
ENDBRANCH   7  10
ENDBRANCH   1   7
BRANCH   4  17
ATOM     17  C   UNL     1      47.238   8.082  13.575  0.00  0.00    +0.000 C 
BRANCH  17  18
ATOM     18  N   UNL     1      47.702   7.502  14.808  0.00  0.00    +0.000 N 
ATOM     19  C   UNL     1      48.975   7.002  14.928  0.00  0.00    +0.000 C 
ATOM     20  O   UNL     1      49.788   7.058  14.007  0.00  0.00    +0.000 OA
ATOM     21  H   UNL     1      46.994   7.210  15.473  0.00  0.00    +0.000 HD
BRANCH  19  22
ATOM     22  C   UNL     1      49.341   6.451  16.239  0.00  0.00    +0.000 A 
ATOM     23  C   UNL     1      50.322   7.070  17.002  0.00  0.00    +0.000 A 
ATOM     24  S   UNL     1      50.577   6.329  18.518  0.00  0.00    +0.000 S 
ATOM     25  C   UNL     1      49.427   5.121  18.183  0.00  0.00    +0.000 A 
ATOM     26  N   UNL     1      49.175   4.127  19.077  0.00  0.00    +0.000 NA
ATOM     27  C   UNL     1      48.306   3.257  18.676  0.00  0.00    +0.000 A 
ATOM     28  N   UNL     1      47.662   3.299  17.467  0.00  0.00    +0.000 N 
ATOM     29  C   UNL     1      47.858   4.301  16.549  0.00  0.00    +0.000 A 
ATOM     30  O   UNL     1      47.228   4.335  15.496  0.00  0.00    +0.000 OA
ATOM     31  C   UNL     1      48.839   5.294  16.943  0.00  0.00    +0.000 A 
ATOM     32  H   UNL     1      46.984   2.594  17.216  0.00  0.00    +0.000 HD
ENDBRANCH  19  22
ENDBRANCH  17  18
ENDBRANCH   4  17
TORSDOF 6
ENDMDL
MODEL 3
REMARK VINA RESULT:    -7.099      4.782      9.311
REMARK INTER + INTRA:         -10.674
REMARK INTER:                  -9.852
REMARK INTRA:                  -0.822
REMARK UNBOUND:                -1.085
REMARK  Name = 
REMARK  6 active torsions:
REMARK  status: ('A' for Active; 'I' for Inactive)
REMARK    1  A    between atoms: C_2  and  C_25
REMARK    2  A    between atoms: N_3  and  C_4
REMARK    3  A    between atoms: C_4  and  C_5
REMARK    4  A    between atoms: C_8  and  C_9
REMARK    5  A    between atoms: C_9  and  N_10
REMARK    6  A    between atoms: C_11  and  C_13
REMARK                            x       y       z     vdW  Elec       q    Type
REMARK                         _______ _______ _______ _____ _____    ______ ____
ROOT
ATOM      1  C   UNL     1      51.410   3.345  17.760  0.00  0.00    +0.000 A 
ATOM      2  C   UNL     1      50.756   2.212  17.258  0.00  0.00    +0.000 A 
ATOM      3  C   UNL     1      49.383   2.239  16.990  0.00  0.00    +0.000 A 
ATOM      4  C   UNL     1      48.639   3.408  17.198  0.00  0.00    +0.000 A 
ATOM      5  C   UNL     1      49.292   4.537  17.711  0.00  0.00    +0.000 A 
ATOM      6  C   UNL     1      50.665   4.511  17.978  0.00  0.00    +0.000 A 
ENDROOT
BRANCH   1   7
ATOM      7  C   UNL     1      52.890   3.316  18.038  0.00  0.00    +0.000 C 
BRANCH   7  10
ATOM      8  O   UNL     1      54.249   1.509  19.628  0.00  0.00    +0.000 OA
ATOM      9  C   UNL     1      54.148   1.244  18.432  0.00  0.00    +0.000 C 
ATOM     10  N   UNL     1      53.498   2.098  17.565  0.00  0.00    +0.000 N 
ATOM     11  H   UNL     1      53.412   1.840  16.591  0.00  0.00    +0.000 HD
BRANCH   9  12
ATOM     12  C   UNL     1      54.688   0.022  17.850  0.00  0.00    +0.000 A 
ATOM     13  C   UNL     1      54.710  -0.312  16.506  0.00  0.00    +0.000 A 
ATOM     14  C   UNL     1      55.317  -1.578  16.262  0.00  0.00    +0.000 A 
ATOM     15  C   UNL     1      55.730  -2.180  17.428  0.00  0.00    +0.000 A 
ATOM     16  S   UNL     1      55.395  -1.218  18.801  0.00  0.00    +0.000 S 
ENDBRANCH   9  12
ENDBRANCH   7  10
ENDBRANCH   1   7
BRANCH   4  17
ATOM     17  C   UNL     1      47.160   3.456  16.903  0.00  0.00    +0.000 C 
BRANCH  17  18
ATOM     18  N   UNL     1      46.846   4.459  15.917  0.00  0.00    +0.000 N 
ATOM     19  C   UNL     1      46.949   4.196  14.574  0.00  0.00    +0.000 C 
ATOM     20  O   UNL     1      47.273   3.090  14.148  0.00  0.00    +0.000 OA
ATOM     21  H   UNL     1      46.837   5.423  16.232  0.00  0.00    +0.000 HD
BRANCH  19  22
ATOM     22  C   UNL     1      46.587   5.290  13.664  0.00  0.00    +0.000 A 
ATOM     23  C   UNL     1      47.492   6.315  13.417  0.00  0.00    +0.000 A 
ATOM     24  S   UNL     1      46.928   7.468  12.293  0.00  0.00    +0.000 S 
ATOM     25  C   UNL     1      45.432   6.671  12.142  0.00  0.00    +0.000 A 
ATOM     26  N   UNL     1      44.453   7.166  11.337  0.00  0.00    +0.000 NA
ATOM     27  C   UNL     1      43.356   6.480  11.348  0.00  0.00    +0.000 A 
ATOM     28  N   UNL     1      43.157   5.340  12.083  0.00  0.00    +0.000 N 
ATOM     29  C   UNL     1      44.127   4.785  12.881  0.00  0.00    +0.000 A 
ATOM     30  O   UNL     1      43.933   3.736  13.487  0.00  0.00    +0.000 OA
ATOM     31  C   UNL     1      45.372   5.528  12.919  0.00  0.00    +0.000 A 
ATOM     32  H   UNL     1      42.280   4.842  12.040  0.00  0.00    +0.000 HD
ENDBRANCH  19  22
ENDBRANCH  17  18
ENDBRANCH   4  17
TORSDOF 6
ENDMDL
MODEL 4
REMARK VINA RESULT:    -6.926      3.791      5.204
REMARK INTER + INTRA:         -10.441
REMARK INTER:                  -9.400
REMARK INTRA:                  -1.041
REMARK UNBOUND:                -1.085
REMARK  Name = 
REMARK  6 active torsions:
REMARK  status: ('A' for Active; 'I' for Inactive)
REMARK    1  A    between atoms: C_2  and  C_25
REMARK    2  A    between atoms: N_3  and  C_4
REMARK    3  A    between atoms: C_4  and  C_5
REMARK    4  A    between atoms: C_8  and  C_9
REMARK    5  A    between atoms: C_9  and  N_10
REMARK    6  A    between atoms: C_11  and  C_13
REMARK                            x       y       z     vdW  Elec       q    Type
REMARK                         _______ _______ _______ _____ _____    ______ ____
ROOT
ATOM      1  C   UNL     1      44.779   5.030  11.857  0.00  0.00    +0.000 A 
ATOM      2  C   UNL     1      45.878   4.919  12.718  0.00  0.00    +0.000 A 
ATOM      3  C   UNL     1      46.478   6.059  13.264  0.00  0.00    +0.000 A 
ATOM      4  C   UNL     1      45.976   7.336  12.976  0.00  0.00    +0.000 A 
ATOM      5  C   UNL     1      44.883   7.446  12.104  0.00  0.00    +0.000 A 
ATOM      6  C   UNL     1      44.283   6.306  11.560  0.00  0.00    +0.000 A 
ENDROOT
BRANCH   1   7
ATOM      7  C   UNL     1      44.129   3.799  11.279  0.00  0.00    +0.000 C 
BRANCH   7  10
ATOM      8  O   UNL     1      44.158   4.256   8.553  0.00  0.00    +0.000 OA
ATOM      9  C   UNL     1      44.951   3.428   8.996  0.00  0.00    +0.000 C 
ATOM     10  N   UNL     1      44.994   3.130  10.342  0.00  0.00    +0.000 N 
ATOM     11  H   UNL     1      45.674   2.460  10.677  0.00  0.00    +0.000 HD
BRANCH   9  12
ATOM     12  C   UNL     1      45.901   2.718   8.147  0.00  0.00    +0.000 A 
ATOM     13  C   UNL     1      46.205   1.368   8.199  0.00  0.00    +0.000 A 
ATOM     14  C   UNL     1      47.171   0.982   7.225  0.00  0.00    +0.000 A 
ATOM     15  C   UNL     1      47.584   2.051   6.464  0.00  0.00    +0.000 A 
ATOM     16  S   UNL     1      46.805   3.503   6.919  0.00  0.00    +0.000 S 
ENDBRANCH   9  12
ENDBRANCH   7  10
ENDBRANCH   1   7
BRANCH   4  17
ATOM     17  C   UNL     1      46.604   8.574  13.566  0.00  0.00    +0.000 C 
BRANCH  17  18
ATOM     18  N   UNL     1      47.859   8.886  12.931  0.00  0.00    +0.000 N 
ATOM     19  C   UNL     1      47.935   9.801  11.910  0.00  0.00    +0.000 C 
ATOM     20  O   UNL     1      46.951  10.421  11.516  0.00  0.00    +0.000 OA
ATOM     21  H   UNL     1      48.612   8.217  13.050  0.00  0.00    +0.000 HD
BRANCH  19  22
ATOM     22  C   UNL     1      49.270  10.049  11.352  0.00  0.00    +0.000 A 
ATOM     23  C   UNL     1      49.620  11.325  10.932  0.00  0.00    +0.000 A 
ATOM     24  S   UNL     1      51.226  11.443  10.366  0.00  0.00    +0.000 S 
ATOM     25  C   UNL     1      51.491   9.780  10.609  0.00  0.00    +0.000 A 
ATOM     26  N   UNL     1      52.682   9.207  10.288  0.00  0.00    +0.000 NA
ATOM     27  C   UNL     1      52.731   7.930  10.489  0.00  0.00    +0.000 A 
ATOM     28  N   UNL     1      51.700   7.179  10.990  0.00  0.00    +0.000 N 
ATOM     29  C   UNL     1      50.492   7.719  11.360  0.00  0.00    +0.000 A 
ATOM     30  O   UNL     1      49.606   7.027  11.851  0.00  0.00    +0.000 OA
ATOM     31  C   UNL     1      50.379   9.148  11.136  0.00  0.00    +0.000 A 
ATOM     32  H   UNL     1      51.803   6.186  11.135  0.00  0.00    +0.000 HD
ENDBRANCH  19  22
ENDBRANCH  17  18
ENDBRANCH   4  17
TORSDOF 6
ENDMDL
MODEL 5
REMARK VINA RESULT:    -6.751      2.872      8.633
REMARK INTER + INTRA:         -10.204
REMARK INTER:                  -9.301
REMARK INTRA:                  -0.903
REMARK UNBOUND:                -1.085
REMARK  Name = 
REMARK  6 active torsions:
REMARK  status: ('A' for Active; 'I' for Inactive)
REMARK    1  A    between atoms: C_2  and  C_25
REMARK    2  A    between atoms: N_3  and  C_4
REMARK    3  A    between atoms: C_4  and  C_5
REMARK    4  A    between atoms: C_8  and  C_9
REMARK    5  A    between atoms: C_9  and  N_10
REMARK    6  A    between atoms: C_11  and  C_13
REMARK                            x       y       z     vdW  Elec       q    Type
REMARK                         _______ _______ _______ _____ _____    ______ ____
ROOT
ATOM      1  C   UNL     1      50.154   7.130  15.572  0.00  0.00    +0.000 A 
ATOM      2  C   UNL     1      50.585   7.903  14.487  0.00  0.00    +0.000 A 
ATOM      3  C   UNL     1      49.787   8.044  13.345  0.00  0.00    +0.000 A 
ATOM      4  C   UNL     1      48.528   7.431  13.276  0.00  0.00    +0.000 A 
ATOM      5  C   UNL     1      48.103   6.648  14.359  0.00  0.00    +0.000 A 
ATOM      6  C   UNL     1      48.901   6.508  15.499  0.00  0.00    +0.000 A 
ENDROOT
BRANCH   1   7
ATOM      7  C   UNL     1      51.011   6.989  16.803  0.00  0.00    +0.000 C 
BRANCH   7  10
ATOM      8  O   UNL     1      50.019   5.033  18.485  0.00  0.00    +0.000 OA
ATOM      9  C   UNL     1      50.986   4.739  17.784  0.00  0.00    +0.000 C 
ATOM     10  N   UNL     1      51.551   5.659  16.927  0.00  0.00    +0.000 N 
ATOM     11  H   UNL     1      52.331   5.379  16.348  0.00  0.00    +0.000 HD
BRANCH   9  12
ATOM     12  C   UNL     1      51.590   3.412  17.797  0.00  0.00    +0.000 A 
ATOM     13  C   UNL     1      50.994   2.230  17.388  0.00  0.00    +0.000 A 
ATOM     14  C   UNL     1      51.857   1.104  17.518  0.00  0.00    +0.000 A 
ATOM     15  C   UNL     1      53.083   1.456  18.033  0.00  0.00    +0.000 A 
ATOM     16  S   UNL     1      53.190   3.133  18.346  0.00  0.00    +0.000 S 
ENDBRANCH   9  12
ENDBRANCH   7  10
ENDBRANCH   1   7
BRANCH   4  17
ATOM     17  C   UNL     1      47.652   7.583  12.058  0.00  0.00    +0.000 C 
BRANCH  17  18
ATOM     18  N   UNL     1      46.930   6.371  11.769  0.00  0.00    +0.000 N 
ATOM     19  C   UNL     1      45.558   6.350  11.725  0.00  0.00    +0.000 C 
ATOM     20  O   UNL     1      44.884   7.363  11.892  0.00  0.00    +0.000 OA
ATOM     21  H   UNL     1      47.433   5.498  11.890  0.00  0.00    +0.000 HD
BRANCH  19  22
ATOM     22  C   UNL     1      44.934   5.060  11.404  0.00  0.00    +0.000 A 
ATOM     23  C   UNL     1      44.173   4.400  12.360  0.00  0.00    +0.000 A 
ATOM     24  S   UNL     1      43.477   2.947  11.798  0.00  0.00    +0.000 S 
ATOM     25  C   UNL     1      44.215   3.120  10.274  0.00  0.00    +0.000 A 
ATOM     26  N   UNL     1      44.051   2.178   9.306  0.00  0.00    +0.000 NA
ATOM     27  C   UNL     1      44.699   2.418   8.213  0.00  0.00    +0.000 A 
ATOM     28  N   UNL     1      45.487   3.519   8.000  0.00  0.00    +0.000 N 
ATOM     29  C   UNL     1      45.655   4.512   8.934  0.00  0.00    +0.000 A 
ATOM     30  O   UNL     1      46.328   5.509   8.693  0.00  0.00    +0.000 OA
ATOM     31  C   UNL     1      44.962   4.281  10.188  0.00  0.00    +0.000 A 
ATOM     32  H   UNL     1      45.960   3.656   7.119  0.00  0.00    +0.000 HD
ENDBRANCH  19  22
ENDBRANCH  17  18
ENDBRANCH   4  17
TORSDOF 6
ENDMDL
MODEL 6
REMARK VINA RESULT:    -6.698      2.213      2.599
REMARK INTER + INTRA:         -10.133
REMARK INTER:                  -9.214
REMARK INTRA:                  -0.919
REMARK UNBOUND:                -1.085
REMARK  Name = 
REMARK  6 active torsions:
REMARK  status: ('A' for Active; 'I' for Inactive)
REMARK    1  A    between atoms: C_2  and  C_25
REMARK    2  A    between atoms: N_3  and  C_4
REMARK    3  A    between atoms: C_4  and  C_5
REMARK    4  A    between atoms: C_8  and  C_9
REMARK    5  A    between atoms: C_9  and  N_10
REMARK    6  A    between atoms: C_11  and  C_13
REMARK                            x       y       z     vdW  Elec       q    Type
REMARK                         _______ _______ _______ _____ _____    ______ ____
ROOT
ATOM      1  C   UNL     1      45.337   4.869  11.893  0.00  0.00    +0.000 A 
ATOM      2  C   UNL     1      45.810   6.051  11.309  0.00  0.00    +0.000 A 
ATOM      3  C   UNL     1      46.669   6.903  12.012  0.00  0.00    +0.000 A 
ATOM      4  C   UNL     1      47.090   6.578  13.309  0.00  0.00    +0.000 A 
ATOM      5  C   UNL     1      46.607   5.401  13.896  0.00  0.00    +0.000 A 
ATOM      6  C   UNL     1      45.749   4.549  13.193  0.00  0.00    +0.000 A 
ENDROOT
BRANCH   1   7
ATOM      7  C   UNL     1      44.421   3.948  11.129  0.00  0.00    +0.000 C 
BRANCH   7  10
ATOM      8  O   UNL     1      44.589   4.475   8.420  0.00  0.00    +0.000 OA
ATOM      9  C   UNL     1      45.188   3.487   8.842  0.00  0.00    +0.000 C 
ATOM     10  N   UNL     1      45.146   3.145  10.177  0.00  0.00    +0.000 N 
ATOM     11  H   UNL     1      45.668   2.339  10.496  0.00  0.00    +0.000 HD
BRANCH   9  12
ATOM     12  C   UNL     1      45.986   2.625   7.979  0.00  0.00    +0.000 A 
ATOM     13  C   UNL     1      46.211   1.269   8.149  0.00  0.00    +0.000 A 
ATOM     14  C   UNL     1      47.029   0.713   7.124  0.00  0.00    +0.000 A 
ATOM     15  C   UNL     1      47.415   1.662   6.207  0.00  0.00    +0.000 A 
ATOM     16  S   UNL     1      46.786   3.208   6.579  0.00  0.00    +0.000 S 
ENDBRANCH   9  12
ENDBRANCH   7  10
ENDBRANCH   1   7
BRANCH   4  17
ATOM     17  C   UNL     1      48.025   7.481  14.075  0.00  0.00    +0.000 C 
BRANCH  17  18
ATOM     18  N   UNL     1      48.294   6.970  15.395  0.00  0.00    +0.000 N 
ATOM     19  C   UNL     1      48.604   7.808  16.436  0.00  0.00    +0.000 C 
ATOM     20  O   UNL     1      48.630   9.030  16.305  0.00  0.00    +0.000 OA
ATOM     21  H   UNL     1      48.536   5.987  15.464  0.00  0.00    +0.000 HD
BRANCH  19  22
ATOM     22  C   UNL     1      48.843   7.173  17.739  0.00  0.00    +0.000 A 
ATOM     23  C   UNL     1      47.997   7.442  18.807  0.00  0.00    +0.000 A 
ATOM     24  S   UNL     1      48.388   6.575  20.223  0.00  0.00    +0.000 S 
ATOM     25  C   UNL     1      49.736   5.855  19.476  0.00  0.00    +0.000 A 
ATOM     26  N   UNL     1      50.547   5.005  20.163  0.00  0.00    +0.000 NA
ATOM     27  C   UNL     1      51.554   4.562  19.483  0.00  0.00    +0.000 A 
ATOM     28  N   UNL     1      51.817   4.886  18.178  0.00  0.00    +0.000 N 
ATOM     29  C   UNL     1      51.009   5.712  17.435  0.00  0.00    +0.000 A 
ATOM     30  O   UNL     1      51.245   5.943  16.253  0.00  0.00    +0.000 OA
ATOM     31  C   UNL     1      49.873   6.251  18.158  0.00  0.00    +0.000 A 
ATOM     32  H   UNL     1      52.615   4.499  17.697  0.00  0.00    +0.000 HD
ENDBRANCH  19  22
ENDBRANCH  17  18
ENDBRANCH   4  17
TORSDOF 6
ENDMDL
MODEL 7
REMARK VINA RESULT:    -6.527      4.506      7.372
REMARK INTER + INTRA:          -9.901
REMARK INTER:                  -9.018
REMARK INTRA:                  -0.884
REMARK UNBOUND:                -1.085
REMARK  Name = 
REMARK  6 active torsions:
REMARK  status: ('A' for Active; 'I' for Inactive)
REMARK    1  A    between atoms: C_2  and  C_25
REMARK    2  A    between atoms: N_3  and  C_4
REMARK    3  A    between atoms: C_4  and  C_5
REMARK    4  A    between atoms: C_8  and  C_9
REMARK    5  A    between atoms: C_9  and  N_10
REMARK    6  A    between atoms: C_11  and  C_13
REMARK                            x       y       z     vdW  Elec       q    Type
REMARK                         _______ _______ _______ _____ _____    ______ ____
ROOT
ATOM      1  C   UNL     1      50.345   8.907  11.452  0.00  0.00    +0.000 A 
ATOM      2  C   UNL     1      49.959   7.611  11.818  0.00  0.00    +0.000 A 
ATOM      3  C   UNL     1      48.670   7.358  12.300  0.00  0.00    +0.000 A 
ATOM      4  C   UNL     1      47.732   8.394  12.404  0.00  0.00    +0.000 A 
ATOM      5  C   UNL     1      48.123   9.692  12.048  0.00  0.00    +0.000 A 
ATOM      6  C   UNL     1      49.412   9.945  11.566  0.00  0.00    +0.000 A 
ENDROOT
BRANCH   1   7
ATOM      7  C   UNL     1      51.731   9.174  10.924  0.00  0.00    +0.000 C 
BRANCH   7  10
ATOM      8  O   UNL     1      53.993   7.588  11.013  0.00  0.00    +0.000 OA
ATOM      9  C   UNL     1      53.251   7.460  10.041  0.00  0.00    +0.000 C 
ATOM     10  N   UNL     1      52.108   8.221   9.911  0.00  0.00    +0.000 N 
ATOM     11  H   UNL     1      51.507   8.075   9.112  0.00  0.00    +0.000 HD
BRANCH   9  12
ATOM     12  C   UNL     1      53.511   6.499   8.976  0.00  0.00    +0.000 A 
ATOM     13  C   UNL     1      54.402   5.440   9.020  0.00  0.00    +0.000 A 
ATOM     14  C   UNL     1      54.416   4.680   7.815  0.00  0.00    +0.000 A 
ATOM     15  C   UNL     1      53.542   5.186   6.882  0.00  0.00    +0.000 A 
ATOM     16  S   UNL     1      52.709   6.562   7.462  0.00  0.00    +0.000 S 
ENDBRANCH   9  12
ENDBRANCH   7  10
ENDBRANCH   1   7
BRANCH   4  17
ATOM     17  C   UNL     1      46.334   8.134  12.911  0.00  0.00    +0.000 C 
BRANCH  17  18
ATOM     18  N   UNL     1      45.895   6.799  12.598  0.00  0.00    +0.000 N 
ATOM     19  C   UNL     1      44.869   6.573  11.714  0.00  0.00    +0.000 C 
ATOM     20  O   UNL     1      44.304   7.490  11.123  0.00  0.00    +0.000 OA
ATOM     21  H   UNL     1      46.154   6.066  13.250  0.00  0.00    +0.000 HD
BRANCH  19  22
ATOM     22  C   UNL     1      44.520   5.170  11.461  0.00  0.00    +0.000 A 
ATOM     23  C   UNL     1      43.792   4.455  12.403  0.00  0.00    +0.000 A 
ATOM     24  S   UNL     1      43.428   2.860  11.919  0.00  0.00    +0.000 S 
ATOM     25  C   UNL     1      44.281   3.050  10.459  0.00  0.00    +0.000 A 
ATOM     26  N   UNL     1      44.389   2.023   9.573  0.00  0.00    +0.000 NA
ATOM     27  C   UNL     1      45.096   2.295   8.524  0.00  0.00    +0.000 A 
ATOM     28  N   UNL     1      45.695   3.504   8.281  0.00  0.00    +0.000 N 
ATOM     29  C   UNL     1      45.584   4.579   9.129  0.00  0.00    +0.000 A 
ATOM     30  O   UNL     1      46.092   5.662   8.857  0.00  0.00    +0.000 OA
ATOM     31  C   UNL     1      44.815   4.319  10.331  0.00  0.00    +0.000 A 
ATOM     32  H   UNL     1      46.227   3.659   7.437  0.00  0.00    +0.000 HD
ENDBRANCH  19  22
ENDBRANCH  17  18
ENDBRANCH   4  17
TORSDOF 6
ENDMDL
MODEL 8
REMARK VINA RESULT:    -6.497      2.371      3.182
REMARK INTER + INTRA:          -9.861
REMARK INTER:                  -9.001
REMARK INTRA:                  -0.860
REMARK UNBOUND:                -1.085
REMARK  Name = 
REMARK  6 active torsions:
REMARK  status: ('A' for Active; 'I' for Inactive)
REMARK    1  A    between atoms: C_2  and  C_25
REMARK    2  A    between atoms: N_3  and  C_4
REMARK    3  A    between atoms: C_4  and  C_5
REMARK    4  A    between atoms: C_8  and  C_9
REMARK    5  A    between atoms: C_9  and  N_10
REMARK    6  A    between atoms: C_11  and  C_13
REMARK                            x       y       z     vdW  Elec       q    Type
REMARK                         _______ _______ _______ _____ _____    ______ ____
ROOT
ATOM      1  C   UNL     1      45.393   4.771  11.873  0.00  0.00    +0.000 A 
ATOM      2  C   UNL     1      45.920   5.931  11.290  0.00  0.00    +0.000 A 
ATOM      3  C   UNL     1      46.733   6.798  12.029  0.00  0.00    +0.000 A 
ATOM      4  C   UNL     1      47.056   6.509  13.362  0.00  0.00    +0.000 A 
ATOM      5  C   UNL     1      46.518   5.354  13.948  0.00  0.00    +0.000 A 
ATOM      6  C   UNL     1      45.706   4.487  13.208  0.00  0.00    +0.000 A 
ENDROOT
BRANCH   1   7
ATOM      7  C   UNL     1      44.526   3.835  11.071  0.00  0.00    +0.000 C 
BRANCH   7  10
ATOM      8  O   UNL     1      44.388   4.503   8.392  0.00  0.00    +0.000 OA
ATOM      9  C   UNL     1      45.151   3.592   8.709  0.00  0.00    +0.000 C 
ATOM     10  N   UNL     1      45.271   3.187  10.022  0.00  0.00    +0.000 N 
ATOM     11  H   UNL     1      45.924   2.450  10.253  0.00  0.00    +0.000 HD
BRANCH   9  12
ATOM     12  C   UNL     1      45.983   2.891   7.739  0.00  0.00    +0.000 A 
ATOM     13  C   UNL     1      46.524   3.422   6.580  0.00  0.00    +0.000 A 
ATOM     14  C   UNL     1      47.300   2.477   5.849  0.00  0.00    +0.000 A 
ATOM     15  C   UNL     1      47.320   1.247   6.466  0.00  0.00    +0.000 A 
ATOM     16  S   UNL     1      46.416   1.241   7.917  0.00  0.00    +0.000 S 
ENDBRANCH   9  12
ENDBRANCH   7  10
ENDBRANCH   1   7
BRANCH   4  17
ATOM     17  C   UNL     1      47.941   7.427  14.168  0.00  0.00    +0.000 C 
BRANCH  17  18
ATOM     18  N   UNL     1      48.939   6.693  14.903  0.00  0.00    +0.000 N 
ATOM     19  C   UNL     1      49.178   6.947  16.231  0.00  0.00    +0.000 C 
ATOM     20  O   UNL     1      48.533   7.780  16.863  0.00  0.00    +0.000 OA
ATOM     21  H   UNL     1      49.644   6.208  14.359  0.00  0.00    +0.000 HD
BRANCH  19  22
ATOM     22  C   UNL     1      50.207   6.124  16.879  0.00  0.00    +0.000 A 
ATOM     23  C   UNL     1      49.843   5.179  17.828  0.00  0.00    +0.000 A 
ATOM     24  S   UNL     1      51.158   4.275  18.433  0.00  0.00    +0.000 S 
ATOM     25  C   UNL     1      52.267   5.156  17.490  0.00  0.00    +0.000 A 
ATOM     26  N   UNL     1      53.602   4.902  17.560  0.00  0.00    +0.000 NA
ATOM     27  C   UNL     1      54.331   5.671  16.818  0.00  0.00    +0.000 A 
ATOM     28  N   UNL     1      53.843   6.664  16.009  0.00  0.00    +0.000 N 
ATOM     29  C   UNL     1      52.503   6.934  15.881  0.00  0.00    +0.000 A 
ATOM     30  O   UNL     1      52.095   7.797  15.109  0.00  0.00    +0.000 OA
ATOM     31  C   UNL     1      51.642   6.109  16.707  0.00  0.00    +0.000 A 
ATOM     32  H   UNL     1      54.464   7.225  15.444  0.00  0.00    +0.000 HD
ENDBRANCH  19  22
ENDBRANCH  17  18
ENDBRANCH   4  17
TORSDOF 6
ENDMDL
MODEL 9
REMARK VINA RESULT:    -6.494      4.754      9.699
REMARK INTER + INTRA:          -9.857
REMARK INTER:                  -8.816
REMARK INTRA:                  -1.041
REMARK UNBOUND:                -1.085
REMARK  Name = 
REMARK  6 active torsions:
REMARK  status: ('A' for Active; 'I' for Inactive)
REMARK    1  A    between atoms: C_2  and  C_25
REMARK    2  A    between atoms: N_3  and  C_4
REMARK    3  A    between atoms: C_4  and  C_5
REMARK    4  A    between atoms: C_8  and  C_9
REMARK    5  A    between atoms: C_9  and  N_10
REMARK    6  A    between atoms: C_11  and  C_13
REMARK                            x       y       z     vdW  Elec       q    Type
REMARK                         _______ _______ _______ _____ _____    ______ ____
ROOT
ATOM      1  C   UNL     1      51.506   2.776  17.714  0.00  0.00    +0.000 A 
ATOM      2  C   UNL     1      50.668   1.821  17.124  0.00  0.00    +0.000 A 
ATOM      3  C   UNL     1      49.318   2.103  16.883  0.00  0.00    +0.000 A 
ATOM      4  C   UNL     1      48.784   3.358  17.208  0.00  0.00    +0.000 A 
ATOM      5  C   UNL     1      49.621   4.309  17.810  0.00  0.00    +0.000 A 
ATOM      6  C   UNL     1      50.970   4.026  18.049  0.00  0.00    +0.000 A 
ENDROOT
BRANCH   1   7
ATOM      7  C   UNL     1      52.960   2.472  17.962  0.00  0.00    +0.000 C 
BRANCH   7  10
ATOM      8  O   UNL     1      54.972   0.713  17.253  0.00  0.00    +0.000 OA
ATOM      9  C   UNL     1      54.183   0.348  18.122  0.00  0.00    +0.000 C 
ATOM     10  N   UNL     1      53.142   1.158  18.526  0.00  0.00    +0.000 N 
ATOM     11  H   UNL     1      52.524   0.838  19.259  0.00  0.00    +0.000 HD
BRANCH   9  12
ATOM     12  C   UNL     1      54.293  -0.943  18.791  0.00  0.00    +0.000 A 
ATOM     13  C   UNL     1      53.268  -1.848  19.010  0.00  0.00    +0.000 A 
ATOM     14  C   UNL     1      53.705  -3.024  19.685  0.00  0.00    +0.000 A 
ATOM     15  C   UNL     1      55.050  -2.978  19.972  0.00  0.00    +0.000 A 
ATOM     16  S   UNL     1      55.775  -1.530  19.421  0.00  0.00    +0.000 S 
ENDBRANCH   9  12
ENDBRANCH   7  10
ENDBRANCH   1   7
BRANCH   4  17
ATOM     17  C   UNL     1      47.334   3.681  16.945  0.00  0.00    +0.000 C 
BRANCH  17  18
ATOM     18  N   UNL     1      47.189   4.639  15.879  0.00  0.00    +0.000 N 
ATOM     19  C   UNL     1      47.175   4.247  14.563  0.00  0.00    +0.000 C 
ATOM     20  O   UNL     1      47.247   3.065  14.234  0.00  0.00    +0.000 OA
ATOM     21  H   UNL     1      47.392   5.608  16.102  0.00  0.00    +0.000 HD
BRANCH  19  22
ATOM     22  C   UNL     1      47.005   5.310  13.565  0.00  0.00    +0.000 A 
ATOM     23  C   UNL     1      45.979   5.229  12.633  0.00  0.00    +0.000 A 
ATOM     24  S   UNL     1      45.894   6.577  11.590  0.00  0.00    +0.000 S 
ATOM     25  C   UNL     1      47.262   7.289  12.310  0.00  0.00    +0.000 A 
ATOM     26  N   UNL     1      47.754   8.473  11.857  0.00  0.00    +0.000 NA
ATOM     27  C   UNL     1      48.819   8.878  12.471  0.00  0.00    +0.000 A 
ATOM     28  N   UNL     1      49.426   8.209  13.502  0.00  0.00    +0.000 N 
ATOM     29  C   UNL     1      48.945   7.029  14.014  0.00  0.00    +0.000 A 
ATOM     30  O   UNL     1      49.484   6.481  14.970  0.00  0.00    +0.000 OA
ATOM     31  C   UNL     1      47.761   6.521  13.347  0.00  0.00    +0.000 A 
ATOM     32  H   UNL     1      50.250   8.583  13.949  0.00  0.00    +0.000 HD
ENDBRANCH  19  22
ENDBRANCH  17  18
ENDBRANCH   4  17
TORSDOF 6
ENDMDL
