MODEL 1
REMARK VINA RESULT:    -8.369      0.000      0.000
REMARK INTER + INTRA:         -11.641
REMARK INTER:                 -10.815
REMARK INTRA:                  -0.826
REMARK UNBOUND:                -0.826
REMARK  Name = 
REMARK  6 active torsions:
REMARK  status: ('A' for Active; 'I' for Inactive)
REMARK    1  A    between atoms: C_1  and  C_2
REMARK    2  A    between atoms: C_2  and  C_3
REMARK    3  A    between atoms: C_2  and  C_15
REMARK    4  A    between atoms: C_3  and  N_4
REMARK    5  A    between atoms: C_8  and  C_9
REMARK    6  A    between atoms: C_19  and  C_20
REMARK                            x       y       z     vdW  Elec       q    Type
REMARK                         _______ _______ _______ _____ _____    ______ ____
ROOT
ATOM      1  N   UNL     1      44.461   3.013  10.704  0.00  0.00    +0.000 N 
ATOM      2  C   UNL     1      45.156   2.932   9.515  0.00  0.00    +0.000 A 
ATOM      3  N   UNL     1      45.451   4.033   8.815  0.00  0.00    +0.000 NA
ATOM      4  C   UNL     1      46.199   3.873   7.698  0.00  0.00    +0.000 A 
ATOM      5  C   UNL     1      46.675   2.659   7.262  0.00  0.00    +0.000 A 
ATOM      6  C   UNL     1      46.275   1.598   8.035  0.00  0.00    +0.000 A 
ATOM      7 CL   UNL     1      46.636  -0.051   7.680  0.00  0.00    +0.000 Cl
ATOM      8  N   UNL     1      45.525   1.704   9.153  0.00  0.00    +0.000 NA
ATOM      9  H   UNL     1      44.070   2.097  10.892  0.00  0.00    +0.000 HD
ENDROOT
BRANCH   5  10
ATOM     10  C   UNL     1      47.520   2.624   6.060  0.00  0.00    +0.000 C 
ATOM     11  N   UNL     1      48.850   2.351   6.197  0.00  0.00    +0.000 N 
ATOM     12  O   UNL     1      47.044   2.879   4.961  0.00  0.00    +0.000 OA
ATOM     13  H   UNL     1      49.300   2.125   7.074  0.00  0.00    +0.000 HD
ATOM     14  H   UNL     1      49.416   2.335   5.357  0.00  0.00    +0.000 HD
ENDBRANCH   5  10
BRANCH   1  15
ATOM     15  C   UNL     1      43.533   4.114  10.833  0.00  0.00    +0.000 C 
BRANCH  15  17
ATOM     16  C   UNL     1      42.623   5.285  12.937  0.00  0.00    +0.000 C 
ATOM     17  C   UNL     1      43.786   4.725  12.178  0.00  0.00    +0.000 C 
BRANCH  17  18
ATOM     18  C   UNL     1      45.149   5.045  12.617  0.00  0.00    +0.000 A 
ATOM     19  C   UNL     1      45.919   5.966  11.896  0.00  0.00    +0.000 A 
ATOM     20  C   UNL     1      47.194   6.329  12.329  0.00  0.00    +0.000 A 
ATOM     21  C   UNL     1      47.704   5.793  13.509  0.00  0.00    +0.000 A 
ATOM     22  C   UNL     1      46.952   4.875  14.256  0.00  0.00    +0.000 A 
ATOM     23  C   UNL     1      45.682   4.487  13.785  0.00  0.00    +0.000 A 
BRANCH  22  24
ATOM     24  C   UNL     1      47.469   4.334  15.565  0.00  0.00    +0.000 C 
ATOM     25  F   UNL     1      48.549   5.011  16.047  0.00  0.00    +0.000 F 
ATOM     26  F   UNL     1      46.531   4.384  16.553  0.00  0.00    +0.000 F 
ATOM     27  F   UNL     1      47.853   3.030  15.480  0.00  0.00    +0.000 F 
ENDBRANCH  22  24
ENDBRANCH  17  18
ENDBRANCH  15  17
ENDBRANCH   1  15
TORSDOF 5
ENDMDL
MODEL 2
REMARK VINA RESULT:    -8.110      2.391      3.066
REMARK INTER + INTRA:         -11.307
REMARK INTER:                 -10.618
REMARK INTRA:                  -0.689
REMARK UNBOUND:                -0.826
REMARK  Name = 
REMARK  6 active torsions:
REMARK  status: ('A' for Active; 'I' for Inactive)
REMARK    1  A    between atoms: C_1  and  C_2
REMARK    2  A    between atoms: C_2  and  C_3
REMARK    3  A    between atoms: C_2  and  C_15
REMARK    4  A    between atoms: C_3  and  N_4
REMARK    5  A    between atoms: C_8  and  C_9
REMARK    6  A    between atoms: C_19  and  C_20
REMARK                            x       y       z     vdW  Elec       q    Type
REMARK                         _______ _______ _______ _____ _____    ______ ____
ROOT
ATOM      1  N   UNL     1      43.615   4.786   9.513  0.00  0.00    +0.000 N 
ATOM      2  C   UNL     1      44.508   3.841   9.053  0.00  0.00    +0.000 A 
ATOM      3  N   UNL     1      44.583   2.631   9.619  0.00  0.00    +0.000 NA
ATOM      4  C   UNL     1      45.432   1.738   9.060  0.00  0.00    +0.000 A 
ATOM      5  C   UNL     1      46.200   2.002   7.950  0.00  0.00    +0.000 A 
ATOM      6  C   UNL     1      46.073   3.286   7.482  0.00  0.00    +0.000 A 
ATOM      7 CL   UNL     1      46.981   3.932   6.166  0.00  0.00    +0.000 Cl
ATOM      8  N   UNL     1      45.245   4.214   8.007  0.00  0.00    +0.000 NA
ATOM      9  H   UNL     1      43.934   5.691   9.189  0.00  0.00    +0.000 HD
ENDROOT
BRANCH   5  10
ATOM     10  C   UNL     1      47.048   0.931   7.409  0.00  0.00    +0.000 C 
ATOM     11  N   UNL     1      46.677  -0.367   7.608  0.00  0.00    +0.000 N 
ATOM     12  O   UNL     1      48.091   1.201   6.829  0.00  0.00    +0.000 OA
ATOM     13  H   UNL     1      45.824  -0.654   8.072  0.00  0.00    +0.000 HD
ATOM     14  H   UNL     1      47.276  -1.092   7.230  0.00  0.00    +0.000 HD
ENDBRANCH   5  10
BRANCH   1  15
ATOM     15  C   UNL     1      43.278   4.722  10.918  0.00  0.00    +0.000 C 
BRANCH  15  17
ATOM     16  C   UNL     1      43.390   7.281  11.172  0.00  0.00    +0.000 C 
ATOM     17  C   UNL     1      43.900   5.927  11.557  0.00  0.00    +0.000 C 
BRANCH  17  18
ATOM     18  C   UNL     1      45.162   5.821  12.299  0.00  0.00    +0.000 A 
ATOM     19  C   UNL     1      45.336   4.799  13.241  0.00  0.00    +0.000 A 
ATOM     20  C   UNL     1      46.547   4.644  13.913  0.00  0.00    +0.000 A 
ATOM     21  C   UNL     1      47.612   5.496  13.631  0.00  0.00    +0.000 A 
ATOM     22  C   UNL     1      47.468   6.522  12.686  0.00  0.00    +0.000 A 
ATOM     23  C   UNL     1      46.227   6.692  12.043  0.00  0.00    +0.000 A 
BRANCH  22  24
ATOM     24  C   UNL     1      48.632   7.413  12.327  0.00  0.00    +0.000 C 
ATOM     25  F   UNL     1      48.534   8.671  12.843  0.00  0.00    +0.000 F 
ATOM     26  F   UNL     1      49.820   6.921  12.778  0.00  0.00    +0.000 F 
ATOM     27  F   UNL     1      48.778   7.570  10.982  0.00  0.00    +0.000 F 
ENDBRANCH  22  24
ENDBRANCH  17  18
ENDBRANCH  15  17
ENDBRANCH   1  15
TORSDOF 5
ENDMDL
MODEL 3
REMARK VINA RESULT:    -8.090      1.594      2.066
REMARK INTER + INTRA:         -11.280
REMARK INTER:                 -10.636
REMARK INTRA:                  -0.644
REMARK UNBOUND:                -0.826
REMARK  Name = 
REMARK  6 active torsions:
REMARK  status: ('A' for Active; 'I' for Inactive)
REMARK    1  A    between atoms: C_1  and  C_2
REMARK    2  A    between atoms: C_2  and  C_3
REMARK    3  A    between atoms: C_2  and  C_15
REMARK    4  A    between atoms: C_3  and  N_4
REMARK    5  A    between atoms: C_8  and  C_9
REMARK    6  A    between atoms: C_19  and  C_20
REMARK                            x       y       z     vdW  Elec       q    Type
REMARK                         _______ _______ _______ _____ _____    ______ ____
ROOT
ATOM      1  N   UNL     1      43.723   4.802   9.578  0.00  0.00    +0.000 N 
ATOM      2  C   UNL     1      44.589   3.846   9.087  0.00  0.00    +0.000 A 
ATOM      3  N   UNL     1      44.702   2.652   9.677  0.00  0.00    +0.000 NA
ATOM      4  C   UNL     1      45.517   1.745   9.089  0.00  0.00    +0.000 A 
ATOM      5  C   UNL     1      46.212   1.982   7.927  0.00  0.00    +0.000 A 
ATOM      6  C   UNL     1      46.052   3.252   7.435  0.00  0.00    +0.000 A 
ATOM      7 CL   UNL     1      46.874   3.866   6.048  0.00  0.00    +0.000 Cl
ATOM      8  N   UNL     1      45.257   4.193   7.986  0.00  0.00    +0.000 NA
ATOM      9  H   UNL     1      44.019   5.699   9.211  0.00  0.00    +0.000 HD
ENDROOT
BRANCH   5  10
ATOM     10  C   UNL     1      47.027   0.898   7.360  0.00  0.00    +0.000 C 
ATOM     11  N   UNL     1      46.691  -0.395   7.641  0.00  0.00    +0.000 N 
ATOM     12  O   UNL     1      48.016   1.154   6.685  0.00  0.00    +0.000 OA
ATOM     13  H   UNL     1      45.884  -0.671   8.185  0.00  0.00    +0.000 HD
ATOM     14  H   UNL     1      47.267  -1.128   7.244  0.00  0.00    +0.000 HD
ENDBRANCH   5  10
BRANCH   1  15
ATOM     15  C   UNL     1      43.476   4.774  11.002  0.00  0.00    +0.000 C 
BRANCH  15  17
ATOM     16  C   UNL     1      43.472   7.337  11.243  0.00  0.00    +0.000 C 
ATOM     17  C   UNL     1      44.099   6.016  11.564  0.00  0.00    +0.000 C 
BRANCH  17  18
ATOM     18  C   UNL     1      45.444   5.986  12.153  0.00  0.00    +0.000 A 
ATOM     19  C   UNL     1      46.443   6.835  11.663  0.00  0.00    +0.000 A 
ATOM     20  C   UNL     1      47.708   6.865  12.248  0.00  0.00    +0.000 A 
ATOM     21  C   UNL     1      47.981   6.060  13.351  0.00  0.00    +0.000 A 
ATOM     22  C   UNL     1      46.997   5.207  13.868  0.00  0.00    +0.000 A 
ATOM     23  C   UNL     1      45.736   5.158  13.243  0.00  0.00    +0.000 A 
BRANCH  22  24
ATOM     24  C   UNL     1      47.262   4.375  15.099  0.00  0.00    +0.000 C 
ATOM     25  F   UNL     1      46.214   4.342  15.970  0.00  0.00    +0.000 F 
ATOM     26  F   UNL     1      47.533   3.074  14.798  0.00  0.00    +0.000 F 
ATOM     27  F   UNL     1      48.329   4.824  15.816  0.00  0.00    +0.000 F 
ENDBRANCH  22  24
ENDBRANCH  17  18
ENDBRANCH  15  17
ENDBRANCH   1  15
TORSDOF 5
ENDMDL
MODEL 4
REMARK VINA RESULT:    -7.969      1.509      2.140
REMARK INTER + INTRA:         -11.124
REMARK INTER:                 -10.309
REMARK INTRA:                  -0.815
REMARK UNBOUND:                -0.826
REMARK  Name = 
REMARK  6 active torsions:
REMARK  status: ('A' for Active; 'I' for Inactive)
REMARK    1  A    between atoms: C_1  and  C_2
REMARK    2  A    between atoms: C_2  and  C_3
REMARK    3  A    between atoms: C_2  and  C_15
REMARK    4  A    between atoms: C_3  and  N_4
REMARK    5  A    between atoms: C_8  and  C_9
REMARK    6  A    between atoms: C_19  and  C_20
REMARK                            x       y       z     vdW  Elec       q    Type
REMARK                         _______ _______ _______ _____ _____    ______ ____
ROOT
ATOM      1  N   UNL     1      44.385   3.204  10.663  0.00  0.00    +0.000 N 
ATOM      2  C   UNL     1      45.088   3.077   9.483  0.00  0.00    +0.000 A 
ATOM      3  N   UNL     1      45.403   4.151   8.752  0.00  0.00    +0.000 NA
ATOM      4  C   UNL     1      46.158   3.948   7.647  0.00  0.00    +0.000 A 
ATOM      5  C   UNL     1      46.621   2.714   7.253  0.00  0.00    +0.000 A 
ATOM      6  C   UNL     1      46.201   1.684   8.055  0.00  0.00    +0.000 A 
ATOM      7 CL   UNL     1      46.544   0.020   7.754  0.00  0.00    +0.000 Cl
ATOM      8  N   UNL     1      45.444   1.833   9.162  0.00  0.00    +0.000 NA
ATOM      9  H   UNL     1      43.980   2.300  10.876  0.00  0.00    +0.000 HD
ENDROOT
BRANCH   5  10
ATOM     10  C   UNL     1      47.475   2.631   6.059  0.00  0.00    +0.000 C 
ATOM     11  N   UNL     1      48.794   2.318   6.213  0.00  0.00    +0.000 N 
ATOM     12  O   UNL     1      47.017   2.883   4.952  0.00  0.00    +0.000 OA
ATOM     13  H   UNL     1      49.229   2.092   7.099  0.00  0.00    +0.000 HD
ATOM     14  H   UNL     1      49.367   2.269   5.379  0.00  0.00    +0.000 HD
ENDBRANCH   5  10
BRANCH   1  15
ATOM     15  C   UNL     1      43.470   4.319  10.750  0.00  0.00    +0.000 C 
BRANCH  15  17
ATOM     16  C   UNL     1      42.925   4.815  13.217  0.00  0.00    +0.000 C 
ATOM     17  C   UNL     1      43.800   5.039  12.023  0.00  0.00    +0.000 C 
BRANCH  17  18
ATOM     18  C   UNL     1      44.754   6.155  12.033  0.00  0.00    +0.000 A 
ATOM     19  C   UNL     1      44.372   7.408  11.538  0.00  0.00    +0.000 A 
ATOM     20  C   UNL     1      45.243   8.495  11.594  0.00  0.00    +0.000 A 
ATOM     21  C   UNL     1      46.501   8.348  12.172  0.00  0.00    +0.000 A 
ATOM     22  C   UNL     1      46.907   7.107  12.683  0.00  0.00    +0.000 A 
ATOM     23  C   UNL     1      46.033   6.007  12.585  0.00  0.00    +0.000 A 
BRANCH  22  24
ATOM     24  C   UNL     1      48.243   6.950  13.366  0.00  0.00    +0.000 C 
ATOM     25  F   UNL     1      48.177   6.265  14.543  0.00  0.00    +0.000 F 
ATOM     26  F   UNL     1      49.142   6.275  12.596  0.00  0.00    +0.000 F 
ATOM     27  F   UNL     1      48.826   8.145  13.661  0.00  0.00    +0.000 F 
ENDBRANCH  22  24
ENDBRANCH  17  18
ENDBRANCH  15  17
ENDBRANCH   1  15
TORSDOF 5
ENDMDL
MODEL 5
REMARK VINA RESULT:    -7.771      3.702      4.420
REMARK INTER + INTRA:         -10.868
REMARK INTER:                 -10.639
REMARK INTRA:                  -0.229
REMARK UNBOUND:                -0.826
REMARK  Name = 
REMARK  6 active torsions:
REMARK  status: ('A' for Active; 'I' for Inactive)
REMARK    1  A    between atoms: C_1  and  C_2
REMARK    2  A    between atoms: C_2  and  C_3
REMARK    3  A    between atoms: C_2  and  C_15
REMARK    4  A    between atoms: C_3  and  N_4
REMARK    5  A    between atoms: C_8  and  C_9
REMARK    6  A    between atoms: C_19  and  C_20
REMARK                            x       y       z     vdW  Elec       q    Type
REMARK                         _______ _______ _______ _____ _____    ______ ____
ROOT
ATOM      1  N   UNL     1      43.779   4.820   9.653  0.00  0.00    +0.000 N 
ATOM      2  C   UNL     1      44.615   3.855   9.129  0.00  0.00    +0.000 A 
ATOM      3  N   UNL     1      44.623   2.612   9.622  0.00  0.00    +0.000 NA
ATOM      4  C   UNL     1      45.417   1.706   9.004  0.00  0.00    +0.000 A 
ATOM      5  C   UNL     1      46.193   1.992   7.905  0.00  0.00    +0.000 A 
ATOM      6  C   UNL     1      46.136   3.306   7.515  0.00  0.00    +0.000 A 
ATOM      7 CL   UNL     1      47.073   3.977   6.231  0.00  0.00    +0.000 Cl
ATOM      8  N   UNL     1      45.366   4.247   8.100  0.00  0.00    +0.000 NA
ATOM      9  H   UNL     1      44.148   5.723   9.379  0.00  0.00    +0.000 HD
ENDROOT
BRANCH   5  10
ATOM     10  C   UNL     1      46.975   0.908   7.294  0.00  0.00    +0.000 C 
ATOM     11  N   UNL     1      46.704  -0.381   7.649  0.00  0.00    +0.000 N 
ATOM     12  O   UNL     1      47.883   1.164   6.514  0.00  0.00    +0.000 OA
ATOM     13  H   UNL     1      45.964  -0.657   8.281  0.00  0.00    +0.000 HD
ATOM     14  H   UNL     1      47.257  -1.114   7.220  0.00  0.00    +0.000 HD
ENDBRANCH   5  10
BRANCH   1  15
ATOM     15  C   UNL     1      43.447   4.692  11.053  0.00  0.00    +0.000 C 
BRANCH  15  17
ATOM     16  C   UNL     1      45.283   4.022  12.729  0.00  0.00    +0.000 C 
ATOM     17  C   UNL     1      44.688   5.048  11.816  0.00  0.00    +0.000 C 
BRANCH  17  18
ATOM     18  C   UNL     1      45.140   6.441  11.912  0.00  0.00    +0.000 A 
ATOM     19  C   UNL     1      46.435   6.728  12.361  0.00  0.00    +0.000 A 
ATOM     20  C   UNL     1      46.905   8.040  12.402  0.00  0.00    +0.000 A 
ATOM     21  C   UNL     1      46.091   9.082  11.966  0.00  0.00    +0.000 A 
ATOM     22  C   UNL     1      44.794   8.824  11.503  0.00  0.00    +0.000 A 
ATOM     23  C   UNL     1      44.317   7.498  11.505  0.00  0.00    +0.000 A 
BRANCH  22  24
ATOM     24  C   UNL     1      43.924   9.937  10.973  0.00  0.00    +0.000 C 
ATOM     25  F   UNL     1      43.473  10.784  11.940  0.00  0.00    +0.000 F 
ATOM     26  F   UNL     1      44.579  10.721  10.071  0.00  0.00    +0.000 F 
ATOM     27  F   UNL     1      42.814   9.476  10.332  0.00  0.00    +0.000 F 
ENDBRANCH  22  24
ENDBRANCH  17  18
ENDBRANCH  15  17
ENDBRANCH   1  15
TORSDOF 5
ENDMDL
MODEL 6
REMARK VINA RESULT:    -7.707      3.245      3.796
REMARK INTER + INTRA:         -10.786
REMARK INTER:                 -10.009
REMARK INTRA:                  -0.777
REMARK UNBOUND:                -0.826
REMARK  Name = 
REMARK  6 active torsions:
REMARK  status: ('A' for Active; 'I' for Inactive)
REMARK    1  A    between atoms: C_1  and  C_2
REMARK    2  A    between atoms: C_2  and  C_3
REMARK    3  A    between atoms: C_2  and  C_15
REMARK    4  A    between atoms: C_3  and  N_4
REMARK    5  A    between atoms: C_8  and  C_9
REMARK    6  A    between atoms: C_19  and  C_20
REMARK                            x       y       z     vdW  Elec       q    Type
REMARK                         _______ _______ _______ _____ _____    ______ ____
ROOT
ATOM      1  N   UNL     1      44.353   3.380  10.639  0.00  0.00    +0.000 N 
ATOM      2  C   UNL     1      45.078   3.216   9.477  0.00  0.00    +0.000 A 
ATOM      3  N   UNL     1      45.442   4.270   8.739  0.00  0.00    +0.000 NA
ATOM      4  C   UNL     1      46.215   4.029   7.654  0.00  0.00    +0.000 A 
ATOM      5  C   UNL     1      46.649   2.776   7.287  0.00  0.00    +0.000 A 
ATOM      6  C   UNL     1      46.179   1.770   8.092  0.00  0.00    +0.000 A 
ATOM      7 CL   UNL     1      46.477   0.093   7.820  0.00  0.00    +0.000 Cl
ATOM      8  N   UNL     1      45.403   1.957   9.180  0.00  0.00    +0.000 NA
ATOM      9  H   UNL     1      43.917   2.491  10.854  0.00  0.00    +0.000 HD
ENDROOT
BRANCH   5  10
ATOM     10  C   UNL     1      47.526   2.651   6.114  0.00  0.00    +0.000 C 
ATOM     11  N   UNL     1      48.841   2.341   6.305  0.00  0.00    +0.000 N 
ATOM     12  O   UNL     1      47.091   2.866   4.990  0.00  0.00    +0.000 OA
ATOM     13  H   UNL     1      49.258   2.144   7.206  0.00  0.00    +0.000 HD
ATOM     14  H   UNL     1      49.431   2.262   5.485  0.00  0.00    +0.000 HD
ENDBRANCH   5  10
BRANCH   1  15
ATOM     15  C   UNL     1      43.471   4.523  10.691  0.00  0.00    +0.000 C 
BRANCH  15  17
ATOM     16  C   UNL     1      42.921   5.009  13.159  0.00  0.00    +0.000 C 
ATOM     17  C   UNL     1      43.792   5.247  11.964  0.00  0.00    +0.000 C 
BRANCH  17  18
ATOM     18  C   UNL     1      44.729   6.377  11.974  0.00  0.00    +0.000 A 
ATOM     19  C   UNL     1      46.104   6.144  12.102  0.00  0.00    +0.000 A 
ATOM     20  C   UNL     1      47.016   7.198  12.054  0.00  0.00    +0.000 A 
ATOM     21  C   UNL     1      46.563   8.499  11.849  0.00  0.00    +0.000 A 
ATOM     22  C   UNL     1      45.192   8.759  11.709  0.00  0.00    +0.000 A 
ATOM     23  C   UNL     1      44.280   7.691  11.800  0.00  0.00    +0.000 A 
BRANCH  22  24
ATOM     24  C   UNL     1      44.694  10.155  11.427  0.00  0.00    +0.000 C 
ATOM     25  F   UNL     1      44.834  10.531  10.124  0.00  0.00    +0.000 F 
ATOM     26  F   UNL     1      43.369  10.301  11.713  0.00  0.00    +0.000 F 
ATOM     27  F   UNL     1      45.342  11.102  12.161  0.00  0.00    +0.000 F 
ENDBRANCH  22  24
ENDBRANCH  17  18
ENDBRANCH  15  17
ENDBRANCH   1  15
TORSDOF 5
ENDMDL
MODEL 7
REMARK VINA RESULT:    -7.115      5.366      7.733
REMARK INTER + INTRA:         -10.021
REMARK INTER:                  -9.396
REMARK INTRA:                  -0.626
REMARK UNBOUND:                -0.826
REMARK  Name = 
REMARK  6 active torsions:
REMARK  status: ('A' for Active; 'I' for Inactive)
REMARK    1  A    between atoms: C_1  and  C_2
REMARK    2  A    between atoms: C_2  and  C_3
REMARK    3  A    between atoms: C_2  and  C_15
REMARK    4  A    between atoms: C_3  and  N_4
REMARK    5  A    between atoms: C_8  and  C_9
REMARK    6  A    between atoms: C_19  and  C_20
REMARK                            x       y       z     vdW  Elec       q    Type
REMARK                         _______ _______ _______ _____ _____    ______ ____
ROOT
ATOM      1  N   UNL     1      45.497   5.146  13.057  0.00  0.00    +0.000 N 
ATOM      2  C   UNL     1      46.540   5.257  13.953  0.00  0.00    +0.000 A 
ATOM      3  N   UNL     1      47.366   6.308  13.922  0.00  0.00    +0.000 NA
ATOM      4  C   UNL     1      48.317   6.377  14.882  0.00  0.00    +0.000 A 
ATOM      5  C   UNL     1      48.465   5.443  15.881  0.00  0.00    +0.000 A 
ATOM      6  C   UNL     1      47.591   4.390  15.788  0.00  0.00    +0.000 A 
ATOM      7 CL   UNL     1      47.604   3.024  16.842  0.00  0.00    +0.000 Cl
ATOM      8  N   UNL     1      46.630   4.272  14.848  0.00  0.00    +0.000 NA
ATOM      9  H   UNL     1      45.216   4.173  13.034  0.00  0.00    +0.000 HD
ENDROOT
BRANCH   5  10
ATOM     10  C   UNL     1      49.507   5.656  16.896  0.00  0.00    +0.000 C 
ATOM     11  N   UNL     1      49.361   6.682  17.784  0.00  0.00    +0.000 N 
ATOM     12  O   UNL     1      50.508   4.952  16.913  0.00  0.00    +0.000 OA
ATOM     13  H   UNL     1      48.555   7.293  17.826  0.00  0.00    +0.000 HD
ATOM     14  H   UNL     1      50.091   6.816  18.474  0.00  0.00    +0.000 HD
ENDBRANCH   5  10
BRANCH   1  15
ATOM     15  C   UNL     1      45.695   5.757  11.762  0.00  0.00    +0.000 C 
BRANCH  15  17
ATOM     16  C   UNL     1      43.212   5.668  11.090  0.00  0.00    +0.000 C 
ATOM     17  C   UNL     1      44.621   5.212  10.869  0.00  0.00    +0.000 C 
BRANCH  17  18
ATOM     18  C   UNL     1      44.872   4.050  10.008  0.00  0.00    +0.000 A 
ATOM     19  C   UNL     1      44.221   2.837  10.262  0.00  0.00    +0.000 A 
ATOM     20  C   UNL     1      44.400   1.739   9.422  0.00  0.00    +0.000 A 
ATOM     21  C   UNL     1      45.214   1.850   8.298  0.00  0.00    +0.000 A 
ATOM     22  C   UNL     1      45.872   3.056   8.015  0.00  0.00    +0.000 A 
ATOM     23  C   UNL     1      45.714   4.145   8.894  0.00  0.00    +0.000 A 
BRANCH  22  24
ATOM     24  C   UNL     1      46.709   3.208   6.769  0.00  0.00    +0.000 C 
ATOM     25  F   UNL     1      47.984   2.748   6.909  0.00  0.00    +0.000 F 
ATOM     26  F   UNL     1      46.187   2.529   5.708  0.00  0.00    +0.000 F 
ATOM     27  F   UNL     1      46.820   4.504   6.366  0.00  0.00    +0.000 F 
ENDBRANCH  22  24
ENDBRANCH  17  18
ENDBRANCH  15  17
ENDBRANCH   1  15
TORSDOF 5
ENDMDL
MODEL 8
REMARK VINA RESULT:    -7.049      5.616      8.030
REMARK INTER + INTRA:          -9.936
REMARK INTER:                  -9.350
REMARK INTRA:                  -0.585
REMARK UNBOUND:                -0.826
REMARK  Name = 
REMARK  6 active torsions:
REMARK  status: ('A' for Active; 'I' for Inactive)
REMARK    1  A    between atoms: C_1  and  C_2
REMARK    2  A    between atoms: C_2  and  C_3
REMARK    3  A    between atoms: C_2  and  C_15
REMARK    4  A    between atoms: C_3  and  N_4
REMARK    5  A    between atoms: C_8  and  C_9
REMARK    6  A    between atoms: C_19  and  C_20
REMARK                            x       y       z     vdW  Elec       q    Type
REMARK                         _______ _______ _______ _____ _____    ______ ____
ROOT
ATOM      1  N   UNL     1      46.686   5.797  13.605  0.00  0.00    +0.000 N 
ATOM      2  C   UNL     1      47.236   5.271  14.756  0.00  0.00    +0.000 A 
ATOM      3  N   UNL     1      46.790   4.118  15.267  0.00  0.00    +0.000 NA
ATOM      4  C   UNL     1      47.433   3.634  16.355  0.00  0.00    +0.000 A 
ATOM      5  C   UNL     1      48.512   4.250  16.944  0.00  0.00    +0.000 A 
ATOM      6  C   UNL     1      48.853   5.444  16.362  0.00  0.00    +0.000 A 
ATOM      7 CL   UNL     1      50.101   6.484  16.942  0.00  0.00    +0.000 Cl
ATOM      8  N   UNL     1      48.242   5.972  15.280  0.00  0.00    +0.000 NA
ATOM      9  H   UNL     1      46.921   6.782  13.578  0.00  0.00    +0.000 HD
ENDROOT
BRANCH   5  10
ATOM     10  C   UNL     1      49.155   3.597  18.093  0.00  0.00    +0.000 C 
ATOM     11  N   UNL     1      48.400   3.303  19.191  0.00  0.00    +0.000 N 
ATOM     12  O   UNL     1      50.357   3.364  18.080  0.00  0.00    +0.000 OA
ATOM     13  H   UNL     1      47.404   3.463  19.260  0.00  0.00    +0.000 HD
ATOM     14  H   UNL     1      48.862   2.856  19.975  0.00  0.00    +0.000 HD
ENDBRANCH   5  10
BRANCH   1  15
ATOM     15  C   UNL     1      45.295   5.492  13.360  0.00  0.00    +0.000 C 
BRANCH  15  17
ATOM     16  C   UNL     1      44.652   7.024  11.393  0.00  0.00    +0.000 C 
ATOM     17  C   UNL     1      45.075   5.676  11.888  0.00  0.00    +0.000 C 
BRANCH  17  18
ATOM     18  C   UNL     1      44.977   4.518  10.990  0.00  0.00    +0.000 A 
ATOM     19  C   UNL     1      44.089   3.476  11.286  0.00  0.00    +0.000 A 
ATOM     20  C   UNL     1      43.937   2.397  10.416  0.00  0.00    +0.000 A 
ATOM     21  C   UNL     1      44.654   2.362   9.222  0.00  0.00    +0.000 A 
ATOM     22  C   UNL     1      45.542   3.396   8.897  0.00  0.00    +0.000 A 
ATOM     23  C   UNL     1      45.716   4.460   9.803  0.00  0.00    +0.000 A 
BRANCH  22  24
ATOM     24  C   UNL     1      46.279   3.399   7.580  0.00  0.00    +0.000 C 
ATOM     25  F   UNL     1      45.459   3.292   6.496  0.00  0.00    +0.000 F 
ATOM     26  F   UNL     1      46.996   4.542   7.389  0.00  0.00    +0.000 F 
ATOM     27  F   UNL     1      47.172   2.375   7.476  0.00  0.00    +0.000 F 
ENDBRANCH  22  24
ENDBRANCH  17  18
ENDBRANCH  15  17
ENDBRANCH   1  15
TORSDOF 5
ENDMDL
MODEL 9
REMARK VINA RESULT:    -6.995      5.723      8.081
REMARK INTER + INTRA:          -9.865
REMARK INTER:                  -9.227
REMARK INTRA:                  -0.638
REMARK UNBOUND:                -0.826
REMARK  Name = 
REMARK  6 active torsions:
REMARK  status: ('A' for Active; 'I' for Inactive)
REMARK    1  A    between atoms: C_1  and  C_2
REMARK    2  A    between atoms: C_2  and  C_3
REMARK    3  A    between atoms: C_2  and  C_15
REMARK    4  A    between atoms: C_3  and  N_4
REMARK    5  A    between atoms: C_8  and  C_9
REMARK    6  A    between atoms: C_19  and  C_20
REMARK                            x       y       z     vdW  Elec       q    Type
REMARK                         _______ _______ _______ _____ _____    ______ ____
ROOT
ATOM      1  N   UNL     1      46.779   5.632  14.062  0.00  0.00    +0.000 N 
ATOM      2  C   UNL     1      47.524   5.302  15.175  0.00  0.00    +0.000 A 
ATOM      3  N   UNL     1      48.576   6.042  15.543  0.00  0.00    +0.000 NA
ATOM      4  C   UNL     1      49.207   5.694  16.688  0.00  0.00    +0.000 A 
ATOM      5  C   UNL     1      48.820   4.644  17.487  0.00  0.00    +0.000 A 
ATOM      6  C   UNL     1      47.757   3.933  16.990  0.00  0.00    +0.000 A 
ATOM      7 CL   UNL     1      47.114   2.511  17.724  0.00  0.00    +0.000 Cl
ATOM      8  N   UNL     1      47.098   4.236  15.852  0.00  0.00    +0.000 NA
ATOM      9  H   UNL     1      46.266   4.804  13.782  0.00  0.00    +0.000 HD
ENDROOT
BRANCH   5  10
ATOM     10  C   UNL     1      49.558   4.398  18.734  0.00  0.00    +0.000 C 
ATOM     11  N   UNL     1      50.681   3.624  18.693  0.00  0.00    +0.000 N 
ATOM     12  O   UNL     1      49.145   4.844  19.797  0.00  0.00    +0.000 OA
ATOM     13  H   UNL     1      51.077   3.234  17.847  0.00  0.00    +0.000 HD
ATOM     14  H   UNL     1      51.175   3.463  19.563  0.00  0.00    +0.000 HD
ENDBRANCH   5  10
BRANCH   1  15
ATOM     15  C   UNL     1      47.482   6.306  12.994  0.00  0.00    +0.000 C 
BRANCH  15  17
ATOM     16  C   UNL     1      46.138   8.339  12.163  0.00  0.00    +0.000 C 
ATOM     17  C   UNL     1      46.431   6.873  12.088  0.00  0.00    +0.000 C 
BRANCH  17  18
ATOM     18  C   UNL     1      45.503   5.993  11.366  0.00  0.00    +0.000 A 
ATOM     19  C   UNL     1      44.147   5.968  11.715  0.00  0.00    +0.000 A 
ATOM     20  C   UNL     1      43.239   5.185  11.004  0.00  0.00    +0.000 A 
ATOM     21  C   UNL     1      43.674   4.435   9.914  0.00  0.00    +0.000 A 
ATOM     22  C   UNL     1      45.025   4.447   9.537  0.00  0.00    +0.000 A 
ATOM     23  C   UNL     1      45.938   5.212  10.289  0.00  0.00    +0.000 A 
BRANCH  22  24
ATOM     24  C   UNL     1      45.497   3.687   8.323  0.00  0.00    +0.000 C 
ATOM     25  F   UNL     1      46.537   4.285   7.676  0.00  0.00    +0.000 F 
ATOM     26  F   UNL     1      45.927   2.431   8.632  0.00  0.00    +0.000 F 
ATOM     27  F   UNL     1      44.518   3.528   7.390  0.00  0.00    +0.000 F 
ENDBRANCH  22  24
ENDBRANCH  17  18
ENDBRANCH  15  17
ENDBRANCH   1  15
TORSDOF 5
ENDMDL
