MODEL 1
REMARK VINA RESULT:    -8.058      0.000      0.000
REMARK INTER + INTRA:         -11.779
REMARK INTER:                 -10.884
REMARK INTRA:                  -0.895
REMARK UNBOUND:                -0.895
REMARK  Name = 
REMARK  7 active torsions:
REMARK  status: ('A' for Active; 'I' for Inactive)
REMARK    1  A    between atoms: C_1  and  N_2
REMARK    2  A    between atoms: N_5  and  C_6
REMARK    3  A    between atoms: C_10  and  C_11
REMARK    4  A    between atoms: C_11  and  C_12
REMARK    5  A    between atoms: C_12  and  N_13
REMARK    6  A    between atoms: N_13  and  C_14
REMARK    7  A    between atoms: C_17  and  C_18
REMARK                            x       y       z     vdW  Elec       q    Type
REMARK                         _______ _______ _______ _____ _____    ______ ____
ROOT
ATOM      1  C   UNL     1      43.709   5.002  12.303  0.00  0.00    +0.000 C 
ENDROOT
BRANCH   1   6
ATOM      2  C   UNL     1      47.085   5.608  14.007  0.00  0.00    +0.000 A 
ATOM      3  C   UNL     1      47.746   6.348  13.018  0.00  0.00    +0.000 A 
ATOM      4  C   UNL     1      47.121   6.697  11.822  0.00  0.00    +0.000 A 
ATOM      5  C   UNL     1      45.814   6.291  11.575  0.00  0.00    +0.000 A 
ATOM      6  C   UNL     1      45.117   5.525  12.517  0.00  0.00    +0.000 A 
ATOM      7  C   UNL     1      45.767   5.213  13.725  0.00  0.00    +0.000 A 
BRANCH   2  12
ATOM      8  C   UNL     1      48.201   5.227  19.435  0.00  0.00    +0.000 C 
ATOM      9  N   UNL     1      48.412   5.006  18.008  0.00  0.00    +0.000 NA
ATOM     10  C   UNL     1      47.273   4.269  17.417  0.00  0.00    +0.000 C 
ATOM     11  C   UNL     1      47.465   4.029  15.901  0.00  0.00    +0.000 C 
ATOM     12  N   UNL     1      47.669   5.318  15.221  0.00  0.00    +0.000 N 
ATOM     13  C   UNL     1      48.773   6.118  15.773  0.00  0.00    +0.000 C 
ATOM     14  C   UNL     1      48.570   6.296  17.298  0.00  0.00    +0.000 C 
ENDBRANCH   2  12
ENDBRANCH   1   6
BRANCH   1  15
ATOM     15  C   UNL     1      43.415   4.592  10.859  0.00  0.00    +0.000 C 
BRANCH  15  16
ATOM     16  N   UNL     1      43.807   3.210  10.568  0.00  0.00    +0.000 N 
ATOM     17  H   UNL     1      43.007   2.584  10.498  0.00  0.00    +0.000 HD
BRANCH  16  18
ATOM     18  C   UNL     1      44.690   3.054   9.480  0.00  0.00    +0.000 A 
ATOM     19  C   UNL     1      45.227   4.137   8.772  0.00  0.00    +0.000 A 
ATOM     20  C   UNL     1      46.144   3.938   7.744  0.00  0.00    +0.000 A 
ATOM     21  C   UNL     1      46.536   2.641   7.461  0.00  0.00    +0.000 A 
ATOM     22  N   UNL     1      46.086   1.550   8.134  0.00  0.00    +0.000 NA
ATOM     23  C   UNL     1      45.191   1.794   9.131  0.00  0.00    +0.000 A 
BRANCH  21  24
ATOM     24  C   UNL     1      47.536   2.409   6.368  0.00  0.00    +0.000 C 
ATOM     25  N   UNL     1      47.437   3.259   5.298  0.00  0.00    +0.000 N 
ATOM     26  O   UNL     1      48.379   1.525   6.415  0.00  0.00    +0.000 OA
ATOM     27  H   UNL     1      46.708   3.961   5.287  0.00  0.00    +0.000 HD
ATOM     28  H   UNL     1      48.057   3.139   4.512  0.00  0.00    +0.000 HD
ENDBRANCH  21  24
ENDBRANCH  16  18
ENDBRANCH  15  16
ENDBRANCH   1  15
TORSDOF 6
ENDMDL
MODEL 2
REMARK VINA RESULT:    -7.813      1.359      1.498
REMARK INTER + INTRA:         -11.448
REMARK INTER:                 -10.819
REMARK INTRA:                  -0.629
REMARK UNBOUND:                -0.895
REMARK  Name = 
REMARK  7 active torsions:
REMARK  status: ('A' for Active; 'I' for Inactive)
REMARK    1  A    between atoms: C_1  and  N_2
REMARK    2  A    between atoms: N_5  and  C_6
REMARK    3  A    between atoms: C_10  and  C_11
REMARK    4  A    between atoms: C_11  and  C_12
REMARK    5  A    between atoms: C_12  and  N_13
REMARK    6  A    between atoms: N_13  and  C_14
REMARK    7  A    between atoms: C_17  and  C_18
REMARK                            x       y       z     vdW  Elec       q    Type
REMARK                         _______ _______ _______ _____ _____    ______ ____
ROOT
ATOM      1  C   UNL     1      43.275   5.170  12.370  0.00  0.00    +0.000 C 
ENDROOT
BRANCH   1   6
ATOM      2  C   UNL     1      46.713   6.548  13.341  0.00  0.00    +0.000 A 
ATOM      3  C   UNL     1      46.744   7.727  12.584  0.00  0.00    +0.000 A 
ATOM      4  C   UNL     1      45.666   8.118  11.791  0.00  0.00    +0.000 A 
ATOM      5  C   UNL     1      44.529   7.321  11.720  0.00  0.00    +0.000 A 
ATOM      6  C   UNL     1      44.457   6.119  12.434  0.00  0.00    +0.000 A 
ATOM      7  C   UNL     1      45.551   5.766  13.245  0.00  0.00    +0.000 A 
BRANCH   2  12
ATOM      8  C   UNL     1      50.162   6.122  17.674  0.00  0.00    +0.000 C 
ATOM      9  N   UNL     1      49.645   5.824  16.342  0.00  0.00    +0.000 NA
ATOM     10  C   UNL     1      48.263   5.299  16.421  0.00  0.00    +0.000 C 
ATOM     11  C   UNL     1      47.685   4.983  15.022  0.00  0.00    +0.000 C 
ATOM     12  N   UNL     1      47.745   6.189  14.181  0.00  0.00    +0.000 N 
ATOM     13  C   UNL     1      49.087   6.781  14.077  0.00  0.00    +0.000 C 
ATOM     14  C   UNL     1      49.651   7.038  15.496  0.00  0.00    +0.000 C 
ENDBRANCH   2  12
ENDBRANCH   1   6
BRANCH   1  15
ATOM     15  C   UNL     1      43.417   4.074  11.313  0.00  0.00    +0.000 C 
BRANCH  15  16
ATOM     16  N   UNL     1      43.677   4.607   9.972  0.00  0.00    +0.000 N 
ATOM     17  H   UNL     1      43.954   5.586   9.988  0.00  0.00    +0.000 HD
BRANCH  16  18
ATOM     18  C   UNL     1      44.545   3.831   9.176  0.00  0.00    +0.000 A 
ATOM     19  C   UNL     1      45.406   4.388   8.222  0.00  0.00    +0.000 A 
ATOM     20  C   UNL     1      46.290   3.591   7.502  0.00  0.00    +0.000 A 
ATOM     21  C   UNL     1      46.320   2.234   7.778  0.00  0.00    +0.000 A 
ATOM     22  N   UNL     1      45.541   1.636   8.718  0.00  0.00    +0.000 NA
ATOM     23  C   UNL     1      44.692   2.457   9.396  0.00  0.00    +0.000 A 
BRANCH  21  24
ATOM     24  C   UNL     1      47.278   1.362   7.025  0.00  0.00    +0.000 C 
ATOM     25  N   UNL     1      48.415   1.988   6.588  0.00  0.00    +0.000 N 
ATOM     26  O   UNL     1      47.068   0.177   6.805  0.00  0.00    +0.000 OA
ATOM     27  H   UNL     1      48.539   2.976   6.768  0.00  0.00    +0.000 HD
ATOM     28  H   UNL     1      49.089   1.470   6.046  0.00  0.00    +0.000 HD
ENDBRANCH  21  24
ENDBRANCH  16  18
ENDBRANCH  15  16
ENDBRANCH   1  15
TORSDOF 6
ENDMDL
MODEL 3
REMARK VINA RESULT:    -7.565      2.269      3.755
REMARK INTER + INTRA:         -11.113
REMARK INTER:                 -10.210
REMARK INTRA:                  -0.903
REMARK UNBOUND:                -0.895
REMARK  Name = 
REMARK  7 active torsions:
REMARK  status: ('A' for Active; 'I' for Inactive)
REMARK    1  A    between atoms: C_1  and  N_2
REMARK    2  A    between atoms: N_5  and  C_6
REMARK    3  A    between atoms: C_10  and  C_11
REMARK    4  A    between atoms: C_11  and  C_12
REMARK    5  A    between atoms: C_12  and  N_13
REMARK    6  A    between atoms: N_13  and  C_14
REMARK    7  A    between atoms: C_17  and  C_18
REMARK                            x       y       z     vdW  Elec       q    Type
REMARK                         _______ _______ _______ _____ _____    ______ ____
ROOT
ATOM      1  C   UNL     1      43.389   5.246  12.417  0.00  0.00    +0.000 C 
ENDROOT
BRANCH   1   6
ATOM      2  C   UNL     1      46.854   6.826  12.819  0.00  0.00    +0.000 A 
ATOM      3  C   UNL     1      47.467   5.897  13.670  0.00  0.00    +0.000 A 
ATOM      4  C   UNL     1      46.807   4.745  14.094  0.00  0.00    +0.000 A 
ATOM      5  C   UNL     1      45.499   4.502  13.689  0.00  0.00    +0.000 A 
ATOM      6  C   UNL     1      44.831   5.412  12.862  0.00  0.00    +0.000 A 
ATOM      7  C   UNL     1      45.533   6.552  12.430  0.00  0.00    +0.000 A 
BRANCH   2  12
ATOM      8  C   UNL     1      50.229  11.205  12.282  0.00  0.00    +0.000 C 
ATOM      9  N   UNL     1      49.216  10.239  11.868  0.00  0.00    +0.000 NA
ATOM     10  C   UNL     1      49.761   8.863  11.895  0.00  0.00    +0.000 C 
ATOM     11  C   UNL     1      48.706   7.816  11.471  0.00  0.00    +0.000 C 
ATOM     12  N   UNL     1      47.522   7.932  12.338  0.00  0.00    +0.000 N 
ATOM     13  C   UNL     1      46.940   9.282  12.379  0.00  0.00    +0.000 C 
ATOM     14  C   UNL     1      48.036  10.307  12.760  0.00  0.00    +0.000 C 
ENDBRANCH   2  12
ENDBRANCH   1   6
BRANCH   1  15
ATOM     15  C   UNL     1      43.238   4.819  10.956  0.00  0.00    +0.000 C 
BRANCH  15  16
ATOM     16  N   UNL     1      43.644   3.430  10.723  0.00  0.00    +0.000 N 
ATOM     17  H   UNL     1      42.851   2.795  10.670  0.00  0.00    +0.000 HD
BRANCH  16  18
ATOM     18  C   UNL     1      44.539   3.239   9.650  0.00  0.00    +0.000 A 
ATOM     19  C   UNL     1      45.172   4.298   8.987  0.00  0.00    +0.000 A 
ATOM     20  C   UNL     1      46.095   4.060   7.973  0.00  0.00    +0.000 A 
ATOM     21  C   UNL     1      46.397   2.746   7.659  0.00  0.00    +0.000 A 
ATOM     22  N   UNL     1      45.850   1.672   8.290  0.00  0.00    +0.000 NA
ATOM     23  C   UNL     1      44.953   1.955   9.274  0.00  0.00    +0.000 A 
BRANCH  21  24
ATOM     24  C   UNL     1      47.402   2.470   6.582  0.00  0.00    +0.000 C 
ATOM     25  N   UNL     1      47.218   3.173   5.421  0.00  0.00    +0.000 N 
ATOM     26  O   UNL     1      48.320   1.673   6.716  0.00  0.00    +0.000 OA
ATOM     27  H   UNL     1      46.431   3.804   5.340  0.00  0.00    +0.000 HD
ATOM     28  H   UNL     1      47.838   3.013   4.642  0.00  0.00    +0.000 HD
ENDBRANCH  21  24
ENDBRANCH  16  18
ENDBRANCH  15  16
ENDBRANCH   1  15
TORSDOF 6
ENDMDL
MODEL 4
REMARK VINA RESULT:    -7.387      2.725      3.684
REMARK INTER + INTRA:         -10.874
REMARK INTER:                 -10.217
REMARK INTRA:                  -0.657
REMARK UNBOUND:                -0.895
REMARK  Name = 
REMARK  7 active torsions:
REMARK  status: ('A' for Active; 'I' for Inactive)
REMARK    1  A    between atoms: C_1  and  N_2
REMARK    2  A    between atoms: N_5  and  C_6
REMARK    3  A    between atoms: C_10  and  C_11
REMARK    4  A    between atoms: C_11  and  C_12
REMARK    5  A    between atoms: C_12  and  N_13
REMARK    6  A    between atoms: N_13  and  C_14
REMARK    7  A    between atoms: C_17  and  C_18
REMARK                            x       y       z     vdW  Elec       q    Type
REMARK                         _______ _______ _______ _____ _____    ______ ____
ROOT
ATOM      1  C   UNL     1      45.158   4.663  12.094  0.00  0.00    +0.000 C 
ENDROOT
BRANCH   1   6
ATOM      2  C   UNL     1      47.685   7.523  12.420  0.00  0.00    +0.000 A 
ATOM      3  C   UNL     1      46.826   8.630  12.413  0.00  0.00    +0.000 A 
ATOM      4  C   UNL     1      45.442   8.484  12.346  0.00  0.00    +0.000 A 
ATOM      5  C   UNL     1      44.878   7.216  12.261  0.00  0.00    +0.000 A 
ATOM      6  C   UNL     1      45.692   6.077  12.235  0.00  0.00    +0.000 A 
ATOM      7  C   UNL     1      47.083   6.256  12.332  0.00  0.00    +0.000 A 
BRANCH   2  12
ATOM      8  C   UNL     1      52.814   9.564  13.038  0.00  0.00    +0.000 C 
ATOM      9  N   UNL     1      51.796   8.529  12.885  0.00  0.00    +0.000 NA
ATOM     10  C   UNL     1      50.821   8.583  13.998  0.00  0.00    +0.000 C 
ATOM     11  C   UNL     1      49.724   7.503  13.857  0.00  0.00    +0.000 C 
ATOM     12  N   UNL     1      49.050   7.653  12.557  0.00  0.00    +0.000 N 
ATOM     13  C   UNL     1      49.962   7.633  11.403  0.00  0.00    +0.000 C 
ATOM     14  C   UNL     1      51.073   8.694  11.604  0.00  0.00    +0.000 C 
ENDBRANCH   2  12
ENDBRANCH   1   6
BRANCH   1  15
ATOM     15  C   UNL     1      43.770   4.587  11.458  0.00  0.00    +0.000 C 
BRANCH  15  16
ATOM     16  N   UNL     1      43.793   4.811  10.010  0.00  0.00    +0.000 N 
ATOM     17  H   UNL     1      43.865   5.797   9.769  0.00  0.00    +0.000 HD
BRANCH  16  18
ATOM     18  C   UNL     1      44.726   4.030   9.297  0.00  0.00    +0.000 A 
ATOM     19  C   UNL     1      44.748   2.630   9.351  0.00  0.00    +0.000 A 
ATOM     20  C   UNL     1      45.647   1.897   8.582  0.00  0.00    +0.000 A 
ATOM     21  C   UNL     1      46.499   2.587   7.736  0.00  0.00    +0.000 A 
ATOM     22  N   UNL     1      46.501   3.941   7.605  0.00  0.00    +0.000 NA
ATOM     23  C   UNL     1      45.605   4.614   8.377  0.00  0.00    +0.000 A 
BRANCH  21  24
ATOM     24  C   UNL     1      47.462   1.813   6.888  0.00  0.00    +0.000 C 
ATOM     25  N   UNL     1      48.547   2.522   6.446  0.00  0.00    +0.000 N 
ATOM     26  O   UNL     1      47.298   0.636   6.600  0.00  0.00    +0.000 OA
ATOM     27  H   UNL     1      48.633   3.502   6.684  0.00  0.00    +0.000 HD
ATOM     28  H   UNL     1      49.219   2.073   5.843  0.00  0.00    +0.000 HD
ENDBRANCH  21  24
ENDBRANCH  16  18
ENDBRANCH  15  16
ENDBRANCH   1  15
TORSDOF 6
ENDMDL
MODEL 5
REMARK VINA RESULT:    -7.008      2.522      8.220
REMARK INTER + INTRA:         -10.361
REMARK INTER:                  -9.753
REMARK INTRA:                  -0.609
REMARK UNBOUND:                -0.895
REMARK  Name = 
REMARK  7 active torsions:
REMARK  status: ('A' for Active; 'I' for Inactive)
REMARK    1  A    between atoms: C_1  and  N_2
REMARK    2  A    between atoms: N_5  and  C_6
REMARK    3  A    between atoms: C_10  and  C_11
REMARK    4  A    between atoms: C_11  and  C_12
REMARK    5  A    between atoms: C_12  and  N_13
REMARK    6  A    between atoms: N_13  and  C_14
REMARK    7  A    between atoms: C_17  and  C_18
REMARK                            x       y       z     vdW  Elec       q    Type
REMARK                         _______ _______ _______ _____ _____    ______ ____
ROOT
ATOM      1  C   UNL     1      45.275   6.782  12.594  0.00  0.00    +0.000 C 
ENDROOT
BRANCH   1   6
ATOM      2  C   UNL     1      44.724   3.684  10.412  0.00  0.00    +0.000 A 
ATOM      3  C   UNL     1      43.826   2.961  11.208  0.00  0.00    +0.000 A 
ATOM      4  C   UNL     1      43.356   3.461  12.421  0.00  0.00    +0.000 A 
ATOM      5  C   UNL     1      43.793   4.698  12.881  0.00  0.00    +0.000 A 
ATOM      6  C   UNL     1      44.712   5.448  12.138  0.00  0.00    +0.000 A 
ATOM      7  C   UNL     1      45.146   4.929  10.906  0.00  0.00    +0.000 A 
BRANCH   2  12
ATOM      8  C   UNL     1      47.804   1.982   6.114  0.00  0.00    +0.000 C 
ATOM      9  N   UNL     1      46.577   2.308   6.833  0.00  0.00    +0.000 NA
ATOM     10  C   UNL     1      46.440   1.469   8.044  0.00  0.00    +0.000 C 
ATOM     11  C   UNL     1      45.152   1.800   8.833  0.00  0.00    +0.000 C 
ATOM     12  N   UNL     1      45.140   3.230   9.178  0.00  0.00    +0.000 N 
ATOM     13  C   UNL     1      45.296   4.126   8.022  0.00  0.00    +0.000 C 
ATOM     14  C   UNL     1      46.569   3.734   7.232  0.00  0.00    +0.000 C 
ENDBRANCH   2  12
ENDBRANCH   1   6
BRANCH   1  15
ATOM     15  C   UNL     1      46.797   6.790  12.747  0.00  0.00    +0.000 C 
BRANCH  15  16
ATOM     16  N   UNL     1      47.232   7.162  14.097  0.00  0.00    +0.000 N 
ATOM     17  H   UNL     1      46.542   7.729  14.586  0.00  0.00    +0.000 HD
BRANCH  16  18
ATOM     18  C   UNL     1      47.692   6.094  14.894  0.00  0.00    +0.000 A 
ATOM     19  C   UNL     1      48.629   6.260  15.922  0.00  0.00    +0.000 A 
ATOM     20  C   UNL     1      49.009   5.188  16.725  0.00  0.00    +0.000 A 
ATOM     21  C   UNL     1      48.411   3.960  16.502  0.00  0.00    +0.000 A 
ATOM     22  N   UNL     1      47.465   3.741  15.549  0.00  0.00    +0.000 NA
ATOM     23  C   UNL     1      47.127   4.818  14.789  0.00  0.00    +0.000 A 
BRANCH  21  24
ATOM     24  C   UNL     1      48.795   2.798  17.368  0.00  0.00    +0.000 C 
ATOM     25  N   UNL     1      48.379   2.881  18.671  0.00  0.00    +0.000 N 
ATOM     26  O   UNL     1      49.437   1.843  16.954  0.00  0.00    +0.000 OA
ATOM     27  H   UNL     1      47.872   3.701  18.980  0.00  0.00    +0.000 HD
ATOM     28  H   UNL     1      48.630   2.150  19.318  0.00  0.00    +0.000 HD
ENDBRANCH  21  24
ENDBRANCH  16  18
ENDBRANCH  15  16
ENDBRANCH   1  15
TORSDOF 6
ENDMDL
MODEL 6
REMARK VINA RESULT:    -6.686      3.222      8.784
REMARK INTER + INTRA:          -9.926
REMARK INTER:                  -9.450
REMARK INTRA:                  -0.476
REMARK UNBOUND:                -0.895
REMARK  Name = 
REMARK  7 active torsions:
REMARK  status: ('A' for Active; 'I' for Inactive)
REMARK    1  A    between atoms: C_1  and  N_2
REMARK    2  A    between atoms: N_5  and  C_6
REMARK    3  A    between atoms: C_10  and  C_11
REMARK    4  A    between atoms: C_11  and  C_12
REMARK    5  A    between atoms: C_12  and  N_13
REMARK    6  A    between atoms: N_13  and  C_14
REMARK    7  A    between atoms: C_17  and  C_18
REMARK                            x       y       z     vdW  Elec       q    Type
REMARK                         _______ _______ _______ _____ _____    ______ ____
ROOT
ATOM      1  C   UNL     1      46.454   5.397  13.779  0.00  0.00    +0.000 C 
ENDROOT
BRANCH   1   6
ATOM      2  C   UNL     1      44.687   4.076  10.649  0.00  0.00    +0.000 A 
ATOM      3  C   UNL     1      43.348   4.314  10.986  0.00  0.00    +0.000 A 
ATOM      4  C   UNL     1      42.992   4.928  12.186  0.00  0.00    +0.000 A 
ATOM      5  C   UNL     1      43.975   5.303  13.095  0.00  0.00    +0.000 A 
ATOM      6  C   UNL     1      45.326   5.064  12.820  0.00  0.00    +0.000 A 
ATOM      7  C   UNL     1      45.655   4.467  11.589  0.00  0.00    +0.000 A 
BRANCH   2  12
ATOM      8  C   UNL     1      47.538   1.750   6.487  0.00  0.00    +0.000 C 
ATOM      9  N   UNL     1      46.371   2.319   7.155  0.00  0.00    +0.000 NA
ATOM     10  C   UNL     1      46.026   1.538   8.364  0.00  0.00    +0.000 C 
ATOM     11  C   UNL     1      44.798   2.125   9.099  0.00  0.00    +0.000 C 
ATOM     12  N   UNL     1      45.054   3.534   9.435  0.00  0.00    +0.000 N 
ATOM     13  C   UNL     1      45.427   4.368   8.283  0.00  0.00    +0.000 C 
ATOM     14  C   UNL     1      46.627   3.724   7.546  0.00  0.00    +0.000 C 
ENDBRANCH   2  12
ENDBRANCH   1   6
BRANCH   1  15
ATOM     15  C   UNL     1      46.767   4.282  14.778  0.00  0.00    +0.000 C 
BRANCH  15  16
ATOM     16  N   UNL     1      47.096   4.788  16.113  0.00  0.00    +0.000 N 
ATOM     17  H   UNL     1      46.405   4.525  16.812  0.00  0.00    +0.000 HD
BRANCH  16  18
ATOM     18  C   UNL     1      48.410   4.519  16.550  0.00  0.00    +0.000 A 
ATOM     19  C   UNL     1      49.327   5.526  16.878  0.00  0.00    +0.000 A 
ATOM     20  C   UNL     1      50.593   5.213  17.363  0.00  0.00    +0.000 A 
ATOM     21  C   UNL     1      50.912   3.878  17.545  0.00  0.00    +0.000 A 
ATOM     22  N   UNL     1      50.056   2.854  17.285  0.00  0.00    +0.000 NA
ATOM     23  C   UNL     1      48.830   3.209  16.812  0.00  0.00    +0.000 A 
BRANCH  21  24
ATOM     24  C   UNL     1      52.264   3.523  18.083  0.00  0.00    +0.000 C 
ATOM     25  N   UNL     1      52.371   2.259  18.602  0.00  0.00    +0.000 N 
ATOM     26  O   UNL     1      53.210   4.298  18.071  0.00  0.00    +0.000 OA
ATOM     27  H   UNL     1      51.558   1.657  18.617  0.00  0.00    +0.000 HD
ATOM     28  H   UNL     1      53.244   1.964  19.011  0.00  0.00    +0.000 HD
ENDBRANCH  21  24
ENDBRANCH  16  18
ENDBRANCH  15  16
ENDBRANCH   1  15
TORSDOF 6
ENDMDL
MODEL 7
REMARK VINA RESULT:    -6.377      3.763      7.807
REMARK INTER + INTRA:          -9.509
REMARK INTER:                  -8.842
REMARK INTRA:                  -0.668
REMARK UNBOUND:                -0.895
REMARK  Name = 
REMARK  7 active torsions:
REMARK  status: ('A' for Active; 'I' for Inactive)
REMARK    1  A    between atoms: C_1  and  N_2
REMARK    2  A    between atoms: N_5  and  C_6
REMARK    3  A    between atoms: C_10  and  C_11
REMARK    4  A    between atoms: C_11  and  C_12
REMARK    5  A    between atoms: C_12  and  N_13
REMARK    6  A    between atoms: N_13  and  C_14
REMARK    7  A    between atoms: C_17  and  C_18
REMARK                            x       y       z     vdW  Elec       q    Type
REMARK                         _______ _______ _______ _____ _____    ______ ____
ROOT
ATOM      1  C   UNL     1      45.343   6.369  12.865  0.00  0.00    +0.000 C 
ENDROOT
BRANCH   1   6
ATOM      2  C   UNL     1      44.771   3.452  10.451  0.00  0.00    +0.000 A 
ATOM      3  C   UNL     1      43.846   2.691  11.177  0.00  0.00    +0.000 A 
ATOM      4  C   UNL     1      43.364   3.109  12.416  0.00  0.00    +0.000 A 
ATOM      5  C   UNL     1      43.816   4.300  12.973  0.00  0.00    +0.000 A 
ATOM      6  C   UNL     1      44.762   5.084  12.303  0.00  0.00    +0.000 A 
ATOM      7  C   UNL     1      45.209   4.648  11.042  0.00  0.00    +0.000 A 
BRANCH   2  12
ATOM      8  C   UNL     1      47.901   2.109   6.062  0.00  0.00    +0.000 C 
ATOM      9  N   UNL     1      46.664   2.345   6.800  0.00  0.00    +0.000 NA
ATOM     10  C   UNL     1      46.567   1.438   7.966  0.00  0.00    +0.000 C 
ATOM     11  C   UNL     1      45.270   1.673   8.774  0.00  0.00    +0.000 C 
ATOM     12  N   UNL     1      45.201   3.082   9.194  0.00  0.00    +0.000 N 
ATOM     13  C   UNL     1      45.315   4.043   8.087  0.00  0.00    +0.000 C 
ATOM     14  C   UNL     1      46.599   3.747   7.275  0.00  0.00    +0.000 C 
ENDBRANCH   2  12
ENDBRANCH   1   6
BRANCH   1  15
ATOM     15  C   UNL     1      45.750   7.384  11.795  0.00  0.00    +0.000 C 
BRANCH  15  16
ATOM     16  N   UNL     1      46.447   8.547  12.349  0.00  0.00    +0.000 N 
ATOM     17  H   UNL     1      46.230   8.701  13.331  0.00  0.00    +0.000 HD
BRANCH  16  18
ATOM     18  C   UNL     1      47.837   8.584  12.109  0.00  0.00    +0.000 A 
ATOM     19  C   UNL     1      48.592   7.439  11.824  0.00  0.00    +0.000 A 
ATOM     20  C   UNL     1      49.950   7.531  11.532  0.00  0.00    +0.000 A 
ATOM     21  C   UNL     1      50.528   8.788  11.499  0.00  0.00    +0.000 A 
ATOM     22  N   UNL     1      49.845   9.941  11.726  0.00  0.00    +0.000 NA
ATOM     23  C   UNL     1      48.520   9.802  12.007  0.00  0.00    +0.000 A 
BRANCH  21  24
ATOM     24  C   UNL     1      51.986   8.907  11.170  0.00  0.00    +0.000 C 
ATOM     25  N   UNL     1      52.753   7.830  11.528  0.00  0.00    +0.000 N 
ATOM     26  O   UNL     1      52.467   9.891  10.627  0.00  0.00    +0.000 OA
ATOM     27  H   UNL     1      52.320   7.046  12.000  0.00  0.00    +0.000 HD
ATOM     28  H   UNL     1      53.748   7.856  11.367  0.00  0.00    +0.000 HD
ENDBRANCH  21  24
ENDBRANCH  16  18
ENDBRANCH  15  16
ENDBRANCH   1  15
TORSDOF 6
ENDMDL
MODEL 8
REMARK VINA RESULT:    -6.268      3.513      7.795
REMARK INTER + INTRA:          -9.361
REMARK INTER:                  -8.296
REMARK INTRA:                  -1.065
REMARK UNBOUND:                -0.895
REMARK  Name = 
REMARK  7 active torsions:
REMARK  status: ('A' for Active; 'I' for Inactive)
REMARK    1  A    between atoms: C_1  and  N_2
REMARK    2  A    between atoms: N_5  and  C_6
REMARK    3  A    between atoms: C_10  and  C_11
REMARK    4  A    between atoms: C_11  and  C_12
REMARK    5  A    between atoms: C_12  and  N_13
REMARK    6  A    between atoms: N_13  and  C_14
REMARK    7  A    between atoms: C_17  and  C_18
REMARK                            x       y       z     vdW  Elec       q    Type
REMARK                         _______ _______ _______ _____ _____    ______ ____
ROOT
ATOM      1  C   UNL     1      49.189   8.621  12.138  0.00  0.00    +0.000 C 
ENDROOT
BRANCH   1   6
ATOM      2  C   UNL     1      45.537   7.588  11.631  0.00  0.00    +0.000 A 
ATOM      3  C   UNL     1      44.891   8.819  11.804  0.00  0.00    +0.000 A 
ATOM      4  C   UNL     1      45.604   9.993  12.044  0.00  0.00    +0.000 A 
ATOM      5  C   UNL     1      46.991   9.959  12.138  0.00  0.00    +0.000 A 
ATOM      6  C   UNL     1      47.683   8.750  12.000  0.00  0.00    +0.000 A 
ATOM      7  C   UNL     1      46.938   7.588  11.732  0.00  0.00    +0.000 A 
BRANCH   2  12
ATOM      8  C   UNL     1      43.264   2.522  11.809  0.00  0.00    +0.000 C 
ATOM      9  N   UNL     1      43.576   3.828  11.237  0.00  0.00    +0.000 NA
ATOM     10  C   UNL     1      43.069   4.916  12.104  0.00  0.00    +0.000 C 
ATOM     11  C   UNL     1      43.395   6.313  11.528  0.00  0.00    +0.000 C 
ATOM     12  N   UNL     1      44.847   6.434  11.323  0.00  0.00    +0.000 N 
ATOM     13  C   UNL     1      45.426   5.371  10.489  0.00  0.00    +0.000 C 
ATOM     14  C   UNL     1      45.039   3.988  11.070  0.00  0.00    +0.000 C 
ENDBRANCH   2  12
ENDBRANCH   1   6
BRANCH   1  15
ATOM     15  C   UNL     1      49.629   7.542  13.129  0.00  0.00    +0.000 C 
BRANCH  15  16
ATOM     16  N   UNL     1      49.293   7.872  14.517  0.00  0.00    +0.000 N 
ATOM     17  H   UNL     1      48.728   8.715  14.592  0.00  0.00    +0.000 HD
BRANCH  16  18
ATOM     18  C   UNL     1      48.750   6.810  15.271  0.00  0.00    +0.000 A 
ATOM     19  C   UNL     1      47.904   5.839  14.720  0.00  0.00    +0.000 A 
ATOM     20  C   UNL     1      47.441   4.774  15.487  0.00  0.00    +0.000 A 
ATOM     21  C   UNL     1      47.866   4.681  16.802  0.00  0.00    +0.000 A 
ATOM     22  N   UNL     1      48.718   5.566  17.386  0.00  0.00    +0.000 NA
ATOM     23  C   UNL     1      49.143   6.591  16.596  0.00  0.00    +0.000 A 
BRANCH  21  24
ATOM     24  C   UNL     1      47.392   3.532  17.638  0.00  0.00    +0.000 C 
ATOM     25  N   UNL     1      48.179   3.234  18.719  0.00  0.00    +0.000 N 
ATOM     26  O   UNL     1      46.380   2.894  17.381  0.00  0.00    +0.000 OA
ATOM     27  H   UNL     1      49.022   3.769  18.883  0.00  0.00    +0.000 HD
ATOM     28  H   UNL     1      47.937   2.452  19.307  0.00  0.00    +0.000 HD
ENDBRANCH  21  24
ENDBRANCH  16  18
ENDBRANCH  15  16
ENDBRANCH   1  15
TORSDOF 6
ENDMDL
MODEL 9
REMARK VINA RESULT:    -5.976      3.728      8.501
REMARK INTER + INTRA:          -8.967
REMARK INTER:                  -8.303
REMARK INTRA:                  -0.663
REMARK UNBOUND:                -0.895
REMARK  Name = 
REMARK  7 active torsions:
REMARK  status: ('A' for Active; 'I' for Inactive)
REMARK    1  A    between atoms: C_1  and  N_2
REMARK    2  A    between atoms: N_5  and  C_6
REMARK    3  A    between atoms: C_10  and  C_11
REMARK    4  A    between atoms: C_11  and  C_12
REMARK    5  A    between atoms: C_12  and  N_13
REMARK    6  A    between atoms: N_13  and  C_14
REMARK    7  A    between atoms: C_17  and  C_18
REMARK                            x       y       z     vdW  Elec       q    Type
REMARK                         _______ _______ _______ _____ _____    ______ ____
ROOT
ATOM      1  C   UNL     1      49.606   6.691  15.581  0.00  0.00    +0.000 C 
ENDROOT
BRANCH   1   6
ATOM      2  C   UNL     1      47.320   6.607  12.510  0.00  0.00    +0.000 A 
ATOM      3  C   UNL     1      47.879   7.637  11.741  0.00  0.00    +0.000 A 
ATOM      4  C   UNL     1      49.005   8.340  12.166  0.00  0.00    +0.000 A 
ATOM      5  C   UNL     1      49.592   8.042  13.391  0.00  0.00    +0.000 A 
ATOM      6  C   UNL     1      49.056   7.042  14.211  0.00  0.00    +0.000 A 
ATOM      7  C   UNL     1      47.935   6.333  13.742  0.00  0.00    +0.000 A 
BRANCH   2  12
ATOM      8  C   UNL     1      44.154   2.696  10.158  0.00  0.00    +0.000 C 
ATOM      9  N   UNL     1      44.435   3.912  10.914  0.00  0.00    +0.000 NA
ATOM     10  C   UNL     1      45.245   3.608  12.115  0.00  0.00    +0.000 C 
ATOM     11  C   UNL     1      45.569   4.881  12.931  0.00  0.00    +0.000 C 
ATOM     12  N   UNL     1      46.250   5.859  12.068  0.00  0.00    +0.000 N 
ATOM     13  C   UNL     1      45.511   6.192  10.840  0.00  0.00    +0.000 C 
ATOM     14  C   UNL     1      45.165   4.890  10.076  0.00  0.00    +0.000 C 
ENDBRANCH   2  12
ENDBRANCH   1   6
BRANCH   1  15
ATOM     15  C   UNL     1      48.602   5.976  16.486  0.00  0.00    +0.000 C 
BRANCH  15  16
ATOM     16  N   UNL     1      49.159   5.636  17.799  0.00  0.00    +0.000 N 
ATOM     17  H   UNL     1      48.448   5.597  18.526  0.00  0.00    +0.000 HD
BRANCH  16  18
ATOM     18  C   UNL     1      49.991   4.498  17.820  0.00  0.00    +0.000 A 
ATOM     19  C   UNL     1      49.556   3.227  17.421  0.00  0.00    +0.000 A 
ATOM     20  C   UNL     1      50.430   2.144  17.400  0.00  0.00    +0.000 A 
ATOM     21  C   UNL     1      51.750   2.363  17.754  0.00  0.00    +0.000 A 
ATOM     22  N   UNL     1      52.247   3.577  18.112  0.00  0.00    +0.000 NA
ATOM     23  C   UNL     1      51.355   4.605  18.117  0.00  0.00    +0.000 A 
BRANCH  21  24
ATOM     24  C   UNL     1      52.709   1.211  17.721  0.00  0.00    +0.000 C 
ATOM     25  N   UNL     1      52.215   0.028  18.203  0.00  0.00    +0.000 N 
ATOM     26  O   UNL     1      53.854   1.310  17.302  0.00  0.00    +0.000 OA
ATOM     27  H   UNL     1      51.271  -0.006  18.565  0.00  0.00    +0.000 HD
ATOM     28  H   UNL     1      52.817  -0.780  18.241  0.00  0.00    +0.000 HD
ENDBRANCH  21  24
ENDBRANCH  16  18
ENDBRANCH  15  16
ENDBRANCH   1  15
TORSDOF 6
ENDMDL
