MODEL 1
REMARK VINA RESULT:    -7.677      0.000      0.000
REMARK INTER + INTRA:         -10.019
REMARK INTER:                  -9.472
REMARK INTRA:                  -0.548
REMARK UNBOUND:                -0.548
REMARK  Name = 
REMARK  4 active torsions:
REMARK  status: ('A' for Active; 'I' for Inactive)
REMARK    1  A    between atoms: C_2  and  C_4
REMARK    2  A    between atoms: C_7  and  C_8
REMARK    3  A    between atoms: C_8  and  C_9
REMARK    4  A    between atoms: C_9  and  C_10
REMARK                            x       y       z     vdW  Elec       q    Type
REMARK                         _______ _______ _______ _____ _____    ______ ____
ROOT
ATOM      1  C   UNL     1      46.394   4.700  13.264  0.00  0.00    +0.000 A 
ATOM      2  C   UNL     1      46.294   5.629  12.241  0.00  0.00    +0.000 A 
ATOM      3  C   UNL     1      45.583   5.276  11.097  0.00  0.00    +0.000 A 
ATOM      4  C   UNL     1      45.006   4.006  10.992  0.00  0.00    +0.000 A 
ATOM      5  C   UNL     1      45.143   3.156  12.091  0.00  0.00    +0.000 A 
ATOM      6  N   UNL     1      45.826   3.462  13.220  0.00  0.00    +0.000 NA
ENDROOT
BRANCH   1   8
ATOM      7  N   UNL     1      46.792   4.396  15.637  0.00  0.00    +0.000 N 
ATOM      8  C   UNL     1      47.169   5.051  14.498  0.00  0.00    +0.000 C 
ATOM      9  O   UNL     1      48.085   5.863  14.495  0.00  0.00    +0.000 OA
ATOM     10  H   UNL     1      47.282   4.576  16.500  0.00  0.00    +0.000 HD
ATOM     11  H   UNL     1      46.034   3.723  15.601  0.00  0.00    +0.000 HD
ENDBRANCH   1   8
BRANCH   4  12
ATOM     12  C   UNL     1      44.209   3.565   9.785  0.00  0.00    +0.000 C 
BRANCH  12  13
ATOM     13  C   UNL     1      44.794   4.010   8.435  0.00  0.00    +0.000 C 
BRANCH  13  14
ATOM     14  C   UNL     1      45.834   3.056   7.908  0.00  0.00    +0.000 A 
ATOM     15  C   UNL     1      45.829   1.714   8.295  0.00  0.00    +0.000 A 
ATOM     16  C   UNL     1      46.795   0.867   7.773  0.00  0.00    +0.000 A 
ATOM     17  N   UNL     1      47.753   1.264   6.909  0.00  0.00    +0.000 NA
ATOM     18  C   UNL     1      47.743   2.566   6.551  0.00  0.00    +0.000 A 
ATOM     19  C   UNL     1      46.820   3.488   7.019  0.00  0.00    +0.000 A 
ENDBRANCH  13  14
ENDBRANCH  12  13
ENDBRANCH   4  12
TORSDOF 4
ENDMDL
MODEL 2
REMARK VINA RESULT:    -7.515      2.671      6.116
REMARK INTER + INTRA:          -9.820
REMARK INTER:                  -9.182
REMARK INTRA:                  -0.638
REMARK UNBOUND:                -0.548
REMARK  Name = 
REMARK  4 active torsions:
REMARK  status: ('A' for Active; 'I' for Inactive)
REMARK    1  A    between atoms: C_2  and  C_4
REMARK    2  A    between atoms: C_7  and  C_8
REMARK    3  A    between atoms: C_8  and  C_9
REMARK    4  A    between atoms: C_9  and  C_10
REMARK                            x       y       z     vdW  Elec       q    Type
REMARK                         _______ _______ _______ _____ _____    ______ ____
ROOT
ATOM      1  C   UNL     1      46.477   2.480   7.763  0.00  0.00    +0.000 A 
ATOM      2  C   UNL     1      46.386   3.859   7.656  0.00  0.00    +0.000 A 
ATOM      3  C   UNL     1      45.520   4.531   8.515  0.00  0.00    +0.000 A 
ATOM      4  C   UNL     1      44.757   3.817   9.444  0.00  0.00    +0.000 A 
ATOM      5  C   UNL     1      44.946   2.434   9.488  0.00  0.00    +0.000 A 
ATOM      6  N   UNL     1      45.776   1.744   8.670  0.00  0.00    +0.000 NA
ENDROOT
BRANCH   1   8
ATOM      7  N   UNL     1      48.486   2.425   6.407  0.00  0.00    +0.000 N 
ATOM      8  C   UNL     1      47.389   1.734   6.838  0.00  0.00    +0.000 C 
ATOM      9  O   UNL     1      47.178   0.579   6.490  0.00  0.00    +0.000 OA
ATOM     10  H   UNL     1      49.148   1.976   5.792  0.00  0.00    +0.000 HD
ATOM     11  H   UNL     1      48.634   3.378   6.722  0.00  0.00    +0.000 HD
ENDBRANCH   1   8
BRANCH   4  12
ATOM     12  C   UNL     1      43.811   4.486  10.415  0.00  0.00    +0.000 C 
BRANCH  12  13
ATOM     13  C   UNL     1      44.342   5.792  11.028  0.00  0.00    +0.000 C 
BRANCH  13  14
ATOM     14  C   UNL     1      45.492   5.565  11.975  0.00  0.00    +0.000 A 
ATOM     15  C   UNL     1      46.646   6.348  11.892  0.00  0.00    +0.000 A 
ATOM     16  C   UNL     1      47.673   6.118  12.794  0.00  0.00    +0.000 A 
ATOM     17  N   UNL     1      47.630   5.171  13.755  0.00  0.00    +0.000 NA
ATOM     18  C   UNL     1      46.508   4.422  13.815  0.00  0.00    +0.000 A 
ATOM     19  C   UNL     1      45.428   4.577  12.959  0.00  0.00    +0.000 A 
ENDBRANCH  13  14
ENDBRANCH  12  13
ENDBRANCH   4  12
TORSDOF 4
ENDMDL
MODEL 3
REMARK VINA RESULT:    -7.273      1.188      1.670
REMARK INTER + INTRA:          -9.522
REMARK INTER:                  -8.956
REMARK INTRA:                  -0.566
REMARK UNBOUND:                -0.548
REMARK  Name = 
REMARK  4 active torsions:
REMARK  status: ('A' for Active; 'I' for Inactive)
REMARK    1  A    between atoms: C_2  and  C_4
REMARK    2  A    between atoms: C_7  and  C_8
REMARK    3  A    between atoms: C_8  and  C_9
REMARK    4  A    between atoms: C_9  and  C_10
REMARK                            x       y       z     vdW  Elec       q    Type
REMARK                         _______ _______ _______ _____ _____    ______ ____
ROOT
ATOM      1  C   UNL     1      46.597   5.880  12.672  0.00  0.00    +0.000 A 
ATOM      2  C   UNL     1      46.472   6.378  11.385  0.00  0.00    +0.000 A 
ATOM      3  C   UNL     1      45.741   5.638  10.460  0.00  0.00    +0.000 A 
ATOM      4  C   UNL     1      45.168   4.417  10.831  0.00  0.00    +0.000 A 
ATOM      5  C   UNL     1      45.332   4.020  12.160  0.00  0.00    +0.000 A 
ATOM      6  N   UNL     1      46.036   4.711  13.089  0.00  0.00    +0.000 NA
ENDROOT
BRANCH   1   8
ATOM      7  N   UNL     1      46.958   7.922  13.929  0.00  0.00    +0.000 N 
ATOM      8  C   UNL     1      47.395   6.651  13.679  0.00  0.00    +0.000 C 
ATOM      9  O   UNL     1      48.369   6.180  14.252  0.00  0.00    +0.000 OA
ATOM     10  H   UNL     1      47.443   8.490  14.608  0.00  0.00    +0.000 HD
ATOM     11  H   UNL     1      46.142   8.276  13.443  0.00  0.00    +0.000 HD
ENDBRANCH   1   8
BRANCH   4  12
ATOM     12  C   UNL     1      44.350   3.572   9.882  0.00  0.00    +0.000 C 
BRANCH  12  13
ATOM     13  C   UNL     1      44.662   3.798   8.394  0.00  0.00    +0.000 C 
BRANCH  13  14
ATOM     14  C   UNL     1      45.779   2.921   7.893  0.00  0.00    +0.000 A 
ATOM     15  C   UNL     1      46.810   3.457   7.115  0.00  0.00    +0.000 A 
ATOM     16  C   UNL     1      47.828   2.617   6.689  0.00  0.00    +0.000 A 
ATOM     17  N   UNL     1      47.883   1.300   6.977  0.00  0.00    +0.000 NA
ATOM     18  C   UNL     1      46.876   0.802   7.726  0.00  0.00    +0.000 A 
ATOM     19  C   UNL     1      45.816   1.560   8.199  0.00  0.00    +0.000 A 
ENDBRANCH  13  14
ENDBRANCH  12  13
ENDBRANCH   4  12
TORSDOF 4
ENDMDL
MODEL 4
REMARK VINA RESULT:    -6.643      2.363      2.871
REMARK INTER + INTRA:          -8.744
REMARK INTER:                  -8.353
REMARK INTRA:                  -0.391
REMARK UNBOUND:                -0.548
REMARK  Name = 
REMARK  4 active torsions:
REMARK  status: ('A' for Active; 'I' for Inactive)
REMARK    1  A    between atoms: C_2  and  C_4
REMARK    2  A    between atoms: C_7  and  C_8
REMARK    3  A    between atoms: C_8  and  C_9
REMARK    4  A    between atoms: C_9  and  C_10
REMARK                            x       y       z     vdW  Elec       q    Type
REMARK                         _______ _______ _______ _____ _____    ______ ____
ROOT
ATOM      1  C   UNL     1      45.328   7.450  12.149  0.00  0.00    +0.000 A 
ATOM      2  C   UNL     1      46.324   6.506  12.346  0.00  0.00    +0.000 A 
ATOM      3  C   UNL     1      46.166   5.251  11.764  0.00  0.00    +0.000 A 
ATOM      4  C   UNL     1      45.019   4.960  11.018  0.00  0.00    +0.000 A 
ATOM      5  C   UNL     1      44.090   5.992  10.860  0.00  0.00    +0.000 A 
ATOM      6  N   UNL     1      44.207   7.225  11.409  0.00  0.00    +0.000 NA
ENDROOT
BRANCH   1   8
ATOM      7  N   UNL     1      46.385   8.888  13.791  0.00  0.00    +0.000 N 
ATOM      8  C   UNL     1      45.468   8.802  12.781  0.00  0.00    +0.000 C 
ATOM      9  O   UNL     1      44.816   9.772  12.418  0.00  0.00    +0.000 OA
ATOM     10  H   UNL     1      46.538   9.774  14.250  0.00  0.00    +0.000 HD
ATOM     11  H   UNL     1      46.913   8.066  14.060  0.00  0.00    +0.000 HD
ENDBRANCH   1   8
BRANCH   4  12
ATOM     12  C   UNL     1      44.792   3.625  10.348  0.00  0.00    +0.000 C 
BRANCH  12  13
ATOM     13  C   UNL     1      44.708   3.686   8.814  0.00  0.00    +0.000 C 
BRANCH  13  14
ATOM     14  C   UNL     1      45.776   2.866   8.139  0.00  0.00    +0.000 A 
ATOM     15  C   UNL     1      46.716   3.473   7.301  0.00  0.00    +0.000 A 
ATOM     16  C   UNL     1      47.692   2.683   6.713  0.00  0.00    +0.000 A 
ATOM     17  N   UNL     1      47.789   1.349   6.898  0.00  0.00    +0.000 NA
ATOM     18  C   UNL     1      46.870   0.782   7.707  0.00  0.00    +0.000 A 
ATOM     19  C   UNL     1      45.857   1.487   8.340  0.00  0.00    +0.000 A 
ENDBRANCH  13  14
ENDBRANCH  12  13
ENDBRANCH   4  12
TORSDOF 4
ENDMDL
MODEL 5
REMARK VINA RESULT:    -6.185      1.600      1.839
REMARK INTER + INTRA:          -8.179
REMARK INTER:                  -7.602
REMARK INTRA:                  -0.577
REMARK UNBOUND:                -0.548
REMARK  Name = 
REMARK  4 active torsions:
REMARK  status: ('A' for Active; 'I' for Inactive)
REMARK    1  A    between atoms: C_2  and  C_4
REMARK    2  A    between atoms: C_7  and  C_8
REMARK    3  A    between atoms: C_8  and  C_9
REMARK    4  A    between atoms: C_9  and  C_10
REMARK                            x       y       z     vdW  Elec       q    Type
REMARK                         _______ _______ _______ _____ _____    ______ ____
ROOT
ATOM      1  C   UNL     1      47.447   6.176  13.403  0.00  0.00    +0.000 A 
ATOM      2  C   UNL     1      46.969   6.737  12.230  0.00  0.00    +0.000 A 
ATOM      3  C   UNL     1      45.987   6.049  11.522  0.00  0.00    +0.000 A 
ATOM      4  C   UNL     1      45.519   4.816  11.988  0.00  0.00    +0.000 A 
ATOM      5  C   UNL     1      46.048   4.354  13.195  0.00  0.00    +0.000 A 
ATOM      6  N   UNL     1      47.003   4.993  13.912  0.00  0.00    +0.000 NA
ENDROOT
BRANCH   1   8
ATOM      7  N   UNL     1      48.675   8.215  13.869  0.00  0.00    +0.000 N 
ATOM      8  C   UNL     1      48.517   6.891  14.172  0.00  0.00    +0.000 C 
ATOM      9  O   UNL     1      49.202   6.338  15.022  0.00  0.00    +0.000 OA
ATOM     10  H   UNL     1      49.370   8.758  14.360  0.00  0.00    +0.000 HD
ATOM     11  H   UNL     1      48.084   8.642  13.165  0.00  0.00    +0.000 HD
ENDBRANCH   1   8
BRANCH   4  12
ATOM     12  C   UNL     1      44.444   4.024  11.278  0.00  0.00    +0.000 C 
BRANCH  12  13
ATOM     13  C   UNL     1      44.287   4.357   9.785  0.00  0.00    +0.000 C 
BRANCH  13  14
ATOM     14  C   UNL     1      45.191   3.532   8.906  0.00  0.00    +0.000 A 
ATOM     15  C   UNL     1      45.250   2.143   9.052  0.00  0.00    +0.000 A 
ATOM     16  C   UNL     1      46.083   1.421   8.210  0.00  0.00    +0.000 A 
ATOM     17  N   UNL     1      46.851   1.981   7.253  0.00  0.00    +0.000 NA
ATOM     18  C   UNL     1      46.782   3.324   7.132  0.00  0.00    +0.000 A 
ATOM     19  C   UNL     1      45.981   4.132   7.924  0.00  0.00    +0.000 A 
ENDBRANCH  13  14
ENDBRANCH  12  13
ENDBRANCH   4  12
TORSDOF 4
ENDMDL
MODEL 6
REMARK VINA RESULT:    -6.105      1.645      2.210
REMARK INTER + INTRA:          -8.081
REMARK INTER:                  -7.617
REMARK INTRA:                  -0.464
REMARK UNBOUND:                -0.548
REMARK  Name = 
REMARK  4 active torsions:
REMARK  status: ('A' for Active; 'I' for Inactive)
REMARK    1  A    between atoms: C_2  and  C_4
REMARK    2  A    between atoms: C_7  and  C_8
REMARK    3  A    between atoms: C_8  and  C_9
REMARK    4  A    between atoms: C_9  and  C_10
REMARK                            x       y       z     vdW  Elec       q    Type
REMARK                         _______ _______ _______ _____ _____    ______ ____
ROOT
ATOM      1  C   UNL     1      45.719   5.596  12.194  0.00  0.00    +0.000 A 
ATOM      2  C   UNL     1      45.528   4.295  12.633  0.00  0.00    +0.000 A 
ATOM      3  C   UNL     1      45.064   3.353  11.719  0.00  0.00    +0.000 A 
ATOM      4  C   UNL     1      44.788   3.729  10.400  0.00  0.00    +0.000 A 
ATOM      5  C   UNL     1      45.042   5.058  10.055  0.00  0.00    +0.000 A 
ATOM      6  N   UNL     1      45.492   6.004  10.915  0.00  0.00    +0.000 NA
ENDROOT
BRANCH   1   8
ATOM      7  N   UNL     1      47.066   6.183  14.124  0.00  0.00    +0.000 N 
ATOM      8  C   UNL     1      46.201   6.631  13.165  0.00  0.00    +0.000 C 
ATOM      9  O   UNL     1      45.854   7.804  13.107  0.00  0.00    +0.000 OA
ATOM     10  H   UNL     1      47.438   6.832  14.801  0.00  0.00    +0.000 HD
ATOM     11  H   UNL     1      47.338   5.206  14.136  0.00  0.00    +0.000 HD
ENDBRANCH   1   8
BRANCH   4  12
ATOM     12  C   UNL     1      44.298   2.754   9.354  0.00  0.00    +0.000 C 
BRANCH  12  13
ATOM     13  C   UNL     1      45.309   1.658   8.979  0.00  0.00    +0.000 C 
BRANCH  13  14
ATOM     14  C   UNL     1      46.151   2.025   7.785  0.00  0.00    +0.000 A 
ATOM     15  C   UNL     1      45.832   3.141   7.006  0.00  0.00    +0.000 A 
ATOM     16  C   UNL     1      46.643   3.453   5.926  0.00  0.00    +0.000 A 
ATOM     17  N   UNL     1      47.730   2.735   5.573  0.00  0.00    +0.000 NA
ATOM     18  C   UNL     1      48.018   1.659   6.335  0.00  0.00    +0.000 A 
ATOM     19  C   UNL     1      47.269   1.267   7.434  0.00  0.00    +0.000 A 
ENDBRANCH  13  14
ENDBRANCH  12  13
ENDBRANCH   4  12
TORSDOF 4
ENDMDL
MODEL 7
REMARK VINA RESULT:    -6.029      1.599      2.766
REMARK INTER + INTRA:          -7.986
REMARK INTER:                  -7.613
REMARK INTRA:                  -0.373
REMARK UNBOUND:                -0.548
REMARK  Name = 
REMARK  4 active torsions:
REMARK  status: ('A' for Active; 'I' for Inactive)
REMARK    1  A    between atoms: C_2  and  C_4
REMARK    2  A    between atoms: C_7  and  C_8
REMARK    3  A    between atoms: C_8  and  C_9
REMARK    4  A    between atoms: C_9  and  C_10
REMARK                            x       y       z     vdW  Elec       q    Type
REMARK                         _______ _______ _______ _____ _____    ______ ____
ROOT
ATOM      1  C   UNL     1      47.305   4.576  15.074  0.00  0.00    +0.000 A 
ATOM      2  C   UNL     1      47.790   5.809  14.669  0.00  0.00    +0.000 A 
ATOM      3  C   UNL     1      47.328   6.336  13.466  0.00  0.00    +0.000 A 
ATOM      4  C   UNL     1      46.411   5.619  12.690  0.00  0.00    +0.000 A 
ATOM      5  C   UNL     1      45.966   4.399  13.204  0.00  0.00    +0.000 A 
ATOM      6  N   UNL     1      46.391   3.853  14.368  0.00  0.00    +0.000 NA
ENDROOT
BRANCH   1   8
ATOM      7  N   UNL     1      46.837   3.473  17.182  0.00  0.00    +0.000 N 
ATOM      8  C   UNL     1      47.801   3.981  16.357  0.00  0.00    +0.000 C 
ATOM      9  O   UNL     1      48.988   3.941  16.652  0.00  0.00    +0.000 OA
ATOM     10  H   UNL     1      47.105   3.045  18.056  0.00  0.00    +0.000 HD
ATOM     11  H   UNL     1      45.864   3.515  16.902  0.00  0.00    +0.000 HD
ENDBRANCH   1   8
BRANCH   4  12
ATOM     12  C   UNL     1      45.858   6.140  11.383  0.00  0.00    +0.000 C 
BRANCH  12  13
ATOM     13  C   UNL     1      44.631   5.377  10.859  0.00  0.00    +0.000 C 
BRANCH  13  14
ATOM     14  C   UNL     1      44.988   4.327   9.840  0.00  0.00    +0.000 A 
ATOM     15  C   UNL     1      45.702   4.668   8.687  0.00  0.00    +0.000 A 
ATOM     16  C   UNL     1      46.025   3.668   7.784  0.00  0.00    +0.000 A 
ATOM     17  N   UNL     1      45.685   2.372   7.946  0.00  0.00    +0.000 NA
ATOM     18  C   UNL     1      44.992   2.064   9.063  0.00  0.00    +0.000 A 
ATOM     19  C   UNL     1      44.623   2.992  10.024  0.00  0.00    +0.000 A 
ENDBRANCH  13  14
ENDBRANCH  12  13
ENDBRANCH   4  12
TORSDOF 4
ENDMDL
MODEL 8
REMARK VINA RESULT:    -5.432      3.969      6.215
REMARK INTER + INTRA:          -7.250
REMARK INTER:                  -6.759
REMARK INTRA:                  -0.491
REMARK UNBOUND:                -0.548
REMARK  Name = 
REMARK  4 active torsions:
REMARK  status: ('A' for Active; 'I' for Inactive)
REMARK    1  A    between atoms: C_2  and  C_4
REMARK    2  A    between atoms: C_7  and  C_8
REMARK    3  A    between atoms: C_8  and  C_9
REMARK    4  A    between atoms: C_9  and  C_10
REMARK                            x       y       z     vdW  Elec       q    Type
REMARK                         _______ _______ _______ _____ _____    ______ ____
ROOT
ATOM      1  C   UNL     1      44.800   3.977  11.532  0.00  0.00    +0.000 A 
ATOM      2  C   UNL     1      45.191   4.984  10.664  0.00  0.00    +0.000 A 
ATOM      3  C   UNL     1      45.951   6.034  11.173  0.00  0.00    +0.000 A 
ATOM      4  C   UNL     1      46.288   6.066  12.530  0.00  0.00    +0.000 A 
ATOM      5  C   UNL     1      45.866   4.988  13.311  0.00  0.00    +0.000 A 
ATOM      6  N   UNL     1      45.126   3.949  12.855  0.00  0.00    +0.000 NA
ENDROOT
BRANCH   1   8
ATOM      7  N   UNL     1      44.438   2.239   9.880  0.00  0.00    +0.000 N 
ATOM      8  C   UNL     1      43.967   2.846  11.011  0.00  0.00    +0.000 C 
ATOM      9  O   UNL     1      42.936   2.476  11.559  0.00  0.00    +0.000 OA
ATOM     10  H   UNL     1      43.931   1.461   9.485  0.00  0.00    +0.000 HD
ATOM     11  H   UNL     1      45.300   2.566   9.459  0.00  0.00    +0.000 HD
ENDBRANCH   1   8
BRANCH   4  12
ATOM     12  C   UNL     1      47.122   7.168  13.143  0.00  0.00    +0.000 C 
BRANCH  12  13
ATOM     13  C   UNL     1      47.223   8.442  12.290  0.00  0.00    +0.000 C 
BRANCH  13  14
ATOM     14  C   UNL     1      48.629   8.724  11.826  0.00  0.00    +0.000 A 
ATOM     15  C   UNL     1      49.558   7.687  11.703  0.00  0.00    +0.000 A 
ATOM     16  C   UNL     1      50.835   7.987  11.256  0.00  0.00    +0.000 A 
ATOM     17  N   UNL     1      51.244   9.233  10.936  0.00  0.00    +0.000 NA
ATOM     18  C   UNL     1      50.333  10.221  11.067  0.00  0.00    +0.000 A 
ATOM     19  C   UNL     1      49.033  10.020  11.504  0.00  0.00    +0.000 A 
ENDBRANCH  13  14
ENDBRANCH  12  13
ENDBRANCH   4  12
TORSDOF 4
ENDMDL
MODEL 9
REMARK VINA RESULT:    -5.227      2.992      4.771
REMARK INTER + INTRA:          -6.998
REMARK INTER:                  -6.488
REMARK INTRA:                  -0.510
REMARK UNBOUND:                -0.548
REMARK  Name = 
REMARK  4 active torsions:
REMARK  status: ('A' for Active; 'I' for Inactive)
REMARK    1  A    between atoms: C_2  and  C_4
REMARK    2  A    between atoms: C_7  and  C_8
REMARK    3  A    between atoms: C_8  and  C_9
REMARK    4  A    between atoms: C_9  and  C_10
REMARK                            x       y       z     vdW  Elec       q    Type
REMARK                         _______ _______ _______ _____ _____    ______ ____
ROOT
ATOM      1  C   UNL     1      48.407   4.752  16.570  0.00  0.00    +0.000 A 
ATOM      2  C   UNL     1      47.402   3.978  16.012  0.00  0.00    +0.000 A 
ATOM      3  C   UNL     1      46.849   4.389  14.803  0.00  0.00    +0.000 A 
ATOM      4  C   UNL     1      47.295   5.563  14.188  0.00  0.00    +0.000 A 
ATOM      5  C   UNL     1      48.331   6.254  14.821  0.00  0.00    +0.000 A 
ATOM      6  N   UNL     1      48.895   5.888  15.997  0.00  0.00    +0.000 NA
ENDROOT
BRANCH   1   8
ATOM      7  N   UNL     1      49.452   3.049  17.944  0.00  0.00    +0.000 N 
ATOM      8  C   UNL     1      49.005   4.339  17.881  0.00  0.00    +0.000 C 
ATOM      9  O   UNL     1      49.099   5.101  18.834  0.00  0.00    +0.000 OA
ATOM     10  H   UNL     1      49.879   2.711  18.794  0.00  0.00    +0.000 HD
ATOM     11  H   UNL     1      49.366   2.448  17.132  0.00  0.00    +0.000 HD
ENDBRANCH   1   8
BRANCH   4  12
ATOM     12  C   UNL     1      46.748   6.057  12.868  0.00  0.00    +0.000 C 
BRANCH  12  13
ATOM     13  C   UNL     1      45.214   6.074  12.778  0.00  0.00    +0.000 C 
BRANCH  13  14
ATOM     14  C   UNL     1      44.664   4.913  11.990  0.00  0.00    +0.000 A 
ATOM     15  C   UNL     1      44.988   4.753  10.640  0.00  0.00    +0.000 A 
ATOM     16  C   UNL     1      44.473   3.661   9.957  0.00  0.00    +0.000 A 
ATOM     17  N   UNL     1      43.667   2.737  10.520  0.00  0.00    +0.000 NA
ATOM     18  C   UNL     1      43.362   2.913  11.824  0.00  0.00    +0.000 A 
ATOM     19  C   UNL     1      43.827   3.970  12.590  0.00  0.00    +0.000 A 
ENDBRANCH  13  14
ENDBRANCH  12  13
ENDBRANCH   4  12
TORSDOF 4
ENDMDL
