MODEL 1
REMARK VINA RESULT:    -9.090      0.000      0.000
REMARK INTER + INTRA:         -12.491
REMARK INTER:                 -11.747
REMARK INTRA:                  -0.744
REMARK UNBOUND:                -0.744
REMARK  Name = 
REMARK  5 active torsions:
REMARK  status: ('A' for Active; 'I' for Inactive)
REMARK    1  A    between atoms: C_2  and  C_4
REMARK    2  A    between atoms: C_7  and  O_8
REMARK    3  A    between atoms: O_8  and  C_9
REMARK    4  A    between atoms: C_9  and  C_10
REMARK    5  A    between atoms: C_15  and  C_16
REMARK                            x       y       z     vdW  Elec       q    Type
REMARK                         _______ _______ _______ _____ _____    ______ ____
ROOT
ATOM      1  C   UNL     1      43.994   4.336  11.444  0.00  0.00    +0.000 C 
ENDROOT
BRANCH   1   2
ATOM      2  C   UNL     1      45.192   4.952  12.139  0.00  0.00    +0.000 A 
ATOM      3  C   UNL     1      45.765   6.141  11.687  0.00  0.00    +0.000 A 
ATOM      4  C   UNL     1      46.858   6.685  12.354  0.00  0.00    +0.000 A 
ATOM      5  C   UNL     1      47.387   6.064  13.496  0.00  0.00    +0.000 A 
ATOM      6 CL   UNL     1      48.815   6.806  14.145  0.00  0.00    +0.000 Cl
ATOM      7  C   UNL     1      46.803   4.893  14.027  0.00  0.00    +0.000 A 
ATOM      8  C   UNL     1      45.698   4.363  13.315  0.00  0.00    +0.000 A 
BRANCH   7   9
ATOM      9  C   UNL     1      47.262   4.229  15.274  0.00  0.00    +0.000 A 
ATOM     10  C   UNL     1      47.156   4.821  16.536  0.00  0.00    +0.000 A 
ATOM     11  C   UNL     1      47.650   4.152  17.658  0.00  0.00    +0.000 A 
ATOM     12  C   UNL     1      48.217   2.896  17.507  0.00  0.00    +0.000 A 
ATOM     13  C   UNL     1      48.285   2.370  16.232  0.00  0.00    +0.000 A 
ATOM     14  N   UNL     1      47.847   3.015  15.129  0.00  0.00    +0.000 NA
ENDBRANCH   7   9
ENDBRANCH   1   2
BRANCH   1  15
ATOM     15  O   UNL     1      43.948   4.739  10.070  0.00  0.00    +0.000 OA
BRANCH  15  19
ATOM     16  C   UNL     1      46.456   2.470   7.726  0.00  0.00    +0.000 A 
ATOM     17  C   UNL     1      45.640   1.844   8.669  0.00  0.00    +0.000 A 
ATOM     18  C   UNL     1      44.798   2.626   9.462  0.00  0.00    +0.000 A 
ATOM     19  C   UNL     1      44.800   4.002   9.277  0.00  0.00    +0.000 A 
ATOM     20  N   UNL     1      45.585   4.631   8.377  0.00  0.00    +0.000 NA
ATOM     21  C   UNL     1      46.402   3.854   7.629  0.00  0.00    +0.000 A 
BRANCH  16  23
ATOM     22  N   UNL     1      48.487   2.414   6.389  0.00  0.00    +0.000 N 
ATOM     23  C   UNL     1      47.381   1.745   6.831  0.00  0.00    +0.000 C 
ATOM     24  O   UNL     1      47.188   0.577   6.526  0.00  0.00    +0.000 OA
ATOM     25  H   UNL     1      49.165   1.862   5.875  0.00  0.00    +0.000 HD
ATOM     26  H   UNL     1      48.812   3.274   6.808  0.00  0.00    +0.000 HD
ENDBRANCH  16  23
ENDBRANCH  15  19
ENDBRANCH   1  15
TORSDOF 5
ENDMDL
MODEL 2
REMARK VINA RESULT:    -8.678      2.424      4.026
REMARK INTER + INTRA:         -11.959
REMARK INTER:                 -11.148
REMARK INTRA:                  -0.810
REMARK UNBOUND:                -0.744
REMARK  Name = 
REMARK  5 active torsions:
REMARK  status: ('A' for Active; 'I' for Inactive)
REMARK    1  A    between atoms: C_2  and  C_4
REMARK    2  A    between atoms: C_7  and  O_8
REMARK    3  A    between atoms: O_8  and  C_9
REMARK    4  A    between atoms: C_9  and  C_10
REMARK    5  A    between atoms: C_15  and  C_16
REMARK                            x       y       z     vdW  Elec       q    Type
REMARK                         _______ _______ _______ _____ _____    ______ ____
ROOT
ATOM      1  C   UNL     1      43.650   4.381  10.628  0.00  0.00    +0.000 C 
ENDROOT
BRANCH   1   2
ATOM      2  C   UNL     1      44.740   4.759  11.610  0.00  0.00    +0.000 A 
ATOM      3  C   UNL     1      45.126   3.898  12.638  0.00  0.00    +0.000 A 
ATOM      4  C   UNL     1      46.137   4.273  13.517  0.00  0.00    +0.000 A 
ATOM      5  C   UNL     1      46.797   5.504  13.375  0.00  0.00    +0.000 A 
ATOM      6 CL   UNL     1      47.954   5.869  14.615  0.00  0.00    +0.000 Cl
ATOM      7  C   UNL     1      46.483   6.381  12.313  0.00  0.00    +0.000 A 
ATOM      8  C   UNL     1      45.441   5.970  11.444  0.00  0.00    +0.000 A 
BRANCH   7   9
ATOM      9  C   UNL     1      47.193   7.661  12.057  0.00  0.00    +0.000 A 
ATOM     10  C   UNL     1      48.539   7.724  11.682  0.00  0.00    +0.000 A 
ATOM     11  C   UNL     1      49.149   8.967  11.502  0.00  0.00    +0.000 A 
ATOM     12  C   UNL     1      48.403  10.123  11.673  0.00  0.00    +0.000 A 
ATOM     13  C   UNL     1      47.079   9.986  12.040  0.00  0.00    +0.000 A 
ATOM     14  N   UNL     1      46.479   8.795  12.255  0.00  0.00    +0.000 NA
ENDBRANCH   7   9
ENDBRANCH   1   2
BRANCH   1  15
ATOM     15  O   UNL     1      43.773   3.006  10.244  0.00  0.00    +0.000 OA
BRANCH  15  19
ATOM     16  C   UNL     1      46.559   2.533   7.253  0.00  0.00    +0.000 A 
ATOM     17  C   UNL     1      45.889   3.751   7.385  0.00  0.00    +0.000 A 
ATOM     18  C   UNL     1      44.942   3.896   8.400  0.00  0.00    +0.000 A 
ATOM     19  C   UNL     1      44.706   2.821   9.247  0.00  0.00    +0.000 A 
ATOM     20  N   UNL     1      45.335   1.632   9.135  0.00  0.00    +0.000 NA
ATOM     21  C   UNL     1      46.239   1.511   8.135  0.00  0.00    +0.000 A 
BRANCH  16  23
ATOM     22  N   UNL     1      47.683   3.157   5.188  0.00  0.00    +0.000 N 
ATOM     23  C   UNL     1      47.582   2.268   6.220  0.00  0.00    +0.000 C 
ATOM     24  O   UNL     1      48.336   1.309   6.301  0.00  0.00    +0.000 OA
ATOM     25  H   UNL     1      48.466   3.020   4.558  0.00  0.00    +0.000 HD
ATOM     26  H   UNL     1      47.264   4.076   5.212  0.00  0.00    +0.000 HD
ENDBRANCH  16  23
ENDBRANCH  15  19
ENDBRANCH   1  15
TORSDOF 5
ENDMDL
MODEL 3
REMARK VINA RESULT:    -8.586      2.149      3.965
REMARK INTER + INTRA:         -11.841
REMARK INTER:                 -11.115
REMARK INTRA:                  -0.726
REMARK UNBOUND:                -0.744
REMARK  Name = 
REMARK  5 active torsions:
REMARK  status: ('A' for Active; 'I' for Inactive)
REMARK    1  A    between atoms: C_2  and  C_4
REMARK    2  A    between atoms: C_7  and  O_8
REMARK    3  A    between atoms: O_8  and  C_9
REMARK    4  A    between atoms: C_9  and  C_10
REMARK    5  A    between atoms: C_15  and  C_16
REMARK                            x       y       z     vdW  Elec       q    Type
REMARK                         _______ _______ _______ _____ _____    ______ ____
ROOT
ATOM      1  C   UNL     1      43.595   4.124  11.229  0.00  0.00    +0.000 C 
ENDROOT
BRANCH   1   2
ATOM      2  C   UNL     1      44.744   4.730  12.009  0.00  0.00    +0.000 A 
ATOM      3  C   UNL     1      45.565   3.950  12.824  0.00  0.00    +0.000 A 
ATOM      4  C   UNL     1      46.617   4.538  13.518  0.00  0.00    +0.000 A 
ATOM      5  C   UNL     1      46.884   5.910  13.397  0.00  0.00    +0.000 A 
ATOM      6 CL   UNL     1      48.158   6.506  14.412  0.00  0.00    +0.000 Cl
ATOM      7  C   UNL     1      46.119   6.728  12.537  0.00  0.00    +0.000 A 
ATOM      8  C   UNL     1      45.050   6.097  11.854  0.00  0.00    +0.000 A 
BRANCH   7   9
ATOM      9  C   UNL     1      46.395   8.169  12.302  0.00  0.00    +0.000 A 
ATOM     10  C   UNL     1      45.390   9.141  12.260  0.00  0.00    +0.000 A 
ATOM     11  C   UNL     1      45.723  10.470  11.991  0.00  0.00    +0.000 A 
ATOM     12  C   UNL     1      47.052  10.812  11.793  0.00  0.00    +0.000 A 
ATOM     13  C   UNL     1      47.992   9.803  11.852  0.00  0.00    +0.000 A 
ATOM     14  N   UNL     1      47.688   8.505  12.075  0.00  0.00    +0.000 NA
ENDBRANCH   7   9
ENDBRANCH   1   2
BRANCH   1  15
ATOM     15  O   UNL     1      43.632   4.553   9.863  0.00  0.00    +0.000 OA
BRANCH  15  19
ATOM     16  C   UNL     1      46.450   2.485   7.692  0.00  0.00    +0.000 A 
ATOM     17  C   UNL     1      45.632   1.798   8.590  0.00  0.00    +0.000 A 
ATOM     18  C   UNL     1      44.684   2.512   9.325  0.00  0.00    +0.000 A 
ATOM     19  C   UNL     1      44.587   3.884   9.128  0.00  0.00    +0.000 A 
ATOM     20  N   UNL     1      45.371   4.571   8.272  0.00  0.00    +0.000 NA
ATOM     21  C   UNL     1      46.292   3.859   7.581  0.00  0.00    +0.000 A 
BRANCH  16  23
ATOM     22  N   UNL     1      48.530   2.600   6.437  0.00  0.00    +0.000 N 
ATOM     23  C   UNL     1      47.483   1.833   6.860  0.00  0.00    +0.000 C 
ATOM     24  O   UNL     1      47.425   0.642   6.589  0.00  0.00    +0.000 OA
ATOM     25  H   UNL     1      49.284   2.107   5.970  0.00  0.00    +0.000 HD
ATOM     26  H   UNL     1      48.747   3.502   6.837  0.00  0.00    +0.000 HD
ENDBRANCH  16  23
ENDBRANCH  15  19
ENDBRANCH   1  15
TORSDOF 5
ENDMDL
MODEL 4
REMARK VINA RESULT:    -8.210      2.769      3.427
REMARK INTER + INTRA:         -11.355
REMARK INTER:                 -10.530
REMARK INTRA:                  -0.825
REMARK UNBOUND:                -0.744
REMARK  Name = 
REMARK  5 active torsions:
REMARK  status: ('A' for Active; 'I' for Inactive)
REMARK    1  A    between atoms: C_2  and  C_4
REMARK    2  A    between atoms: C_7  and  O_8
REMARK    3  A    between atoms: O_8  and  C_9
REMARK    4  A    between atoms: C_9  and  C_10
REMARK    5  A    between atoms: C_15  and  C_16
REMARK                            x       y       z     vdW  Elec       q    Type
REMARK                         _______ _______ _______ _____ _____    ______ ____
ROOT
ATOM      1  C   UNL     1      44.293   3.499  11.490  0.00  0.00    +0.000 C 
ENDROOT
BRANCH   1   2
ATOM      2  C   UNL     1      44.575   4.982  11.616  0.00  0.00    +0.000 A 
ATOM      3  C   UNL     1      43.570   5.933  11.440  0.00  0.00    +0.000 A 
ATOM      4  C   UNL     1      43.862   7.288  11.571  0.00  0.00    +0.000 A 
ATOM      5  C   UNL     1      45.157   7.717  11.899  0.00  0.00    +0.000 A 
ATOM      6 CL   UNL     1      45.382   9.438  11.915  0.00  0.00    +0.000 Cl
ATOM      7  C   UNL     1      46.193   6.790  12.146  0.00  0.00    +0.000 A 
ATOM      8  C   UNL     1      45.861   5.420  11.994  0.00  0.00    +0.000 A 
BRANCH   7   9
ATOM      9  C   UNL     1      47.563   7.171  12.573  0.00  0.00    +0.000 A 
ATOM     10  C   UNL     1      48.533   7.651  11.686  0.00  0.00    +0.000 A 
ATOM     11  C   UNL     1      49.813   7.948  12.156  0.00  0.00    +0.000 A 
ATOM     12  C   UNL     1      50.100   7.788  13.503  0.00  0.00    +0.000 A 
ATOM     13  C   UNL     1      49.094   7.314  14.322  0.00  0.00    +0.000 A 
ATOM     14  N   UNL     1      47.859   6.985  13.883  0.00  0.00    +0.000 NA
ENDBRANCH   7   9
ENDBRANCH   1   2
BRANCH   1  15
ATOM     15  O   UNL     1      43.744   3.198  10.202  0.00  0.00    +0.000 OA
BRANCH  15  19
ATOM     16  C   UNL     1      46.668   2.648   7.359  0.00  0.00    +0.000 A 
ATOM     17  C   UNL     1      46.155   3.927   7.581  0.00  0.00    +0.000 A 
ATOM     18  C   UNL     1      45.159   4.099   8.545  0.00  0.00    +0.000 A 
ATOM     19  C   UNL     1      44.720   2.987   9.252  0.00  0.00    +0.000 A 
ATOM     20  N   UNL     1      45.195   1.741   9.050  0.00  0.00    +0.000 NA
ATOM     21  C   UNL     1      46.150   1.596   8.102  0.00  0.00    +0.000 A 
BRANCH  16  23
ATOM     22  N   UNL     1      47.733   3.078   5.215  0.00  0.00    +0.000 N 
ATOM     23  C   UNL     1      47.725   2.349   6.371  0.00  0.00    +0.000 C 
ATOM     24  O   UNL     1      48.583   1.508   6.590  0.00  0.00    +0.000 OA
ATOM     25  H   UNL     1      48.533   2.938   4.607  0.00  0.00    +0.000 HD
ATOM     26  H   UNL     1      47.211   3.936   5.103  0.00  0.00    +0.000 HD
ENDBRANCH  16  23
ENDBRANCH  15  19
ENDBRANCH   1  15
TORSDOF 5
ENDMDL
MODEL 5
REMARK VINA RESULT:    -7.060      1.604      2.074
REMARK INTER + INTRA:          -9.868
REMARK INTER:                  -9.737
REMARK INTRA:                  -0.131
REMARK UNBOUND:                -0.744
REMARK  Name = 
REMARK  5 active torsions:
REMARK  status: ('A' for Active; 'I' for Inactive)
REMARK    1  A    between atoms: C_2  and  C_4
REMARK    2  A    between atoms: C_7  and  O_8
REMARK    3  A    between atoms: O_8  and  C_9
REMARK    4  A    between atoms: C_9  and  C_10
REMARK    5  A    between atoms: C_15  and  C_16
REMARK                            x       y       z     vdW  Elec       q    Type
REMARK                         _______ _______ _______ _____ _____    ______ ____
ROOT
ATOM      1  C   UNL     1      43.629   3.748  10.625  0.00  0.00    +0.000 C 
ENDROOT
BRANCH   1   2
ATOM      2  C   UNL     1      44.271   4.931  11.323  0.00  0.00    +0.000 A 
ATOM      3  C   UNL     1      43.930   6.243  10.995  0.00  0.00    +0.000 A 
ATOM      4  C   UNL     1      44.532   7.306  11.663  0.00  0.00    +0.000 A 
ATOM      5  C   UNL     1      45.469   7.079  12.683  0.00  0.00    +0.000 A 
ATOM      6 CL   UNL     1      46.208   8.506  13.337  0.00  0.00    +0.000 Cl
ATOM      7  C   UNL     1      45.800   5.768  13.090  0.00  0.00    +0.000 A 
ATOM      8  C   UNL     1      45.175   4.711  12.382  0.00  0.00    +0.000 A 
BRANCH   7   9
ATOM      9  C   UNL     1      46.722   5.457  14.213  0.00  0.00    +0.000 A 
ATOM     10  C   UNL     1      47.824   6.254  14.538  0.00  0.00    +0.000 A 
ATOM     11  C   UNL     1      48.670   5.873  15.581  0.00  0.00    +0.000 A 
ATOM     12  C   UNL     1      48.392   4.719  16.297  0.00  0.00    +0.000 A 
ATOM     13  C   UNL     1      47.287   3.982  15.924  0.00  0.00    +0.000 A 
ATOM     14  N   UNL     1      46.475   4.312  14.895  0.00  0.00    +0.000 NA
ENDBRANCH   7   9
ENDBRANCH   1   2
BRANCH   1  15
ATOM     15  O   UNL     1      44.522   2.628  10.610  0.00  0.00    +0.000 OA
BRANCH  15  19
ATOM     16  C   UNL     1      46.720   2.494   7.134  0.00  0.00    +0.000 A 
ATOM     17  C   UNL     1      46.270   3.723   7.618  0.00  0.00    +0.000 A 
ATOM     18  C   UNL     1      45.521   3.755   8.796  0.00  0.00    +0.000 A 
ATOM     19  C   UNL     1      45.255   2.556   9.445  0.00  0.00    +0.000 A 
ATOM     20  N   UNL     1      45.672   1.355   8.993  0.00  0.00    +0.000 NA
ATOM     21  C   UNL     1      46.386   1.349   7.843  0.00  0.00    +0.000 A 
BRANCH  16  23
ATOM     22  N   UNL     1      47.272   3.205   4.874  0.00  0.00    +0.000 N 
ATOM     23  C   UNL     1      47.523   2.342   5.902  0.00  0.00    +0.000 C 
ATOM     24  O   UNL     1      48.404   1.499   5.817  0.00  0.00    +0.000 OA
ATOM     25  H   UNL     1      47.912   3.159   4.088  0.00  0.00    +0.000 HD
ATOM     26  H   UNL     1      46.743   4.059   4.990  0.00  0.00    +0.000 HD
ENDBRANCH  16  23
ENDBRANCH  15  19
ENDBRANCH   1  15
TORSDOF 5
ENDMDL
MODEL 6
REMARK VINA RESULT:    -6.511      4.398      8.215
REMARK INTER + INTRA:          -9.158
REMARK INTER:                  -8.431
REMARK INTRA:                  -0.728
REMARK UNBOUND:                -0.744
REMARK  Name = 
REMARK  5 active torsions:
REMARK  status: ('A' for Active; 'I' for Inactive)
REMARK    1  A    between atoms: C_2  and  C_4
REMARK    2  A    between atoms: C_7  and  O_8
REMARK    3  A    between atoms: O_8  and  C_9
REMARK    4  A    between atoms: C_9  and  C_10
REMARK    5  A    between atoms: C_15  and  C_16
REMARK                            x       y       z     vdW  Elec       q    Type
REMARK                         _______ _______ _______ _____ _____    ______ ____
ROOT
ATOM      1  C   UNL     1      48.220   4.383  17.095  0.00  0.00    +0.000 C 
ENDROOT
BRANCH   1   2
ATOM      2  C   UNL     1      47.879   5.112  15.811  0.00  0.00    +0.000 A 
ATOM      3  C   UNL     1      48.675   6.152  15.329  0.00  0.00    +0.000 A 
ATOM      4  C   UNL     1      48.337   6.793  14.141  0.00  0.00    +0.000 A 
ATOM      5  C   UNL     1      47.213   6.397  13.402  0.00  0.00    +0.000 A 
ATOM      6 CL   UNL     1      46.867   7.368  12.006  0.00  0.00    +0.000 Cl
ATOM      7  C   UNL     1      46.413   5.310  13.818  0.00  0.00    +0.000 A 
ATOM      8  C   UNL     1      46.781   4.687  15.037  0.00  0.00    +0.000 A 
BRANCH   7   9
ATOM      9  C   UNL     1      45.256   4.788  13.044  0.00  0.00    +0.000 A 
ATOM     10  C   UNL     1      45.337   3.663  12.218  0.00  0.00    +0.000 A 
ATOM     11  C   UNL     1      44.218   3.258  11.489  0.00  0.00    +0.000 A 
ATOM     12  C   UNL     1      43.031   3.964  11.614  0.00  0.00    +0.000 A 
ATOM     13  C   UNL     1      43.022   5.062  12.450  0.00  0.00    +0.000 A 
ATOM     14  N   UNL     1      44.103   5.493  13.137  0.00  0.00    +0.000 NA
ENDBRANCH   7   9
ENDBRANCH   1   2
BRANCH   1  15
ATOM     15  O   UNL     1      49.503   4.796  17.582  0.00  0.00    +0.000 OA
BRANCH  15  19
ATOM     16  C   UNL     1      52.273   1.754  17.688  0.00  0.00    +0.000 A 
ATOM     17  C   UNL     1      52.608   3.010  18.196  0.00  0.00    +0.000 A 
ATOM     18  C   UNL     1      51.661   4.035  18.149  0.00  0.00    +0.000 A 
ATOM     19  C   UNL     1      50.415   3.763  17.601  0.00  0.00    +0.000 A 
ATOM     20  N   UNL     1      50.069   2.560  17.096  0.00  0.00    +0.000 NA
ATOM     21  C   UNL     1      51.008   1.586  17.141  0.00  0.00    +0.000 A 
BRANCH  16  23
ATOM     22  N   UNL     1      52.850  -0.480  18.457  0.00  0.00    +0.000 N 
ATOM     23  C   UNL     1      53.191   0.597  17.689  0.00  0.00    +0.000 C 
ATOM     24  O   UNL     1      54.202   0.585  17.001  0.00  0.00    +0.000 OA
ATOM     25  H   UNL     1      53.431  -1.304  18.350  0.00  0.00    +0.000 HD
ATOM     26  H   UNL     1      51.922  -0.614  18.833  0.00  0.00    +0.000 HD
ENDBRANCH  16  23
ENDBRANCH  15  19
ENDBRANCH   1  15
TORSDOF 5
ENDMDL
MODEL 7
REMARK VINA RESULT:    -6.496      3.619      8.329
REMARK INTER + INTRA:          -9.139
REMARK INTER:                  -8.301
REMARK INTRA:                  -0.838
REMARK UNBOUND:                -0.744
REMARK  Name = 
REMARK  5 active torsions:
REMARK  status: ('A' for Active; 'I' for Inactive)
REMARK    1  A    between atoms: C_2  and  C_4
REMARK    2  A    between atoms: C_7  and  O_8
REMARK    3  A    between atoms: O_8  and  C_9
REMARK    4  A    between atoms: C_9  and  C_10
REMARK    5  A    between atoms: C_15  and  C_16
REMARK                            x       y       z     vdW  Elec       q    Type
REMARK                         _______ _______ _______ _____ _____    ______ ____
ROOT
ATOM      1  C   UNL     1      48.447   7.253  14.118  0.00  0.00    +0.000 C 
ENDROOT
BRANCH   1   2
ATOM      2  C   UNL     1      47.184   7.389  13.290  0.00  0.00    +0.000 A 
ATOM      3  C   UNL     1      46.446   8.572  13.276  0.00  0.00    +0.000 A 
ATOM      4  C   UNL     1      45.296   8.666  12.498  0.00  0.00    +0.000 A 
ATOM      5  C   UNL     1      44.874   7.589  11.703  0.00  0.00    +0.000 A 
ATOM      6 CL   UNL     1      43.365   7.827  10.880  0.00  0.00    +0.000 Cl
ATOM      7  C   UNL     1      45.623   6.394  11.637  0.00  0.00    +0.000 A 
ATOM      8  C   UNL     1      46.781   6.330  12.451  0.00  0.00    +0.000 A 
BRANCH   7   9
ATOM      9  C   UNL     1      45.277   5.246  10.759  0.00  0.00    +0.000 A 
ATOM     10  C   UNL     1      45.652   5.175   9.414  0.00  0.00    +0.000 A 
ATOM     11  C   UNL     1      45.253   4.084   8.640  0.00  0.00    +0.000 A 
ATOM     12  C   UNL     1      44.509   3.070   9.225  0.00  0.00    +0.000 A 
ATOM     13  C   UNL     1      44.177   3.204  10.558  0.00  0.00    +0.000 A 
ATOM     14  N   UNL     1      44.522   4.268  11.316  0.00  0.00    +0.000 NA
ENDBRANCH   7   9
ENDBRANCH   1   2
BRANCH   1  15
ATOM     15  O   UNL     1      48.639   5.892  14.521  0.00  0.00    +0.000 OA
BRANCH  15  19
ATOM     16  C   UNL     1      48.119   5.297  18.560  0.00  0.00    +0.000 A 
ATOM     17  C   UNL     1      47.538   4.411  17.652  0.00  0.00    +0.000 A 
ATOM     18  C   UNL     1      47.717   4.627  16.284  0.00  0.00    +0.000 A 
ATOM     19  C   UNL     1      48.475   5.717  15.878  0.00  0.00    +0.000 A 
ATOM     20  N   UNL     1      49.040   6.593  16.736  0.00  0.00    +0.000 NA
ATOM     21  C   UNL     1      48.841   6.370  18.056  0.00  0.00    +0.000 A 
BRANCH  16  23
ATOM     22  N   UNL     1      48.555   4.062  20.608  0.00  0.00    +0.000 N 
ATOM     23  C   UNL     1      47.999   5.165  20.026  0.00  0.00    +0.000 C 
ATOM     24  O   UNL     1      47.456   6.027  20.702  0.00  0.00    +0.000 OA
ATOM     25  H   UNL     1      48.565   4.051  21.623  0.00  0.00    +0.000 HD
ATOM     26  H   UNL     1      49.219   3.465  20.133  0.00  0.00    +0.000 HD
ENDBRANCH  16  23
ENDBRANCH  15  19
ENDBRANCH   1  15
TORSDOF 5
ENDMDL
MODEL 8
REMARK VINA RESULT:    -6.474      2.962      4.120
REMARK INTER + INTRA:          -9.110
REMARK INTER:                  -8.247
REMARK INTRA:                  -0.864
REMARK UNBOUND:                -0.744
REMARK  Name = 
REMARK  5 active torsions:
REMARK  status: ('A' for Active; 'I' for Inactive)
REMARK    1  A    between atoms: C_2  and  C_4
REMARK    2  A    between atoms: C_7  and  O_8
REMARK    3  A    between atoms: O_8  and  C_9
REMARK    4  A    between atoms: C_9  and  C_10
REMARK    5  A    between atoms: C_15  and  C_16
REMARK                            x       y       z     vdW  Elec       q    Type
REMARK                         _______ _______ _______ _____ _____    ______ ____
ROOT
ATOM      1  C   UNL     1      47.733   7.690  12.358  0.00  0.00    +0.000 C 
ENDROOT
BRANCH   1   2
ATOM      2  C   UNL     1      48.137   7.731  13.818  0.00  0.00    +0.000 A 
ATOM      3  C   UNL     1      48.309   8.940  14.493  0.00  0.00    +0.000 A 
ATOM      4  C   UNL     1      48.673   8.941  15.836  0.00  0.00    +0.000 A 
ATOM      5  C   UNL     1      48.851   7.738  16.536  0.00  0.00    +0.000 A 
ATOM      6 CL   UNL     1      49.410   7.911  18.170  0.00  0.00    +0.000 Cl
ATOM      7  C   UNL     1      48.628   6.491  15.912  0.00  0.00    +0.000 A 
ATOM      8  C   UNL     1      48.269   6.529  14.541  0.00  0.00    +0.000 A 
BRANCH   7   9
ATOM      9  C   UNL     1      48.722   5.185  16.613  0.00  0.00    +0.000 A 
ATOM     10  C   UNL     1      47.602   4.425  16.964  0.00  0.00    +0.000 A 
ATOM     11  C   UNL     1      47.768   3.227  17.660  0.00  0.00    +0.000 A 
ATOM     12  C   UNL     1      49.048   2.793  17.973  0.00  0.00    +0.000 A 
ATOM     13  C   UNL     1      50.108   3.590  17.592  0.00  0.00    +0.000 A 
ATOM     14  N   UNL     1      49.968   4.771  16.950  0.00  0.00    +0.000 NA
ENDBRANCH   7   9
ENDBRANCH   1   2
BRANCH   1  15
ATOM     15  O   UNL     1      46.312   7.812  12.227  0.00  0.00    +0.000 OA
BRANCH  15  19
ATOM     16  C   UNL     1      44.546   4.228  11.242  0.00  0.00    +0.000 A 
ATOM     17  C   UNL     1      45.208   4.964  10.258  0.00  0.00    +0.000 A 
ATOM     18  C   UNL     1      45.798   6.181  10.604  0.00  0.00    +0.000 A 
ATOM     19  C   UNL     1      45.707   6.612  11.921  0.00  0.00    +0.000 A 
ATOM     20  N   UNL     1      45.066   5.923  12.888  0.00  0.00    +0.000 NA
ATOM     21  C   UNL     1      44.491   4.753  12.526  0.00  0.00    +0.000 A 
BRANCH  16  23
ATOM     22  N   UNL     1      44.405   2.141  10.001  0.00  0.00    +0.000 N 
ATOM     23  C   UNL     1      43.890   2.928  10.991  0.00  0.00    +0.000 C 
ATOM     24  O   UNL     1      42.944   2.551  11.668  0.00  0.00    +0.000 OA
ATOM     25  H   UNL     1      44.015   1.207   9.927  0.00  0.00    +0.000 HD
ATOM     26  H   UNL     1      45.318   2.294   9.597  0.00  0.00    +0.000 HD
ENDBRANCH  16  23
ENDBRANCH  15  19
ENDBRANCH   1  15
TORSDOF 5
ENDMDL
MODEL 9
REMARK VINA RESULT:    -6.311      4.288      6.094
REMARK INTER + INTRA:          -8.900
REMARK INTER:                  -8.067
REMARK INTRA:                  -0.833
REMARK UNBOUND:                -0.744
REMARK  Name = 
REMARK  5 active torsions:
REMARK  status: ('A' for Active; 'I' for Inactive)
REMARK    1  A    between atoms: C_2  and  C_4
REMARK    2  A    between atoms: C_7  and  O_8
REMARK    3  A    between atoms: O_8  and  C_9
REMARK    4  A    between atoms: C_9  and  C_10
REMARK    5  A    between atoms: C_15  and  C_16
REMARK                            x       y       z     vdW  Elec       q    Type
REMARK                         _______ _______ _______ _____ _____    ______ ____
ROOT
ATOM      1  C   UNL     1      48.859   7.548  15.167  0.00  0.00    +0.000 C 
ENDROOT
BRANCH   1   2
ATOM      2  C   UNL     1      49.124   6.891  16.506  0.00  0.00    +0.000 A 
ATOM      3  C   UNL     1      48.547   7.373  17.681  0.00  0.00    +0.000 A 
ATOM      4  C   UNL     1      48.804   6.740  18.894  0.00  0.00    +0.000 A 
ATOM      5  C   UNL     1      49.625   5.603  18.954  0.00  0.00    +0.000 A 
ATOM      6 CL   UNL     1      49.935   5.000  20.551  0.00  0.00    +0.000 Cl
ATOM      7  C   UNL     1      50.181   5.043  17.783  0.00  0.00    +0.000 A 
ATOM      8  C   UNL     1      49.906   5.720  16.568  0.00  0.00    +0.000 A 
BRANCH   7   9
ATOM      9  C   UNL     1      50.993   3.798  17.764  0.00  0.00    +0.000 A 
ATOM     10  C   UNL     1      52.318   3.746  18.207  0.00  0.00    +0.000 A 
ATOM     11  C   UNL     1      53.030   2.548  18.118  0.00  0.00    +0.000 A 
ATOM     12  C   UNL     1      52.404   1.419  17.613  0.00  0.00    +0.000 A 
ATOM     13  C   UNL     1      51.093   1.542  17.197  0.00  0.00    +0.000 A 
ATOM     14  N   UNL     1      50.397   2.700  17.240  0.00  0.00    +0.000 NA
ENDBRANCH   7   9
ENDBRANCH   1   2
BRANCH   1  15
ATOM     15  O   UNL     1      48.946   6.586  14.109  0.00  0.00    +0.000 OA
BRANCH  15  19
ATOM     16  C   UNL     1      45.288   4.934  13.204  0.00  0.00    +0.000 A 
ATOM     17  C   UNL     1      45.523   6.282  12.927  0.00  0.00    +0.000 A 
ATOM     18  C   UNL     1      46.767   6.831  13.245  0.00  0.00    +0.000 A 
ATOM     19  C   UNL     1      47.728   6.011  13.820  0.00  0.00    +0.000 A 
ATOM     20  N   UNL     1      47.522   4.708  14.104  0.00  0.00    +0.000 NA
ATOM     21  C   UNL     1      46.305   4.201  13.800  0.00  0.00    +0.000 A 
BRANCH  16  23
ATOM     22  N   UNL     1      44.070   2.916  12.604  0.00  0.00    +0.000 N 
ATOM     23  C   UNL     1      44.014   4.246  12.908  0.00  0.00    +0.000 C 
ATOM     24  O   UNL     1      42.944   4.833  12.969  0.00  0.00    +0.000 OA
ATOM     25  H   UNL     1      43.178   2.440  12.521  0.00  0.00    +0.000 HD
ATOM     26  H   UNL     1      44.884   2.345  12.786  0.00  0.00    +0.000 HD
ENDBRANCH  16  23
ENDBRANCH  15  19
ENDBRANCH   1  15
TORSDOF 5
ENDMDL
