MODEL 1
REMARK VINA RESULT:    -7.569      0.000      0.000
REMARK INTER + INTRA:         -10.094
REMARK INTER:                  -9.561
REMARK INTRA:                  -0.533
REMARK UNBOUND:                -0.533
REMARK  Name = 
REMARK  5 active torsions:
REMARK  status: ('A' for Active; 'I' for Inactive)
REMARK    1  A    between atoms: N_1  and  C_2
REMARK    2  A    between atoms: C_2  and  C_3
REMARK    3  A    between atoms: C_3  and  C_4
REMARK    4  A    between atoms: C_7  and  C_8
REMARK    5  A    between atoms: C_8  and  N_9
REMARK                            x       y       z     vdW  Elec       q    Type
REMARK                         _______ _______ _______ _____ _____    ______ ____
ROOT
ATOM      1  C   UNL     1      46.140   2.191   7.784  0.00  0.00    +0.000 A 
ATOM      2  C   UNL     1      45.331   1.620   8.774  0.00  0.00    +0.000 A 
ATOM      3  C   UNL     1      44.559   2.426   9.615  0.00  0.00    +0.000 A 
ATOM      4  C   UNL     1      44.571   3.822   9.478  0.00  0.00    +0.000 A 
ATOM      5  C   UNL     1      45.364   4.389   8.470  0.00  0.00    +0.000 A 
ATOM      6  C   UNL     1      46.136   3.582   7.629  0.00  0.00    +0.000 A 
ENDROOT
BRANCH   1   7
ATOM      7  C   UNL     1      47.017   1.323   6.913  0.00  0.00    +0.000 C 
BRANCH   7   8
ATOM      8  C   UNL     1      48.328   2.008   6.516  0.00  0.00    +0.000 C 
BRANCH   8   9
ATOM      9  N   UNL     1      48.384   2.220   5.069  0.00  0.00    +0.000 NA
ATOM     10  H   UNL     1      48.994   1.521   4.647  0.00  0.00    +0.000 HD
ATOM     11  H   UNL     1      48.807   3.126   4.868  0.00  0.00    +0.000 HD
ENDBRANCH   8   9
ENDBRANCH   7   8
ENDBRANCH   1   7
BRANCH   4  12
ATOM     12  C   UNL     1      43.751   4.694  10.394  0.00  0.00    +0.000 C 
BRANCH  12  13
ATOM     13  N   UNL     1      44.337   4.816  11.718  0.00  0.00    +0.000 N 
ATOM     14  C   UNL     1      43.911   4.136  12.828  0.00  0.00    +0.000 A 
ATOM     15  N   UNL     1      44.712   4.318  13.853  0.00  0.00    +0.000 NA
ATOM     16  C   UNL     1      45.703   5.154  13.393  0.00  0.00    +0.000 A 
ATOM     17  C   UNL     1      46.832   5.663  14.045  0.00  0.00    +0.000 A 
ATOM     18  N   UNL     1      47.698   6.478  13.385  0.00  0.00    +0.000 NA
ATOM     19  C   UNL     1      47.444   6.785  12.092  0.00  0.00    +0.000 A 
ATOM     20  C   UNL     1      46.355   6.330  11.358  0.00  0.00    +0.000 A 
ATOM     21  C   UNL     1      45.488   5.490  12.055  0.00  0.00    +0.000 A 
ENDBRANCH  12  13
ENDBRANCH   4  12
TORSDOF 5
ENDMDL
MODEL 2
REMARK VINA RESULT:    -7.384      1.293      1.526
REMARK INTER + INTRA:          -9.860
REMARK INTER:                  -9.368
REMARK INTRA:                  -0.492
REMARK UNBOUND:                -0.533
REMARK  Name = 
REMARK  5 active torsions:
REMARK  status: ('A' for Active; 'I' for Inactive)
REMARK    1  A    between atoms: N_1  and  C_2
REMARK    2  A    between atoms: C_2  and  C_3
REMARK    3  A    between atoms: C_3  and  C_4
REMARK    4  A    between atoms: C_7  and  C_8
REMARK    5  A    between atoms: C_8  and  N_9
REMARK                            x       y       z     vdW  Elec       q    Type
REMARK                         _______ _______ _______ _____ _____    ______ ____
ROOT
ATOM      1  C   UNL     1      45.850   3.209   7.861  0.00  0.00    +0.000 A 
ATOM      2  C   UNL     1      45.257   2.298   8.744  0.00  0.00    +0.000 A 
ATOM      3  C   UNL     1      44.804   2.716   9.998  0.00  0.00    +0.000 A 
ATOM      4  C   UNL     1      44.924   4.057  10.393  0.00  0.00    +0.000 A 
ATOM      5  C   UNL     1      45.497   4.971   9.496  0.00  0.00    +0.000 A 
ATOM      6  C   UNL     1      45.950   4.552   8.242  0.00  0.00    +0.000 A 
ENDROOT
BRANCH   1   7
ATOM      7  C   UNL     1      46.391   2.745   6.528  0.00  0.00    +0.000 C 
BRANCH   7   8
ATOM      8  C   UNL     1      47.537   1.739   6.667  0.00  0.00    +0.000 C 
BRANCH   8   9
ATOM      9  N   UNL     1      48.523   1.925   5.602  0.00  0.00    +0.000 NA
ATOM     10  H   UNL     1      49.416   2.197   6.010  0.00  0.00    +0.000 HD
ATOM     11  H   UNL     1      48.239   2.698   4.999  0.00  0.00    +0.000 HD
ENDBRANCH   8   9
ENDBRANCH   7   8
ENDBRANCH   1   7
BRANCH   4  12
ATOM     12  C   UNL     1      44.450   4.506  11.751  0.00  0.00    +0.000 C 
BRANCH  12  13
ATOM     13  N   UNL     1      45.549   4.791  12.658  0.00  0.00    +0.000 N 
ATOM     14  C   UNL     1      46.347   3.843  13.242  0.00  0.00    +0.000 A 
ATOM     15  N   UNL     1      47.354   4.381  13.891  0.00  0.00    +0.000 NA
ATOM     16  C   UNL     1      47.206   5.739  13.726  0.00  0.00    +0.000 A 
ATOM     17  C   UNL     1      48.001   6.797  14.181  0.00  0.00    +0.000 A 
ATOM     18  N   UNL     1      47.667   8.083  13.888  0.00  0.00    +0.000 NA
ATOM     19  C   UNL     1      46.555   8.313  13.153  0.00  0.00    +0.000 A 
ATOM     20  C   UNL     1      45.705   7.334  12.654  0.00  0.00    +0.000 A 
ATOM     21  C   UNL     1      46.074   6.026  12.961  0.00  0.00    +0.000 A 
ENDBRANCH  12  13
ENDBRANCH   4  12
TORSDOF 5
ENDMDL
MODEL 3
REMARK VINA RESULT:    -7.266      1.124      1.956
REMARK INTER + INTRA:          -9.710
REMARK INTER:                  -9.189
REMARK INTRA:                  -0.522
REMARK UNBOUND:                -0.533
REMARK  Name = 
REMARK  5 active torsions:
REMARK  status: ('A' for Active; 'I' for Inactive)
REMARK    1  A    between atoms: N_1  and  C_2
REMARK    2  A    between atoms: C_2  and  C_3
REMARK    3  A    between atoms: C_3  and  C_4
REMARK    4  A    between atoms: C_7  and  C_8
REMARK    5  A    between atoms: C_8  and  N_9
REMARK                            x       y       z     vdW  Elec       q    Type
REMARK                         _______ _______ _______ _____ _____    ______ ____
ROOT
ATOM      1  C   UNL     1      46.118   2.299   7.789  0.00  0.00    +0.000 A 
ATOM      2  C   UNL     1      46.231   3.695   7.791  0.00  0.00    +0.000 A 
ATOM      3  C   UNL     1      45.520   4.464   8.715  0.00  0.00    +0.000 A 
ATOM      4  C   UNL     1      44.688   3.855   9.665  0.00  0.00    +0.000 A 
ATOM      5  C   UNL     1      44.595   2.455   9.675  0.00  0.00    +0.000 A 
ATOM      6  C   UNL     1      45.307   1.686   8.751  0.00  0.00    +0.000 A 
ENDROOT
BRANCH   1   7
ATOM      7  C   UNL     1      46.843   1.471   6.753  0.00  0.00    +0.000 C 
BRANCH   7   8
ATOM      8  C   UNL     1      48.223   2.032   6.399  0.00  0.00    +0.000 C 
BRANCH   8   9
ATOM      9  N   UNL     1      48.264   2.468   5.003  0.00  0.00    +0.000 NA
ATOM     10  H   UNL     1      49.230   2.486   4.680  0.00  0.00    +0.000 HD
ATOM     11  H   UNL     1      47.921   3.426   4.930  0.00  0.00    +0.000 HD
ENDBRANCH   8   9
ENDBRANCH   7   8
ENDBRANCH   1   7
BRANCH   4  12
ATOM     12  C   UNL     1      43.908   4.684  10.653  0.00  0.00    +0.000 C 
BRANCH  12  13
ATOM     13  N   UNL     1      44.769   5.471  11.521  0.00  0.00    +0.000 N 
ATOM     14  C   UNL     1      44.722   6.834  11.641  0.00  0.00    +0.000 A 
ATOM     15  N   UNL     1      45.501   7.269  12.604  0.00  0.00    +0.000 NA
ATOM     16  C   UNL     1      46.084   6.141  13.134  0.00  0.00    +0.000 A 
ATOM     17  C   UNL     1      46.984   6.003  14.197  0.00  0.00    +0.000 A 
ATOM     18  N   UNL     1      47.430   4.771  14.564  0.00  0.00    +0.000 NA
ATOM     19  C   UNL     1      46.988   3.690  13.881  0.00  0.00    +0.000 A 
ATOM     20  C   UNL     1      46.095   3.723  12.817  0.00  0.00    +0.000 A 
ATOM     21  C   UNL     1      45.647   4.996  12.467  0.00  0.00    +0.000 A 
ENDBRANCH  12  13
ENDBRANCH   4  12
TORSDOF 5
ENDMDL
MODEL 4
REMARK VINA RESULT:    -6.106      1.785      6.275
REMARK INTER + INTRA:          -8.246
REMARK INTER:                  -7.735
REMARK INTRA:                  -0.511
REMARK UNBOUND:                -0.533
REMARK  Name = 
REMARK  5 active torsions:
REMARK  status: ('A' for Active; 'I' for Inactive)
REMARK    1  A    between atoms: N_1  and  C_2
REMARK    2  A    between atoms: C_2  and  C_3
REMARK    3  A    between atoms: C_3  and  C_4
REMARK    4  A    between atoms: C_7  and  C_8
REMARK    5  A    between atoms: C_8  and  N_9
REMARK                            x       y       z     vdW  Elec       q    Type
REMARK                         _______ _______ _______ _____ _____    ______ ____
ROOT
ATOM      1  C   UNL     1      46.256   6.372  12.554  0.00  0.00    +0.000 A 
ATOM      2  C   UNL     1      45.258   5.409  12.750  0.00  0.00    +0.000 A 
ATOM      3  C   UNL     1      44.675   4.757  11.660  0.00  0.00    +0.000 A 
ATOM      4  C   UNL     1      45.085   5.046  10.350  0.00  0.00    +0.000 A 
ATOM      5  C   UNL     1      46.101   5.994  10.159  0.00  0.00    +0.000 A 
ATOM      6  C   UNL     1      46.684   6.645  11.250  0.00  0.00    +0.000 A 
ENDROOT
BRANCH   1   7
ATOM      7  C   UNL     1      46.846   7.117  13.729  0.00  0.00    +0.000 C 
BRANCH   7   8
ATOM      8  C   UNL     1      48.207   6.565  14.164  0.00  0.00    +0.000 C 
BRANCH   8   9
ATOM      9  N   UNL     1      48.235   6.338  15.609  0.00  0.00    +0.000 NA
ATOM     10  H   UNL     1      47.330   6.580  16.010  0.00  0.00    +0.000 HD
ATOM     11  H   UNL     1      48.914   6.962  16.044  0.00  0.00    +0.000 HD
ENDBRANCH   8   9
ENDBRANCH   7   8
ENDBRANCH   1   7
BRANCH   4  12
ATOM     12  C   UNL     1      44.446   4.355   9.173  0.00  0.00    +0.000 C 
BRANCH  12  13
ATOM     13  N   UNL     1      45.066   3.075   8.875  0.00  0.00    +0.000 N 
ATOM     14  C   UNL     1      44.588   1.860   9.287  0.00  0.00    +0.000 A 
ATOM     15  N   UNL     1      45.253   0.862   8.751  0.00  0.00    +0.000 NA
ATOM     16  C   UNL     1      46.209   1.452   7.956  0.00  0.00    +0.000 A 
ATOM     17  C   UNL     1      47.183   0.875   7.134  0.00  0.00    +0.000 A 
ATOM     18  N   UNL     1      48.032   1.661   6.418  0.00  0.00    +0.000 NA
ATOM     19  C   UNL     1      47.915   3.005   6.521  0.00  0.00    +0.000 A 
ATOM     20  C   UNL     1      46.983   3.672   7.306  0.00  0.00    +0.000 A 
ATOM     21  C   UNL     1      46.120   2.843   8.022  0.00  0.00    +0.000 A 
ENDBRANCH  12  13
ENDBRANCH   4  12
TORSDOF 5
ENDMDL
MODEL 5
REMARK VINA RESULT:    -6.059      1.903      6.495
REMARK INTER + INTRA:          -8.187
REMARK INTER:                  -7.859
REMARK INTRA:                  -0.328
REMARK UNBOUND:                -0.533
REMARK  Name = 
REMARK  5 active torsions:
REMARK  status: ('A' for Active; 'I' for Inactive)
REMARK    1  A    between atoms: N_1  and  C_2
REMARK    2  A    between atoms: C_2  and  C_3
REMARK    3  A    between atoms: C_3  and  C_4
REMARK    4  A    between atoms: C_7  and  C_8
REMARK    5  A    between atoms: C_8  and  N_9
REMARK                            x       y       z     vdW  Elec       q    Type
REMARK                         _______ _______ _______ _____ _____    ______ ____
ROOT
ATOM      1  C   UNL     1      46.386   5.003  13.516  0.00  0.00    +0.000 A 
ATOM      2  C   UNL     1      46.211   3.635  13.273  0.00  0.00    +0.000 A 
ATOM      3  C   UNL     1      45.580   3.195  12.106  0.00  0.00    +0.000 A 
ATOM      4  C   UNL     1      45.118   4.114  11.152  0.00  0.00    +0.000 A 
ATOM      5  C   UNL     1      45.315   5.482  11.389  0.00  0.00    +0.000 A 
ATOM      6  C   UNL     1      45.947   5.921  12.555  0.00  0.00    +0.000 A 
ENDROOT
BRANCH   1   7
ATOM      7  C   UNL     1      47.017   5.480  14.804  0.00  0.00    +0.000 C 
BRANCH   7   8
ATOM      8  C   UNL     1      48.182   6.448  14.575  0.00  0.00    +0.000 C 
BRANCH   8   9
ATOM      9  N   UNL     1      49.290   6.149  15.482  0.00  0.00    +0.000 NA
ATOM     10  H   UNL     1      49.856   6.986  15.615  0.00  0.00    +0.000 HD
ATOM     11  H   UNL     1      49.905   5.454  15.059  0.00  0.00    +0.000 HD
ENDBRANCH   8   9
ENDBRANCH   7   8
ENDBRANCH   1   7
BRANCH   4  12
ATOM     12  C   UNL     1      44.423   3.641   9.901  0.00  0.00    +0.000 C 
BRANCH  12  13
ATOM     13  N   UNL     1      45.304   3.629   8.746  0.00  0.00    +0.000 N 
ATOM     14  C   UNL     1      45.774   4.746   8.108  0.00  0.00    +0.000 A 
ATOM     15  N   UNL     1      46.670   4.451   7.195  0.00  0.00    +0.000 NA
ATOM     16  C   UNL     1      46.790   3.081   7.237  0.00  0.00    +0.000 A 
ATOM     17  C   UNL     1      47.615   2.223   6.501  0.00  0.00    +0.000 A 
ATOM     18  N   UNL     1      47.575   0.880   6.716  0.00  0.00    +0.000 NA
ATOM     19  C   UNL     1      46.724   0.396   7.651  0.00  0.00    +0.000 A 
ATOM     20  C   UNL     1      45.870   1.164   8.432  0.00  0.00    +0.000 A 
ATOM     21  C   UNL     1      45.936   2.537   8.198  0.00  0.00    +0.000 A 
ENDBRANCH  12  13
ENDBRANCH   4  12
TORSDOF 5
ENDMDL
MODEL 6
REMARK VINA RESULT:    -5.949      2.010      6.337
REMARK INTER + INTRA:          -8.048
REMARK INTER:                  -7.600
REMARK INTRA:                  -0.448
REMARK UNBOUND:                -0.533
REMARK  Name = 
REMARK  5 active torsions:
REMARK  status: ('A' for Active; 'I' for Inactive)
REMARK    1  A    between atoms: N_1  and  C_2
REMARK    2  A    between atoms: C_2  and  C_3
REMARK    3  A    between atoms: C_3  and  C_4
REMARK    4  A    between atoms: C_7  and  C_8
REMARK    5  A    between atoms: C_8  and  N_9
REMARK                            x       y       z     vdW  Elec       q    Type
REMARK                         _______ _______ _______ _____ _____    ______ ____
ROOT
ATOM      1  C   UNL     1      47.918   6.947  13.984  0.00  0.00    +0.000 A 
ATOM      2  C   UNL     1      47.316   5.683  14.023  0.00  0.00    +0.000 A 
ATOM      3  C   UNL     1      46.148   5.429  13.299  0.00  0.00    +0.000 A 
ATOM      4  C   UNL     1      45.562   6.431  12.512  0.00  0.00    +0.000 A 
ATOM      5  C   UNL     1      46.181   7.689  12.457  0.00  0.00    +0.000 A 
ATOM      6  C   UNL     1      47.349   7.942  13.181  0.00  0.00    +0.000 A 
ENDROOT
BRANCH   1   7
ATOM      7  C   UNL     1      49.149   7.237  14.811  0.00  0.00    +0.000 C 
BRANCH   7   8
ATOM      8  C   UNL     1      49.050   6.692  16.239  0.00  0.00    +0.000 C 
BRANCH   8   9
ATOM      9  N   UNL     1      50.022   5.618  16.452  0.00  0.00    +0.000 NA
ATOM     10  H   UNL     1      50.506   5.420  15.577  0.00  0.00    +0.000 HD
ATOM     11  H   UNL     1      49.537   4.760  16.711  0.00  0.00    +0.000 HD
ENDBRANCH   8   9
ENDBRANCH   7   8
ENDBRANCH   1   7
BRANCH   4  12
ATOM     12  C   UNL     1      44.293   6.164  11.742  0.00  0.00    +0.000 C 
BRANCH  12  13
ATOM     13  N   UNL     1      44.226   4.803  11.235  0.00  0.00    +0.000 N 
ATOM     14  C   UNL     1      43.437   3.813  11.756  0.00  0.00    +0.000 A 
ATOM     15  N   UNL     1      43.455   2.729  11.015  0.00  0.00    +0.000 NA
ATOM     16  C   UNL     1      44.295   3.025   9.965  0.00  0.00    +0.000 A 
ATOM     17  C   UNL     1      44.667   2.251   8.860  0.00  0.00    +0.000 A 
ATOM     18  N   UNL     1      45.516   2.754   7.923  0.00  0.00    +0.000 NA
ATOM     19  C   UNL     1      45.990   4.011   8.085  0.00  0.00    +0.000 A 
ATOM     20  C   UNL     1      45.678   4.857   9.142  0.00  0.00    +0.000 A 
ATOM     21  C   UNL     1      44.801   4.320  10.083  0.00  0.00    +0.000 A 
ENDBRANCH  12  13
ENDBRANCH   4  12
TORSDOF 5
ENDMDL
MODEL 7
REMARK VINA RESULT:    -5.781      1.515      2.671
REMARK INTER + INTRA:          -7.835
REMARK INTER:                  -7.376
REMARK INTRA:                  -0.459
REMARK UNBOUND:                -0.533
REMARK  Name = 
REMARK  5 active torsions:
REMARK  status: ('A' for Active; 'I' for Inactive)
REMARK    1  A    between atoms: N_1  and  C_2
REMARK    2  A    between atoms: C_2  and  C_3
REMARK    3  A    between atoms: C_3  and  C_4
REMARK    4  A    between atoms: C_7  and  C_8
REMARK    5  A    between atoms: C_8  and  N_9
REMARK                            x       y       z     vdW  Elec       q    Type
REMARK                         _______ _______ _______ _____ _____    ______ ____
ROOT
ATOM      1  C   UNL     1      45.463   3.389   8.738  0.00  0.00    +0.000 A 
ATOM      2  C   UNL     1      44.861   2.825   9.869  0.00  0.00    +0.000 A 
ATOM      3  C   UNL     1      44.618   3.600  11.006  0.00  0.00    +0.000 A 
ATOM      4  C   UNL     1      44.961   4.960  11.034  0.00  0.00    +0.000 A 
ATOM      5  C   UNL     1      45.542   5.527   9.890  0.00  0.00    +0.000 A 
ATOM      6  C   UNL     1      45.786   4.751   8.753  0.00  0.00    +0.000 A 
ENDROOT
BRANCH   1   7
ATOM      7  C   UNL     1      45.779   2.538   7.530  0.00  0.00    +0.000 C 
BRANCH   7   8
ATOM      8  C   UNL     1      46.636   3.268   6.492  0.00  0.00    +0.000 C 
BRANCH   8   9
ATOM      9  N   UNL     1      48.037   2.862   6.599  0.00  0.00    +0.000 NA
ATOM     10  H   UNL     1      48.087   1.881   6.873  0.00  0.00    +0.000 HD
ATOM     11  H   UNL     1      48.494   3.389   7.343  0.00  0.00    +0.000 HD
ENDBRANCH   8   9
ENDBRANCH   7   8
ENDBRANCH   1   7
BRANCH   4  12
ATOM     12  C   UNL     1      44.713   5.793  12.264  0.00  0.00    +0.000 C 
BRANCH  12  13
ATOM     13  N   UNL     1      45.943   6.291  12.857  0.00  0.00    +0.000 N 
ATOM     14  C   UNL     1      46.483   7.526  12.615  0.00  0.00    +0.000 A 
ATOM     15  N   UNL     1      47.510   7.774  13.395  0.00  0.00    +0.000 NA
ATOM     16  C   UNL     1      47.647   6.651  14.180  0.00  0.00    +0.000 A 
ATOM     17  C   UNL     1      48.559   6.369  15.202  0.00  0.00    +0.000 A 
ATOM     18  N   UNL     1      48.506   5.180  15.862  0.00  0.00    +0.000 NA
ATOM     19  C   UNL     1      47.557   4.282  15.507  0.00  0.00    +0.000 A 
ATOM     20  C   UNL     1      46.607   4.470  14.511  0.00  0.00    +0.000 A 
ATOM     21  C   UNL     1      46.679   5.699  13.857  0.00  0.00    +0.000 A 
ENDBRANCH  12  13
ENDBRANCH   4  12
TORSDOF 5
ENDMDL
MODEL 8
REMARK VINA RESULT:    -5.757      1.946      3.297
REMARK INTER + INTRA:          -7.805
REMARK INTER:                  -7.314
REMARK INTRA:                  -0.491
REMARK UNBOUND:                -0.533
REMARK  Name = 
REMARK  5 active torsions:
REMARK  status: ('A' for Active; 'I' for Inactive)
REMARK    1  A    between atoms: N_1  and  C_2
REMARK    2  A    between atoms: C_2  and  C_3
REMARK    3  A    between atoms: C_3  and  C_4
REMARK    4  A    between atoms: C_7  and  C_8
REMARK    5  A    between atoms: C_8  and  N_9
REMARK                            x       y       z     vdW  Elec       q    Type
REMARK                         _______ _______ _______ _____ _____    ______ ____
ROOT
ATOM      1  C   UNL     1      44.849   3.217   9.902  0.00  0.00    +0.000 A 
ATOM      2  C   UNL     1      44.506   2.981  11.239  0.00  0.00    +0.000 A 
ATOM      3  C   UNL     1      44.603   4.001  12.189  0.00  0.00    +0.000 A 
ATOM      4  C   UNL     1      45.034   5.284  11.821  0.00  0.00    +0.000 A 
ATOM      5  C   UNL     1      45.354   5.523  10.476  0.00  0.00    +0.000 A 
ATOM      6  C   UNL     1      45.257   4.502   9.527  0.00  0.00    +0.000 A 
ENDROOT
BRANCH   1   7
ATOM      7  C   UNL     1      44.799   2.098   8.887  0.00  0.00    +0.000 C 
BRANCH   7   8
ATOM      8  C   UNL     1      46.113   1.932   8.118  0.00  0.00    +0.000 C 
BRANCH   8   9
ATOM      9  N   UNL     1      46.473   0.518   8.008  0.00  0.00    +0.000 NA
ATOM     10  H   UNL     1      45.631  -0.053   8.066  0.00  0.00    +0.000 HD
ATOM     11  H   UNL     1      47.056   0.247   8.800  0.00  0.00    +0.000 HD
ENDBRANCH   8   9
ENDBRANCH   7   8
ENDBRANCH   1   7
BRANCH   4  12
ATOM     12  C   UNL     1      45.153   6.381  12.847  0.00  0.00    +0.000 C 
BRANCH  12  13
ATOM     13  N   UNL     1      46.535   6.723  13.138  0.00  0.00    +0.000 N 
ATOM     14  C   UNL     1      47.456   5.865  13.678  0.00  0.00    +0.000 A 
ATOM     15  N   UNL     1      48.662   6.385  13.693  0.00  0.00    +0.000 NA
ATOM     16  C   UNL     1      48.522   7.638  13.141  0.00  0.00    +0.000 A 
ATOM     17  C   UNL     1      49.480   8.626  12.887  0.00  0.00    +0.000 A 
ATOM     18  N   UNL     1      49.116   9.806  12.316  0.00  0.00    +0.000 NA
ATOM     19  C   UNL     1      47.814  10.001  12.004  0.00  0.00    +0.000 A 
ATOM     20  C   UNL     1      46.792   9.084  12.212  0.00  0.00    +0.000 A 
ATOM     21  C   UNL     1      47.193   7.880  12.791  0.00  0.00    +0.000 A 
ENDBRANCH  12  13
ENDBRANCH   4  12
TORSDOF 5
ENDMDL
MODEL 9
REMARK VINA RESULT:    -5.416      3.632      7.733
REMARK INTER + INTRA:          -7.375
REMARK INTER:                  -6.920
REMARK INTRA:                  -0.455
REMARK UNBOUND:                -0.533
REMARK  Name = 
REMARK  5 active torsions:
REMARK  status: ('A' for Active; 'I' for Inactive)
REMARK    1  A    between atoms: N_1  and  C_2
REMARK    2  A    between atoms: C_2  and  C_3
REMARK    3  A    between atoms: C_3  and  C_4
REMARK    4  A    between atoms: C_7  and  C_8
REMARK    5  A    between atoms: C_8  and  N_9
REMARK                            x       y       z     vdW  Elec       q    Type
REMARK                         _______ _______ _______ _____ _____    ______ ____
ROOT
ATOM      1  C   UNL     1      48.259   5.438  17.196  0.00  0.00    +0.000 A 
ATOM      2  C   UNL     1      48.788   6.507  16.463  0.00  0.00    +0.000 A 
ATOM      3  C   UNL     1      48.569   6.603  15.087  0.00  0.00    +0.000 A 
ATOM      4  C   UNL     1      47.808   5.636  14.413  0.00  0.00    +0.000 A 
ATOM      5  C   UNL     1      47.260   4.579  15.156  0.00  0.00    +0.000 A 
ATOM      6  C   UNL     1      47.479   4.485  16.532  0.00  0.00    +0.000 A 
ENDROOT
BRANCH   1   7
ATOM      7  C   UNL     1      48.543   5.305  18.675  0.00  0.00    +0.000 C 
BRANCH   7   8
ATOM      8  C   UNL     1      48.794   3.857  19.106  0.00  0.00    +0.000 C 
BRANCH   8   9
ATOM      9  N   UNL     1      48.336   3.638  20.478  0.00  0.00    +0.000 NA
ATOM     10  H   UNL     1      49.068   3.918  21.130  0.00  0.00    +0.000 HD
ATOM     11  H   UNL     1      48.179   2.643  20.635  0.00  0.00    +0.000 HD
ENDBRANCH   8   9
ENDBRANCH   7   8
ENDBRANCH   1   7
BRANCH   4  12
ATOM     12  C   UNL     1      47.584   5.729  12.926  0.00  0.00    +0.000 C 
BRANCH  12  13
ATOM     13  N   UNL     1      46.191   5.964  12.586  0.00  0.00    +0.000 N 
ATOM     14  C   UNL     1      45.622   7.200  12.428  0.00  0.00    +0.000 A 
ATOM     15  N   UNL     1      44.393   7.121  11.974  0.00  0.00    +0.000 NA
ATOM     16  C   UNL     1      44.147   5.774  11.831  0.00  0.00    +0.000 A 
ATOM     17  C   UNL     1      43.009   5.108  11.363  0.00  0.00    +0.000 A 
ATOM     18  N   UNL     1      42.988   3.749  11.295  0.00  0.00    +0.000 NA
ATOM     19  C   UNL     1      44.084   3.062  11.691  0.00  0.00    +0.000 A 
ATOM     20  C   UNL     1      45.259   3.630  12.165  0.00  0.00    +0.000 A 
ATOM     21  C   UNL     1      45.258   5.023  12.217  0.00  0.00    +0.000 A 
ENDBRANCH  12  13
ENDBRANCH   4  12
TORSDOF 5
ENDMDL
