MODEL 1
REMARK VINA RESULT:    -8.920      0.000      0.000
REMARK INTER + INTRA:         -12.715
REMARK INTER:                 -11.527
REMARK INTRA:                  -1.188
REMARK UNBOUND:                -1.188
REMARK  Name = 
REMARK  6 active torsions:
REMARK  status: ('A' for Active; 'I' for Inactive)
REMARK    1  A    between atoms: C_1  and  C_2
REMARK    2  A    between atoms: N_7  and  C_8
REMARK    3  A    between atoms: C_12  and  C_13
REMARK    4  A    between atoms: C_13  and  N_14
REMARK    5  A    between atoms: N_14  and  C_15
REMARK    6  A    between atoms: C_18  and  C_19
REMARK                            x       y       z     vdW  Elec       q    Type
REMARK                         _______ _______ _______ _____ _____    ______ ____
ROOT
ATOM      1  C   UNL     1      43.697   5.417  11.136  0.00  0.00    +0.000 C 
ATOM      2  C   UNL     1      42.995   6.753  11.275  0.00  0.00    +0.000 C 
ATOM      3  C   UNL     1      42.348   5.539  11.850  0.00  0.00    +0.000 C 
ENDROOT
BRANCH   1   8
ATOM      4  C   UNL     1      47.059   5.985  12.962  0.00  0.00    +0.000 A 
ATOM      5  C   UNL     1      47.243   4.721  13.535  0.00  0.00    +0.000 A 
ATOM      6  C   UNL     1      46.304   3.699  13.369  0.00  0.00    +0.000 A 
ATOM      7  C   UNL     1      45.158   3.917  12.608  0.00  0.00    +0.000 A 
ATOM      8  C   UNL     1      44.925   5.156  12.001  0.00  0.00    +0.000 A 
ATOM      9  C   UNL     1      45.885   6.167  12.214  0.00  0.00    +0.000 A 
BRANCH   4  16
ATOM     10  C   UNL     1      49.675   7.807  11.494  0.00  0.00    +0.000 C 
ATOM     11  C   UNL     1      48.231   7.952  11.982  0.00  0.00    +0.000 C 
ATOM     12  C   UNL     1      47.933   9.395  12.452  0.00  0.00    +0.000 C 
ATOM     13  O   UNL     1      48.628   9.736  13.663  0.00  0.00    +0.000 OA
ATOM     14  C   UNL     1      48.235   8.847  14.723  0.00  0.00    +0.000 C 
ATOM     15  C   UNL     1      48.570   7.389  14.388  0.00  0.00    +0.000 C 
ATOM     16  N   UNL     1      47.977   7.010  13.095  0.00  0.00    +0.000 N 
ENDBRANCH   4  16
ENDBRANCH   1   8
BRANCH   1  17
ATOM     17  N   UNL     1      43.628   4.579   9.934  0.00  0.00    +0.000 N 
ATOM     18  H   UNL     1      42.748   4.085   9.806  0.00  0.00    +0.000 HD
BRANCH  17  19
ATOM     19  C   UNL     1      44.688   3.974   9.240  0.00  0.00    +0.000 A 
ATOM     20  C   UNL     1      45.584   4.648   8.408  0.00  0.00    +0.000 A 
ATOM     21  C   UNL     1      46.537   3.941   7.650  0.00  0.00    +0.000 A 
ATOM     22  C   UNL     1      46.578   2.542   7.695  0.00  0.00    +0.000 A 
ATOM     23  C   UNL     1      45.679   1.859   8.516  0.00  0.00    +0.000 A 
ATOM     24  C   UNL     1      44.751   2.571   9.275  0.00  0.00    +0.000 A 
BRANCH  22  25
ATOM     25  C   UNL     1      47.501   1.728   6.859  0.00  0.00    +0.000 C 
ATOM     26  N   UNL     1      48.555   2.368   6.267  0.00  0.00    +0.000 N 
ATOM     27  O   UNL     1      47.354   0.520   6.727  0.00  0.00    +0.000 OA
ATOM     28  H   UNL     1      48.860   3.286   6.551  0.00  0.00    +0.000 HD
ATOM     29  H   UNL     1      49.223   1.770   5.797  0.00  0.00    +0.000 HD
ENDBRANCH  22  25
ENDBRANCH  17  19
ENDBRANCH   1  17
TORSDOF 5
ENDMDL
MODEL 2
REMARK VINA RESULT:    -7.965      1.168      1.995
REMARK INTER + INTRA:         -11.482
REMARK INTER:                 -10.896
REMARK INTRA:                  -0.585
REMARK UNBOUND:                -1.188
REMARK  Name = 
REMARK  6 active torsions:
REMARK  status: ('A' for Active; 'I' for Inactive)
REMARK    1  A    between atoms: C_1  and  C_2
REMARK    2  A    between atoms: N_7  and  C_8
REMARK    3  A    between atoms: C_12  and  C_13
REMARK    4  A    between atoms: C_13  and  N_14
REMARK    5  A    between atoms: N_14  and  C_15
REMARK    6  A    between atoms: C_18  and  C_19
REMARK                            x       y       z     vdW  Elec       q    Type
REMARK                         _______ _______ _______ _____ _____    ______ ____
ROOT
ATOM      1  C   UNL     1      43.918   5.165  11.520  0.00  0.00    +0.000 C 
ATOM      2  C   UNL     1      42.921   4.849  12.618  0.00  0.00    +0.000 C 
ATOM      3  C   UNL     1      44.183   4.059  12.547  0.00  0.00    +0.000 C 
ENDROOT
BRANCH   1   8
ATOM      4  C   UNL     1      46.904   7.531  12.187  0.00  0.00    +0.000 A 
ATOM      5  C   UNL     1      46.296   8.767  11.945  0.00  0.00    +0.000 A 
ATOM      6  C   UNL     1      44.958   8.860  11.551  0.00  0.00    +0.000 A 
ATOM      7  C   UNL     1      44.190   7.707  11.403  0.00  0.00    +0.000 A 
ATOM      8  C   UNL     1      44.740   6.443  11.642  0.00  0.00    +0.000 A 
ATOM      9  C   UNL     1      46.100   6.393  12.014  0.00  0.00    +0.000 A 
BRANCH   4  16
ATOM     10  C   UNL     1      50.293   7.673  11.284  0.00  0.00    +0.000 C 
ATOM     11  C   UNL     1      49.246   8.379  12.150  0.00  0.00    +0.000 C 
ATOM     12  C   UNL     1      49.890   9.048  13.387  0.00  0.00    +0.000 C 
ATOM     13  O   UNL     1      50.379   8.091  14.341  0.00  0.00    +0.000 OA
ATOM     14  C   UNL     1      49.297   7.266  14.810  0.00  0.00    +0.000 C 
ATOM     15  C   UNL     1      48.644   6.489  13.661  0.00  0.00    +0.000 C 
ATOM     16  N   UNL     1      48.220   7.409  12.594  0.00  0.00    +0.000 N 
ENDBRANCH   4  16
ENDBRANCH   1   8
BRANCH   1  17
ATOM     17  N   UNL     1      43.813   4.652  10.151  0.00  0.00    +0.000 N 
ATOM     18  H   UNL     1      42.875   4.384   9.864  0.00  0.00    +0.000 HD
BRANCH  17  19
ATOM     19  C   UNL     1      44.808   4.023   9.385  0.00  0.00    +0.000 A 
ATOM     20  C   UNL     1      45.670   4.678   8.504  0.00  0.00    +0.000 A 
ATOM     21  C   UNL     1      46.551   3.950   7.681  0.00  0.00    +0.000 A 
ATOM     22  C   UNL     1      46.552   2.551   7.710  0.00  0.00    +0.000 A 
ATOM     23  C   UNL     1      45.686   1.887   8.580  0.00  0.00    +0.000 A 
ATOM     24  C   UNL     1      44.829   2.618   9.404  0.00  0.00    +0.000 A 
BRANCH  22  25
ATOM     25  C   UNL     1      47.394   1.718   6.810  0.00  0.00    +0.000 C 
ATOM     26  N   UNL     1      48.454   2.323   6.191  0.00  0.00    +0.000 N 
ATOM     27  O   UNL     1      47.179   0.524   6.648  0.00  0.00    +0.000 OA
ATOM     28  H   UNL     1      48.817   3.214   6.488  0.00  0.00    +0.000 HD
ATOM     29  H   UNL     1      49.068   1.707   5.673  0.00  0.00    +0.000 HD
ENDBRANCH  22  25
ENDBRANCH  17  19
ENDBRANCH   1  17
TORSDOF 5
ENDMDL
MODEL 3
REMARK VINA RESULT:    -6.786      3.311      5.688
REMARK INTER + INTRA:          -9.958
REMARK INTER:                  -9.032
REMARK INTRA:                  -0.926
REMARK UNBOUND:                -1.188
REMARK  Name = 
REMARK  6 active torsions:
REMARK  status: ('A' for Active; 'I' for Inactive)
REMARK    1  A    between atoms: C_1  and  C_2
REMARK    2  A    between atoms: N_7  and  C_8
REMARK    3  A    between atoms: C_12  and  C_13
REMARK    4  A    between atoms: C_13  and  N_14
REMARK    5  A    between atoms: N_14  and  C_15
REMARK    6  A    between atoms: C_18  and  C_19
REMARK                            x       y       z     vdW  Elec       q    Type
REMARK                         _______ _______ _______ _____ _____    ______ ____
ROOT
ATOM      1  C   UNL     1      48.055   7.955  13.129  0.00  0.00    +0.000 C 
ATOM      2  C   UNL     1      48.602   8.493  11.822  0.00  0.00    +0.000 C 
ATOM      3  C   UNL     1      47.994   9.448  12.792  0.00  0.00    +0.000 C 
ENDROOT
BRANCH   1   8
ATOM      4  C   UNL     1      49.523   6.193  16.244  0.00  0.00    +0.000 A 
ATOM      5  C   UNL     1      50.817   6.724  16.239  0.00  0.00    +0.000 A 
ATOM      6  C   UNL     1      51.239   7.615  15.247  0.00  0.00    +0.000 A 
ATOM      7  C   UNL     1      50.361   8.008  14.240  0.00  0.00    +0.000 A 
ATOM      8  C   UNL     1      49.050   7.519  14.199  0.00  0.00    +0.000 A 
ATOM      9  C   UNL     1      48.673   6.604  15.204  0.00  0.00    +0.000 A 
BRANCH   4  16
ATOM     10  C   UNL     1      47.289   5.637  18.894  0.00  0.00    +0.000 C 
ATOM     11  C   UNL     1      47.625   5.155  17.480  0.00  0.00    +0.000 C 
ATOM     12  C   UNL     1      47.235   3.673  17.277  0.00  0.00    +0.000 C 
ATOM     13  O   UNL     1      48.063   2.775  18.036  0.00  0.00    +0.000 OA
ATOM     14  C   UNL     1      49.437   2.918  17.637  0.00  0.00    +0.000 C 
ATOM     15  C   UNL     1      49.948   4.343  17.882  0.00  0.00    +0.000 C 
ATOM     16  N   UNL     1      49.073   5.323  17.220  0.00  0.00    +0.000 N 
ENDBRANCH   4  16
ENDBRANCH   1   8
BRANCH   1  17
ATOM     17  N   UNL     1      46.726   7.352  13.271  0.00  0.00    +0.000 N 
ATOM     18  H   UNL     1      46.298   7.471  14.186  0.00  0.00    +0.000 HD
BRANCH  17  19
ATOM     19  C   UNL     1      46.191   6.262  12.567  0.00  0.00    +0.000 A 
ATOM     20  C   UNL     1      45.852   6.277  11.213  0.00  0.00    +0.000 A 
ATOM     21  C   UNL     1      45.201   5.178  10.619  0.00  0.00    +0.000 A 
ATOM     22  C   UNL     1      44.854   4.062  11.390  0.00  0.00    +0.000 A 
ATOM     23  C   UNL     1      45.180   4.042  12.747  0.00  0.00    +0.000 A 
ATOM     24  C   UNL     1      45.840   5.130  13.320  0.00  0.00    +0.000 A 
BRANCH  22  25
ATOM     25  C   UNL     1      44.093   2.904  10.849  0.00  0.00    +0.000 C 
ATOM     26  N   UNL     1      44.641   2.217   9.800  0.00  0.00    +0.000 N 
ATOM     27  O   UNL     1      43.030   2.546  11.338  0.00  0.00    +0.000 OA
ATOM     28  H   UNL     1      45.610   2.310   9.539  0.00  0.00    +0.000 HD
ATOM     29  H   UNL     1      44.154   1.373   9.526  0.00  0.00    +0.000 HD
ENDBRANCH  22  25
ENDBRANCH  17  19
ENDBRANCH   1  17
TORSDOF 5
ENDMDL
MODEL 4
REMARK VINA RESULT:    -6.505      5.290      8.409
REMARK INTER + INTRA:          -9.595
REMARK INTER:                  -8.770
REMARK INTRA:                  -0.824
REMARK UNBOUND:                -1.188
REMARK  Name = 
REMARK  6 active torsions:
REMARK  status: ('A' for Active; 'I' for Inactive)
REMARK    1  A    between atoms: C_1  and  C_2
REMARK    2  A    between atoms: N_7  and  C_8
REMARK    3  A    between atoms: C_12  and  C_13
REMARK    4  A    between atoms: C_13  and  N_14
REMARK    5  A    between atoms: N_14  and  C_15
REMARK    6  A    between atoms: C_18  and  C_19
REMARK                            x       y       z     vdW  Elec       q    Type
REMARK                         _______ _______ _______ _____ _____    ______ ____
ROOT
ATOM      1  C   UNL     1      48.295   4.674  17.104  0.00  0.00    +0.000 C 
ATOM      2  C   UNL     1      47.214   3.643  17.360  0.00  0.00    +0.000 C 
ATOM      3  C   UNL     1      47.178   4.922  18.123  0.00  0.00    +0.000 C 
ENDROOT
BRANCH   1   8
ATOM      4  C   UNL     1      47.159   5.861  13.602  0.00  0.00    +0.000 A 
ATOM      5  C   UNL     1      48.122   6.843  13.352  0.00  0.00    +0.000 A 
ATOM      6  C   UNL     1      49.114   7.152  14.289  0.00  0.00    +0.000 A 
ATOM      7  C   UNL     1      49.170   6.466  15.500  0.00  0.00    +0.000 A 
ATOM      8  C   UNL     1      48.240   5.465  15.801  0.00  0.00    +0.000 A 
ATOM      9  C   UNL     1      47.243   5.202  14.839  0.00  0.00    +0.000 A 
BRANCH   4  16
ATOM     10  C   UNL     1      45.183   3.319  12.204  0.00  0.00    +0.000 C 
ATOM     11  C   UNL     1      45.088   4.588  13.054  0.00  0.00    +0.000 C 
ATOM     12  C   UNL     1      43.724   5.293  12.872  0.00  0.00    +0.000 C 
ATOM     13  O   UNL     1      43.571   5.871  11.565  0.00  0.00    +0.000 OA
ATOM     14  C   UNL     1      44.597   6.853  11.338  0.00  0.00    +0.000 C 
ATOM     15  C   UNL     1      45.996   6.231  11.412  0.00  0.00    +0.000 C 
ATOM     16  N   UNL     1      46.177   5.523  12.689  0.00  0.00    +0.000 N 
ENDBRANCH   4  16
ENDBRANCH   1   8
BRANCH   1  17
ATOM     17  N   UNL     1      49.624   4.633  17.720  0.00  0.00    +0.000 N 
ATOM     18  H   UNL     1      50.049   5.543  17.885  0.00  0.00    +0.000 HD
BRANCH  17  19
ATOM     19  C   UNL     1      50.576   3.602  17.655  0.00  0.00    +0.000 A 
ATOM     20  C   UNL     1      50.323   2.313  17.184  0.00  0.00    +0.000 A 
ATOM     21  C   UNL     1      51.303   1.306  17.275  0.00  0.00    +0.000 A 
ATOM     22  C   UNL     1      52.540   1.575  17.873  0.00  0.00    +0.000 A 
ATOM     23  C   UNL     1      52.798   2.859  18.356  0.00  0.00    +0.000 A 
ATOM     24  C   UNL     1      51.825   3.853  18.245  0.00  0.00    +0.000 A 
BRANCH  22  25
ATOM     25  C   UNL     1      53.588   0.540  18.078  0.00  0.00    +0.000 C 
ATOM     26  N   UNL     1      53.734  -0.418  17.112  0.00  0.00    +0.000 N 
ATOM     27  O   UNL     1      54.324   0.553  19.055  0.00  0.00    +0.000 OA
ATOM     28  H   UNL     1      53.339  -0.320  16.190  0.00  0.00    +0.000 HD
ATOM     29  H   UNL     1      54.523  -1.040  17.228  0.00  0.00    +0.000 HD
ENDBRANCH  22  25
ENDBRANCH  17  19
ENDBRANCH   1  17
TORSDOF 5
ENDMDL
MODEL 5
REMARK VINA RESULT:    -6.471      3.352      5.861
REMARK INTER + INTRA:          -9.551
REMARK INTER:                  -8.468
REMARK INTRA:                  -1.084
REMARK UNBOUND:                -1.188
REMARK  Name = 
REMARK  6 active torsions:
REMARK  status: ('A' for Active; 'I' for Inactive)
REMARK    1  A    between atoms: C_1  and  C_2
REMARK    2  A    between atoms: N_7  and  C_8
REMARK    3  A    between atoms: C_12  and  C_13
REMARK    4  A    between atoms: C_13  and  N_14
REMARK    5  A    between atoms: N_14  and  C_15
REMARK    6  A    between atoms: C_18  and  C_19
REMARK                            x       y       z     vdW  Elec       q    Type
REMARK                         _______ _______ _______ _____ _____    ______ ____
ROOT
ATOM      1  C   UNL     1      48.421   7.906  12.716  0.00  0.00    +0.000 C 
ATOM      2  C   UNL     1      49.623   7.493  11.890  0.00  0.00    +0.000 C 
ATOM      3  C   UNL     1      49.292   8.942  11.999  0.00  0.00    +0.000 C 
ENDROOT
BRANCH   1   8
ATOM      4  C   UNL     1      48.836   6.447  16.274  0.00  0.00    +0.000 A 
ATOM      5  C   UNL     1      48.683   7.611  17.035  0.00  0.00    +0.000 A 
ATOM      6  C   UNL     1      48.474   8.856  16.435  0.00  0.00    +0.000 A 
ATOM      7  C   UNL     1      48.398   8.960  15.048  0.00  0.00    +0.000 A 
ATOM      8  C   UNL     1      48.532   7.829  14.235  0.00  0.00    +0.000 A 
ATOM      9  C   UNL     1      48.766   6.597  14.880  0.00  0.00    +0.000 A 
BRANCH   4  16
ATOM     10  C   UNL     1      51.094   4.186  17.728  0.00  0.00    +0.000 C 
ATOM     11  C   UNL     1      49.862   5.035  18.052  0.00  0.00    +0.000 C 
ATOM     12  C   UNL     1      49.013   4.398  19.177  0.00  0.00    +0.000 C 
ATOM     13  O   UNL     1      48.362   3.187  18.758  0.00  0.00    +0.000 OA
ATOM     14  C   UNL     1      47.481   3.458  17.654  0.00  0.00    +0.000 C 
ATOM     15  C   UNL     1      48.247   4.016  16.448  0.00  0.00    +0.000 C 
ATOM     16  N   UNL     1      49.028   5.200  16.840  0.00  0.00    +0.000 N 
ENDBRANCH   4  16
ENDBRANCH   1   8
BRANCH   1  17
ATOM     17  N   UNL     1      47.042   7.883  12.218  0.00  0.00    +0.000 N 
ATOM     18  H   UNL     1      46.532   8.756  12.330  0.00  0.00    +0.000 HD
BRANCH  17  19
ATOM     19  C   UNL     1      46.188   6.776  12.087  0.00  0.00    +0.000 A 
ATOM     20  C   UNL     1      45.569   6.117  13.150  0.00  0.00    +0.000 A 
ATOM     21  C   UNL     1      44.832   4.936  12.936  0.00  0.00    +0.000 A 
ATOM     22  C   UNL     1      44.736   4.386  11.652  0.00  0.00    +0.000 A 
ATOM     23  C   UNL     1      45.360   5.032  10.585  0.00  0.00    +0.000 A 
ATOM     24  C   UNL     1      46.074   6.211  10.806  0.00  0.00    +0.000 A 
BRANCH  22  25
ATOM     25  C   UNL     1      44.045   3.099  11.368  0.00  0.00    +0.000 C 
ATOM     26  N   UNL     1      43.705   2.310  12.432  0.00  0.00    +0.000 N 
ATOM     27  O   UNL     1      43.753   2.763  10.228  0.00  0.00    +0.000 OA
ATOM     28  H   UNL     1      43.690   2.656  13.379  0.00  0.00    +0.000 HD
ATOM     29  H   UNL     1      43.143   1.498  12.214  0.00  0.00    +0.000 HD
ENDBRANCH  22  25
ENDBRANCH  17  19
ENDBRANCH   1  17
TORSDOF 5
ENDMDL
MODEL 6
REMARK VINA RESULT:    -6.365      3.069      7.352
REMARK INTER + INTRA:          -9.414
REMARK INTER:                  -9.202
REMARK INTRA:                  -0.212
REMARK UNBOUND:                -1.188
REMARK  Name = 
REMARK  6 active torsions:
REMARK  status: ('A' for Active; 'I' for Inactive)
REMARK    1  A    between atoms: C_1  and  C_2
REMARK    2  A    between atoms: N_7  and  C_8
REMARK    3  A    between atoms: C_12  and  C_13
REMARK    4  A    between atoms: C_13  and  N_14
REMARK    5  A    between atoms: N_14  and  C_15
REMARK    6  A    between atoms: C_18  and  C_19
REMARK                            x       y       z     vdW  Elec       q    Type
REMARK                         _______ _______ _______ _____ _____    ______ ____
ROOT
ATOM      1  C   UNL     1      48.603   8.144  12.684  0.00  0.00    +0.000 C 
ATOM      2  C   UNL     1      49.660   8.782  11.805  0.00  0.00    +0.000 C 
ATOM      3  C   UNL     1      49.542   7.297  11.820  0.00  0.00    +0.000 C 
ENDROOT
BRANCH   1   8
ATOM      4  C   UNL     1      45.085   7.104  11.460  0.00  0.00    +0.000 A 
ATOM      5  C   UNL     1      44.477   8.360  11.367  0.00  0.00    +0.000 A 
ATOM      6  C   UNL     1      45.159   9.531  11.710  0.00  0.00    +0.000 A 
ATOM      7  C   UNL     1      46.482   9.469  12.143  0.00  0.00    +0.000 A 
ATOM      8  C   UNL     1      47.147   8.243  12.245  0.00  0.00    +0.000 A 
ATOM      9  C   UNL     1      46.414   7.084  11.913  0.00  0.00    +0.000 A 
BRANCH   4  16
ATOM     10  C   UNL     1      44.826   4.447   9.182  0.00  0.00    +0.000 C 
ATOM     11  C   UNL     1      45.205   4.758  10.632  0.00  0.00    +0.000 C 
ATOM     12  C   UNL     1      44.933   3.551  11.561  0.00  0.00    +0.000 C 
ATOM     13  O   UNL     1      43.530   3.292  11.733  0.00  0.00    +0.000 OA
ATOM     14  C   UNL     1      42.885   4.439  12.315  0.00  0.00    +0.000 C 
ATOM     15  C   UNL     1      43.024   5.676  11.421  0.00  0.00    +0.000 C 
ATOM     16  N   UNL     1      44.441   5.931  11.113  0.00  0.00    +0.000 N 
ENDBRANCH   4  16
ENDBRANCH   1   8
BRANCH   1  17
ATOM     17  N   UNL     1      48.777   7.896  14.119  0.00  0.00    +0.000 N 
ATOM     18  H   UNL     1      49.504   8.451  14.565  0.00  0.00    +0.000 HD
BRANCH  17  19
ATOM     19  C   UNL     1      48.480   6.725  14.836  0.00  0.00    +0.000 A 
ATOM     20  C   UNL     1      47.623   5.716  14.394  0.00  0.00    +0.000 A 
ATOM     21  C   UNL     1      47.283   4.639  15.235  0.00  0.00    +0.000 A 
ATOM     22  C   UNL     1      47.777   4.581  16.544  0.00  0.00    +0.000 A 
ATOM     23  C   UNL     1      48.626   5.591  16.997  0.00  0.00    +0.000 A 
ATOM     24  C   UNL     1      48.970   6.645  16.150  0.00  0.00    +0.000 A 
BRANCH  22  25
ATOM     25  C   UNL     1      47.393   3.519  17.512  0.00  0.00    +0.000 C 
ATOM     26  N   UNL     1      48.234   3.284  18.566  0.00  0.00    +0.000 N 
ATOM     27  O   UNL     1      46.348   2.892  17.401  0.00  0.00    +0.000 OA
ATOM     28  H   UNL     1      48.955   3.934  18.837  0.00  0.00    +0.000 HD
ATOM     29  H   UNL     1      47.893   2.634  19.262  0.00  0.00    +0.000 HD
ENDBRANCH  22  25
ENDBRANCH  17  19
ENDBRANCH   1  17
TORSDOF 5
ENDMDL
MODEL 7
REMARK VINA RESULT:    -6.064      3.438      8.182
REMARK INTER + INTRA:          -9.024
REMARK INTER:                  -8.016
REMARK INTRA:                  -1.008
REMARK UNBOUND:                -1.188
REMARK  Name = 
REMARK  6 active torsions:
REMARK  status: ('A' for Active; 'I' for Inactive)
REMARK    1  A    between atoms: C_1  and  C_2
REMARK    2  A    between atoms: N_7  and  C_8
REMARK    3  A    between atoms: C_12  and  C_13
REMARK    4  A    between atoms: C_13  and  N_14
REMARK    5  A    between atoms: N_14  and  C_15
REMARK    6  A    between atoms: C_18  and  C_19
REMARK                            x       y       z     vdW  Elec       q    Type
REMARK                         _______ _______ _______ _____ _____    ______ ____
ROOT
ATOM      1  C   UNL     1      48.319   8.211  13.984  0.00  0.00    +0.000 C 
ATOM      2  C   UNL     1      48.553   9.569  14.615  0.00  0.00    +0.000 C 
ATOM      3  C   UNL     1      49.395   9.164  13.454  0.00  0.00    +0.000 C 
ENDROOT
BRANCH   1   8
ATOM      4  C   UNL     1      45.597   6.500  11.833  0.00  0.00    +0.000 A 
ATOM      5  C   UNL     1      44.819   7.612  11.493  0.00  0.00    +0.000 A 
ATOM      6  C   UNL     1      45.132   8.894  11.956  0.00  0.00    +0.000 A 
ATOM      7  C   UNL     1      46.248   9.093  12.764  0.00  0.00    +0.000 A 
ATOM      8  C   UNL     1      47.071   8.021  13.128  0.00  0.00    +0.000 A 
ATOM      9  C   UNL     1      46.706   6.742  12.659  0.00  0.00    +0.000 A 
BRANCH   4  16
ATOM     10  C   UNL     1      45.550   3.063  12.544  0.00  0.00    +0.000 C 
ATOM     11  C   UNL     1      44.624   4.243  12.240  0.00  0.00    +0.000 C 
ATOM     12  C   UNL     1      43.324   3.779  11.542  0.00  0.00    +0.000 C 
ATOM     13  O   UNL     1      43.554   3.307  10.204  0.00  0.00    +0.000 OA
ATOM     14  C   UNL     1      44.123   4.357   9.402  0.00  0.00    +0.000 C 
ATOM     15  C   UNL     1      45.467   4.831   9.967  0.00  0.00    +0.000 C 
ATOM     16  N   UNL     1      45.322   5.224  11.378  0.00  0.00    +0.000 N 
ENDBRANCH   4  16
ENDBRANCH   1   8
BRANCH   1  17
ATOM     17  N   UNL     1      48.878   6.961  14.506  0.00  0.00    +0.000 N 
ATOM     18  H   UNL     1      48.995   6.222  13.817  0.00  0.00    +0.000 HD
BRANCH  17  19
ATOM     19  C   UNL     1      48.806   6.463  15.818  0.00  0.00    +0.000 A 
ATOM     20  C   UNL     1      49.563   6.934  16.892  0.00  0.00    +0.000 A 
ATOM     21  C   UNL     1      49.520   6.290  18.143  0.00  0.00    +0.000 A 
ATOM     22  C   UNL     1      48.737   5.143  18.321  0.00  0.00    +0.000 A 
ATOM     23  C   UNL     1      47.985   4.659  17.250  0.00  0.00    +0.000 A 
ATOM     24  C   UNL     1      48.023   5.315  16.019  0.00  0.00    +0.000 A 
BRANCH  22  25
ATOM     25  C   UNL     1      48.709   4.365  19.588  0.00  0.00    +0.000 C 
ATOM     26  N   UNL     1      48.326   3.053  19.522  0.00  0.00    +0.000 N 
ATOM     27  O   UNL     1      49.047   4.860  20.656  0.00  0.00    +0.000 OA
ATOM     28  H   UNL     1      48.292   2.544  18.653  0.00  0.00    +0.000 HD
ATOM     29  H   UNL     1      48.421   2.525  20.380  0.00  0.00    +0.000 HD
ENDBRANCH  22  25
ENDBRANCH  17  19
ENDBRANCH   1  17
TORSDOF 5
ENDMDL
