MODEL 1
REMARK VINA RESULT:    -8.543      0.000      0.000
REMARK INTER + INTRA:         -12.995
REMARK INTER:                 -12.289
REMARK INTRA:                  -0.706
REMARK UNBOUND:                -0.706
REMARK  Name = 
REMARK  8 active torsions:
REMARK  status: ('A' for Active; 'I' for Inactive)
REMARK    1  A    between atoms: N_1  and  C_2
REMARK    2  A    between atoms: C_2  and  C_3
REMARK    3  A    between atoms: C_3  and  N_4
REMARK    4  A    between atoms: C_3  and  C_17
REMARK    5  A    between atoms: C_5  and  C_7
REMARK    6  A    between atoms: C_20  and  O_21
REMARK    7  A    between atoms: O_21  and  C_22
REMARK    8  A    between atoms: C_22  and  C_23
REMARK                            x       y       z     vdW  Elec       q    Type
REMARK                         _______ _______ _______ _____ _____    ______ ____
ROOT
ATOM      1  C   UNL     1      46.558   7.827  12.777  0.00  0.00    +0.000 C 
ENDROOT
BRANCH   1   2
ATOM      2  C   UNL     1      45.993   6.554  12.143  0.00  0.00    +0.000 A 
ATOM      3  C   UNL     1      46.203   6.295  10.779  0.00  0.00    +0.000 A 
ATOM      4  C   UNL     1      45.680   5.144  10.184  0.00  0.00    +0.000 A 
ATOM      5  C   UNL     1      44.974   4.215  10.948  0.00  0.00    +0.000 A 
ATOM      6  C   UNL     1      44.723   4.479  12.292  0.00  0.00    +0.000 A 
ATOM      7  C   UNL     1      45.222   5.642  12.883  0.00  0.00    +0.000 A 
BRANCH   5   8
ATOM      8  O   UNL     1      44.567   3.088  10.285  0.00  0.00    +0.000 OA
BRANCH   8   9
ATOM      9  C   UNL     1      44.389   3.253   8.873  0.00  0.00    +0.000 C 
BRANCH   9  10
ATOM     10  C   UNL     1      45.536   2.643   8.100  0.00  0.00    +0.000 A 
ATOM     11  C   UNL     1      46.172   3.343   7.078  0.00  0.00    +0.000 A 
ATOM     12  C   UNL     1      47.216   2.731   6.392  0.00  0.00    +0.000 A 
ATOM     13  C   UNL     1      47.585   1.434   6.730  0.00  0.00    +0.000 A 
ATOM     14  C   UNL     1      46.890   0.798   7.742  0.00  0.00    +0.000 A 
ATOM     15  N   UNL     1      45.876   1.369   8.427  0.00  0.00    +0.000 NA
ENDBRANCH   9  10
ENDBRANCH   8   9
ENDBRANCH   5   8
ENDBRANCH   1   2
BRANCH   1  16
ATOM     16  N   UNL     1      47.132   7.505  14.083  0.00  0.00    +0.000 N 
ATOM     17  C   UNL     1      48.225   6.696  14.259  0.00  0.00    +0.000 C 
ATOM     18  O   UNL     1      48.928   6.307  13.333  0.00  0.00    +0.000 OA
ATOM     19  H   UNL     1      46.469   7.539  14.849  0.00  0.00    +0.000 HD
BRANCH  17  20
ATOM     20  C   UNL     1      48.541   6.343  15.648  0.00  0.00    +0.000 A 
ATOM     21  C   UNL     1      49.283   7.212  16.436  0.00  0.00    +0.000 A 
ATOM     22  S   UNL     1      49.606   6.606  17.998  0.00  0.00    +0.000 S 
ATOM     23  C   UNL     1      48.790   5.151  17.663  0.00  0.00    +0.000 A 
ATOM     24  N   UNL     1      48.740   4.145  18.580  0.00  0.00    +0.000 NA
ATOM     25  C   UNL     1      48.113   3.091  18.176  0.00  0.00    +0.000 A 
ATOM     26  N   UNL     1      47.513   2.956  16.952  0.00  0.00    +0.000 N 
ATOM     27  C   UNL     1      47.491   3.963  16.021  0.00  0.00    +0.000 A 
ATOM     28  O   UNL     1      46.856   3.856  14.980  0.00  0.00    +0.000 OA
ATOM     29  C   UNL     1      48.234   5.149  16.398  0.00  0.00    +0.000 A 
ATOM     30  H   UNL     1      47.002   2.118  16.711  0.00  0.00    +0.000 HD
ENDBRANCH  17  20
ENDBRANCH   1  16
BRANCH   1  31
ATOM     31  C   UNL     1      45.463   8.933  12.844  0.00  0.00    +0.000 C 
BRANCH  31  32
ATOM     32  N   UNL     1      45.919  10.273  12.442  0.00  0.00    +0.000 NA
ATOM     33  H   UNL     1      45.988  10.857  13.274  0.00  0.00    +0.000 HD
ATOM     34  H   UNL     1      45.204  10.705  11.856  0.00  0.00    +0.000 HD
ENDBRANCH  31  32
ENDBRANCH   1  31
TORSDOF 8
ENDMDL
MODEL 2
REMARK VINA RESULT:    -8.414      1.859      2.373
REMARK INTER + INTRA:         -12.809
REMARK INTER:                 -11.663
REMARK INTRA:                  -1.146
REMARK UNBOUND:                -0.706
REMARK  Name = 
REMARK  8 active torsions:
REMARK  status: ('A' for Active; 'I' for Inactive)
REMARK    1  A    between atoms: N_1  and  C_2
REMARK    2  A    between atoms: C_2  and  C_3
REMARK    3  A    between atoms: C_3  and  N_4
REMARK    4  A    between atoms: C_3  and  C_17
REMARK    5  A    between atoms: C_5  and  C_7
REMARK    6  A    between atoms: C_20  and  O_21
REMARK    7  A    between atoms: O_21  and  C_22
REMARK    8  A    between atoms: C_22  and  C_23
REMARK                            x       y       z     vdW  Elec       q    Type
REMARK                         _______ _______ _______ _____ _____    ______ ____
ROOT
ATOM      1  C   UNL     1      47.728   6.938  13.518  0.00  0.00    +0.000 C 
ENDROOT
BRANCH   1   2
ATOM      2  C   UNL     1      46.803   6.034  12.699  0.00  0.00    +0.000 A 
ATOM      3  C   UNL     1      46.334   6.459  11.446  0.00  0.00    +0.000 A 
ATOM      4  C   UNL     1      45.478   5.650  10.694  0.00  0.00    +0.000 A 
ATOM      5  C   UNL     1      45.108   4.390  11.162  0.00  0.00    +0.000 A 
ATOM      6  C   UNL     1      45.533   3.973  12.421  0.00  0.00    +0.000 A 
ATOM      7  C   UNL     1      46.367   4.791  13.187  0.00  0.00    +0.000 A 
BRANCH   5   8
ATOM      8  O   UNL     1      44.326   3.649  10.318  0.00  0.00    +0.000 OA
BRANCH   8   9
ATOM      9  C   UNL     1      44.464   3.976   8.929  0.00  0.00    +0.000 C 
BRANCH   9  10
ATOM     10  C   UNL     1      45.512   3.113   8.265  0.00  0.00    +0.000 A 
ATOM     11  C   UNL     1      46.385   3.638   7.315  0.00  0.00    +0.000 A 
ATOM     12  C   UNL     1      47.323   2.797   6.726  0.00  0.00    +0.000 A 
ATOM     13  C   UNL     1      47.356   1.455   7.085  0.00  0.00    +0.000 A 
ATOM     14  C   UNL     1      46.442   1.005   8.020  0.00  0.00    +0.000 A 
ATOM     15  N   UNL     1      45.522   1.798   8.610  0.00  0.00    +0.000 NA
ENDBRANCH   9  10
ENDBRANCH   8   9
ENDBRANCH   5   8
ENDBRANCH   1   2
BRANCH   1  16
ATOM     16  N   UNL     1      47.756   6.475  14.904  0.00  0.00    +0.000 N 
ATOM     17  C   UNL     1      48.907   6.290  15.625  0.00  0.00    +0.000 C 
ATOM     18  O   UNL     1      50.009   6.659  15.235  0.00  0.00    +0.000 OA
ATOM     19  H   UNL     1      46.962   5.901  15.168  0.00  0.00    +0.000 HD
BRANCH  17  20
ATOM     20  C   UNL     1      48.744   5.648  16.935  0.00  0.00    +0.000 A 
ATOM     21  C   UNL     1      48.939   4.281  17.071  0.00  0.00    +0.000 A 
ATOM     22  S   UNL     1      48.642   3.704  18.649  0.00  0.00    +0.000 S 
ATOM     23  C   UNL     1      48.217   5.259  19.196  0.00  0.00    +0.000 A 
ATOM     24  N   UNL     1      47.794   5.463  20.475  0.00  0.00    +0.000 NA
ATOM     25  C   UNL     1      47.478   6.687  20.739  0.00  0.00    +0.000 A 
ATOM     26  N   UNL     1      47.566   7.729  19.853  0.00  0.00    +0.000 N 
ATOM     27  C   UNL     1      48.039   7.577  18.574  0.00  0.00    +0.000 A 
ATOM     28  O   UNL     1      48.209   8.540  17.839  0.00  0.00    +0.000 OA
ATOM     29  C   UNL     1      48.351   6.211  18.204  0.00  0.00    +0.000 A 
ATOM     30  H   UNL     1      47.340   8.672  20.134  0.00  0.00    +0.000 HD
ENDBRANCH  17  20
ENDBRANCH   1  16
BRANCH   1  31
ATOM     31  C   UNL     1      47.295   8.428  13.377  0.00  0.00    +0.000 C 
BRANCH  31  32
ATOM     32  N   UNL     1      47.179   9.156  14.651  0.00  0.00    +0.000 NA
ATOM     33  H   UNL     1      46.246   9.559  14.712  0.00  0.00    +0.000 HD
ATOM     34  H   UNL     1      47.825   9.946  14.640  0.00  0.00    +0.000 HD
ENDBRANCH  31  32
ENDBRANCH   1  31
TORSDOF 8
ENDMDL
MODEL 3
REMARK VINA RESULT:    -8.265      1.995      2.716
REMARK INTER + INTRA:         -12.596
REMARK INTER:                 -11.339
REMARK INTRA:                  -1.257
REMARK UNBOUND:                -0.706
REMARK  Name = 
REMARK  8 active torsions:
REMARK  status: ('A' for Active; 'I' for Inactive)
REMARK    1  A    between atoms: N_1  and  C_2
REMARK    2  A    between atoms: C_2  and  C_3
REMARK    3  A    between atoms: C_3  and  N_4
REMARK    4  A    between atoms: C_3  and  C_17
REMARK    5  A    between atoms: C_5  and  C_7
REMARK    6  A    between atoms: C_20  and  O_21
REMARK    7  A    between atoms: O_21  and  C_22
REMARK    8  A    between atoms: C_22  and  C_23
REMARK                            x       y       z     vdW  Elec       q    Type
REMARK                         _______ _______ _______ _____ _____    ______ ____
ROOT
ATOM      1  C   UNL     1      47.899   7.116  13.724  0.00  0.00    +0.000 C 
ENDROOT
BRANCH   1   2
ATOM      2  C   UNL     1      46.946   6.265  12.882  0.00  0.00    +0.000 A 
ATOM      3  C   UNL     1      46.485   5.032  13.372  0.00  0.00    +0.000 A 
ATOM      4  C   UNL     1      45.627   4.238  12.608  0.00  0.00    +0.000 A 
ATOM      5  C   UNL     1      45.184   4.678  11.361  0.00  0.00    +0.000 A 
ATOM      6  C   UNL     1      45.666   5.879  10.845  0.00  0.00    +0.000 A 
ATOM      7  C   UNL     1      46.546   6.661  11.596  0.00  0.00    +0.000 A 
BRANCH   5   8
ATOM      8  O   UNL     1      44.290   3.859  10.726  0.00  0.00    +0.000 OA
BRANCH   8   9
ATOM      9  C   UNL     1      44.159   4.090   9.317  0.00  0.00    +0.000 C 
BRANCH   9  10
ATOM     10  C   UNL     1      45.208   3.332   8.538  0.00  0.00    +0.000 A 
ATOM     11  C   UNL     1      45.429   1.974   8.754  0.00  0.00    +0.000 A 
ATOM     12  C   UNL     1      46.415   1.326   8.017  0.00  0.00    +0.000 A 
ATOM     13  C   UNL     1      47.165   2.051   7.097  0.00  0.00    +0.000 A 
ATOM     14  C   UNL     1      46.899   3.401   6.956  0.00  0.00    +0.000 A 
ATOM     15  N   UNL     1      45.947   4.054   7.655  0.00  0.00    +0.000 NA
ENDBRANCH   9  10
ENDBRANCH   8   9
ENDBRANCH   5   8
ENDBRANCH   1   2
BRANCH   1  16
ATOM     16  N   UNL     1      47.929   6.602  15.093  0.00  0.00    +0.000 N 
ATOM     17  C   UNL     1      49.082   6.296  15.769  0.00  0.00    +0.000 C 
ATOM     18  O   UNL     1      50.199   6.588  15.357  0.00  0.00    +0.000 OA
ATOM     19  H   UNL     1      47.099   6.086  15.362  0.00  0.00    +0.000 HD
BRANCH  17  20
ATOM     20  C   UNL     1      48.905   5.622  17.061  0.00  0.00    +0.000 A 
ATOM     21  C   UNL     1      49.167   4.264  17.180  0.00  0.00    +0.000 A 
ATOM     22  S   UNL     1      48.843   3.643  18.736  0.00  0.00    +0.000 S 
ATOM     23  C   UNL     1      48.315   5.162  19.293  0.00  0.00    +0.000 A 
ATOM     24  N   UNL     1      47.835   5.320  20.558  0.00  0.00    +0.000 NA
ATOM     25  C   UNL     1      47.444   6.520  20.830  0.00  0.00    +0.000 A 
ATOM     26  N   UNL     1      47.509   7.581  19.966  0.00  0.00    +0.000 N 
ATOM     27  C   UNL     1      48.036   7.479  18.704  0.00  0.00    +0.000 A 
ATOM     28  O   UNL     1      48.182   8.464  17.992  0.00  0.00    +0.000 OA
ATOM     29  C   UNL     1      48.435   6.139  18.323  0.00  0.00    +0.000 A 
ATOM     30  H   UNL     1      47.222   8.506  20.254  0.00  0.00    +0.000 HD
ENDBRANCH  17  20
ENDBRANCH   1  16
BRANCH   1  31
ATOM     31  C   UNL     1      47.499   8.620  13.643  0.00  0.00    +0.000 C 
BRANCH  31  32
ATOM     32  N   UNL     1      47.262   9.263  14.946  0.00  0.00    +0.000 NA
ATOM     33  H   UNL     1      47.294   8.548  15.672  0.00  0.00    +0.000 HD
ATOM     34  H   UNL     1      46.313   9.636  14.963  0.00  0.00    +0.000 HD
ENDBRANCH  31  32
ENDBRANCH   1  31
TORSDOF 8
ENDMDL
MODEL 4
REMARK VINA RESULT:    -7.995      1.733      2.311
REMARK INTER + INTRA:         -12.206
REMARK INTER:                 -11.203
REMARK INTRA:                  -1.003
REMARK UNBOUND:                -0.706
REMARK  Name = 
REMARK  8 active torsions:
REMARK  status: ('A' for Active; 'I' for Inactive)
REMARK    1  A    between atoms: N_1  and  C_2
REMARK    2  A    between atoms: C_2  and  C_3
REMARK    3  A    between atoms: C_3  and  N_4
REMARK    4  A    between atoms: C_3  and  C_17
REMARK    5  A    between atoms: C_5  and  C_7
REMARK    6  A    between atoms: C_20  and  O_21
REMARK    7  A    between atoms: O_21  and  C_22
REMARK    8  A    between atoms: C_22  and  C_23
REMARK                            x       y       z     vdW  Elec       q    Type
REMARK                         _______ _______ _______ _____ _____    ______ ____
ROOT
ATOM      1  C   UNL     1      48.466   7.360  13.566  0.00  0.00    +0.000 C 
ENDROOT
BRANCH   1   2
ATOM      2  C   UNL     1      47.372   6.509  12.915  0.00  0.00    +0.000 A 
ATOM      3  C   UNL     1      46.980   5.298  13.506  0.00  0.00    +0.000 A 
ATOM      4  C   UNL     1      45.993   4.504  12.916  0.00  0.00    +0.000 A 
ATOM      5  C   UNL     1      45.355   4.925  11.749  0.00  0.00    +0.000 A 
ATOM      6  C   UNL     1      45.764   6.105  11.131  0.00  0.00    +0.000 A 
ATOM      7  C   UNL     1      46.769   6.886  11.704  0.00  0.00    +0.000 A 
BRANCH   5   8
ATOM      8  O   UNL     1      44.354   4.111  11.293  0.00  0.00    +0.000 OA
BRANCH   8   9
ATOM      9  C   UNL     1      44.004   4.303   9.916  0.00  0.00    +0.000 C 
BRANCH   9  10
ATOM     10  C   UNL     1      44.945   3.554   9.002  0.00  0.00    +0.000 A 
ATOM     11  C   UNL     1      45.165   2.186   9.153  0.00  0.00    +0.000 A 
ATOM     12  C   UNL     1      46.050   1.548   8.291  0.00  0.00    +0.000 A 
ATOM     13  C   UNL     1      46.705   2.289   7.314  0.00  0.00    +0.000 A 
ATOM     14  C   UNL     1      46.449   3.646   7.242  0.00  0.00    +0.000 A 
ATOM     15  N   UNL     1      45.594   4.292   8.063  0.00  0.00    +0.000 NA
ENDBRANCH   9  10
ENDBRANCH   8   9
ENDBRANCH   5   8
ENDBRANCH   1   2
BRANCH   1  16
ATOM     16  N   UNL     1      48.270   7.377  15.015  0.00  0.00    +0.000 N 
ATOM     17  C   UNL     1      49.215   6.962  15.918  0.00  0.00    +0.000 C 
ATOM     18  O   UNL     1      50.372   6.702  15.607  0.00  0.00    +0.000 OA
ATOM     19  H   UNL     1      47.303   7.295  15.305  0.00  0.00    +0.000 HD
BRANCH  17  20
ATOM     20  C   UNL     1      48.771   6.881  17.314  0.00  0.00    +0.000 A 
ATOM     21  C   UNL     1      48.323   8.019  17.970  0.00  0.00    +0.000 A 
ATOM     22  S   UNL     1      47.910   7.747  19.603  0.00  0.00    +0.000 S 
ATOM     23  C   UNL     1      48.344   6.104  19.496  0.00  0.00    +0.000 A 
ATOM     24  N   UNL     1      48.284   5.288  20.584  0.00  0.00    +0.000 NA
ATOM     25  C   UNL     1      48.671   4.076  20.360  0.00  0.00    +0.000 A 
ATOM     26  N   UNL     1      49.090   3.599  19.146  0.00  0.00    +0.000 N 
ATOM     27  C   UNL     1      49.112   4.371  18.012  0.00  0.00    +0.000 A 
ATOM     28  O   UNL     1      49.387   3.892  16.920  0.00  0.00    +0.000 OA
ATOM     29  C   UNL     1      48.746   5.758  18.219  0.00  0.00    +0.000 A 
ATOM     30  H   UNL     1      49.343   2.628  19.027  0.00  0.00    +0.000 HD
ENDBRANCH  17  20
ENDBRANCH   1  16
BRANCH   1  31
ATOM     31  C   UNL     1      48.494   8.784  12.933  0.00  0.00    +0.000 C 
BRANCH  31  32
ATOM     32  N   UNL     1      47.700   9.791  13.656  0.00  0.00    +0.000 NA
ATOM     33  H   UNL     1      46.846   9.350  13.995  0.00  0.00    +0.000 HD
ATOM     34  H   UNL     1      47.400  10.511  12.997  0.00  0.00    +0.000 HD
ENDBRANCH  31  32
ENDBRANCH   1  31
TORSDOF 8
ENDMDL
MODEL 5
REMARK VINA RESULT:    -7.870      2.545      4.660
REMARK INTER + INTRA:         -12.027
REMARK INTER:                 -10.595
REMARK INTRA:                  -1.432
REMARK UNBOUND:                -0.706
REMARK  Name = 
REMARK  8 active torsions:
REMARK  status: ('A' for Active; 'I' for Inactive)
REMARK    1  A    between atoms: N_1  and  C_2
REMARK    2  A    between atoms: C_2  and  C_3
REMARK    3  A    between atoms: C_3  and  N_4
REMARK    4  A    between atoms: C_3  and  C_17
REMARK    5  A    between atoms: C_5  and  C_7
REMARK    6  A    between atoms: C_20  and  O_21
REMARK    7  A    between atoms: O_21  and  C_22
REMARK    8  A    between atoms: C_22  and  C_23
REMARK                            x       y       z     vdW  Elec       q    Type
REMARK                         _______ _______ _______ _____ _____    ______ ____
ROOT
ATOM      1  C   UNL     1      47.105   5.691  14.317  0.00  0.00    +0.000 C 
ENDROOT
BRANCH   1   2
ATOM      2  C   UNL     1      46.321   5.128  13.130  0.00  0.00    +0.000 A 
ATOM      3  C   UNL     1      45.961   5.967  12.063  0.00  0.00    +0.000 A 
ATOM      4  C   UNL     1      45.233   5.469  10.979  0.00  0.00    +0.000 A 
ATOM      5  C   UNL     1      44.886   4.120  10.925  0.00  0.00    +0.000 A 
ATOM      6  C   UNL     1      45.201   3.285  11.995  0.00  0.00    +0.000 A 
ATOM      7  C   UNL     1      45.905   3.787  13.091  0.00  0.00    +0.000 A 
BRANCH   5   8
ATOM      8  O   UNL     1      44.237   3.720   9.788  0.00  0.00    +0.000 OA
BRANCH   8   9
ATOM      9  C   UNL     1      44.505   2.370   9.386  0.00  0.00    +0.000 C 
BRANCH   9  10
ATOM     10  C   UNL     1      45.588   2.315   8.334  0.00  0.00    +0.000 A 
ATOM     11  C   UNL     1      45.805   3.381   7.465  0.00  0.00    +0.000 A 
ATOM     12  C   UNL     1      46.809   3.275   6.507  0.00  0.00    +0.000 A 
ATOM     13  C   UNL     1      47.555   2.104   6.430  0.00  0.00    +0.000 A 
ATOM     14  C   UNL     1      47.264   1.083   7.315  0.00  0.00    +0.000 A 
ATOM     15  N   UNL     1      46.299   1.159   8.256  0.00  0.00    +0.000 NA
ENDBRANCH   9  10
ENDBRANCH   8   9
ENDBRANCH   5   8
ENDBRANCH   1   2
BRANCH   1  16
ATOM     16  N   UNL     1      48.255   6.448  13.824  0.00  0.00    +0.000 N 
ATOM     17  C   UNL     1      48.890   7.427  14.545  0.00  0.00    +0.000 C 
ATOM     18  O   UNL     1      48.667   7.638  15.731  0.00  0.00    +0.000 OA
ATOM     19  H   UNL     1      48.295   6.534  12.815  0.00  0.00    +0.000 HD
BRANCH  17  20
ATOM     20  C   UNL     1      49.904   8.199  13.817  0.00  0.00    +0.000 A 
ATOM     21  C   UNL     1      51.240   8.114  14.182  0.00  0.00    +0.000 A 
ATOM     22  S   UNL     1      52.262   9.129  13.267  0.00  0.00    +0.000 S 
ATOM     23  C   UNL     1      50.948   9.737  12.371  0.00  0.00    +0.000 A 
ATOM     24  N   UNL     1      51.125  10.709  11.434  0.00  0.00    +0.000 NA
ATOM     25  C   UNL     1      50.036  11.091  10.855  0.00  0.00    +0.000 A 
ATOM     26  N   UNL     1      48.790  10.579  11.110  0.00  0.00    +0.000 N 
ATOM     27  C   UNL     1      48.575   9.562  12.005  0.00  0.00    +0.000 A 
ATOM     28  O   UNL     1      47.472   9.049  12.134  0.00  0.00    +0.000 OA
ATOM     29  C   UNL     1      49.756   9.135  12.729  0.00  0.00    +0.000 A 
ATOM     30  H   UNL     1      47.982  10.895  10.594  0.00  0.00    +0.000 HD
ENDBRANCH  17  20
ENDBRANCH   1  16
BRANCH   1  31
ATOM     31  C   UNL     1      47.499   4.547  15.299  0.00  0.00    +0.000 C 
BRANCH  31  32
ATOM     32  N   UNL     1      47.345   4.883  16.725  0.00  0.00    +0.000 NA
ATOM     33  H   UNL     1      46.352   4.887  16.952  0.00  0.00    +0.000 HD
ATOM     34  H   UNL     1      47.671   5.837  16.877  0.00  0.00    +0.000 HD
ENDBRANCH  31  32
ENDBRANCH   1  31
TORSDOF 8
ENDMDL
MODEL 6
REMARK VINA RESULT:    -7.718      2.804      4.236
REMARK INTER + INTRA:         -11.809
REMARK INTER:                 -10.749
REMARK INTRA:                  -1.060
REMARK UNBOUND:                -0.706
REMARK  Name = 
REMARK  8 active torsions:
REMARK  status: ('A' for Active; 'I' for Inactive)
REMARK    1  A    between atoms: N_1  and  C_2
REMARK    2  A    between atoms: C_2  and  C_3
REMARK    3  A    between atoms: C_3  and  N_4
REMARK    4  A    between atoms: C_3  and  C_17
REMARK    5  A    between atoms: C_5  and  C_7
REMARK    6  A    between atoms: C_20  and  O_21
REMARK    7  A    between atoms: O_21  and  C_22
REMARK    8  A    between atoms: C_22  and  C_23
REMARK                            x       y       z     vdW  Elec       q    Type
REMARK                         _______ _______ _______ _____ _____    ______ ____
ROOT
ATOM      1  C   UNL     1      46.995   5.581  14.311  0.00  0.00    +0.000 C 
ENDROOT
BRANCH   1   2
ATOM      2  C   UNL     1      46.252   5.112  13.057  0.00  0.00    +0.000 A 
ATOM      3  C   UNL     1      45.767   3.798  12.977  0.00  0.00    +0.000 A 
ATOM      4  C   UNL     1      45.100   3.352  11.834  0.00  0.00    +0.000 A 
ATOM      5  C   UNL     1      44.874   4.222  10.767  0.00  0.00    +0.000 A 
ATOM      6  C   UNL     1      45.386   5.516  10.816  0.00  0.00    +0.000 A 
ATOM      7  C   UNL     1      46.076   5.955  11.947  0.00  0.00    +0.000 A 
BRANCH   5   8
ATOM      8  O   UNL     1      44.149   3.708   9.726  0.00  0.00    +0.000 OA
BRANCH   8   9
ATOM      9  C   UNL     1      44.463   2.351   9.387  0.00  0.00    +0.000 C 
BRANCH   9  10
ATOM     10  C   UNL     1      45.559   2.285   8.349  0.00  0.00    +0.000 A 
ATOM     11  C   UNL     1      45.832   3.367   7.516  0.00  0.00    +0.000 A 
ATOM     12  C   UNL     1      46.845   3.249   6.570  0.00  0.00    +0.000 A 
ATOM     13  C   UNL     1      47.546   2.053   6.467  0.00  0.00    +0.000 A 
ATOM     14  C   UNL     1      47.200   1.017   7.316  0.00  0.00    +0.000 A 
ATOM     15  N   UNL     1      46.224   1.104   8.245  0.00  0.00    +0.000 NA
ENDBRANCH   9  10
ENDBRANCH   8   9
ENDBRANCH   5   8
ENDBRANCH   1   2
BRANCH   1  16
ATOM     16  N   UNL     1      48.189   6.328  13.917  0.00  0.00    +0.000 N 
ATOM     17  C   UNL     1      48.230   7.693  13.800  0.00  0.00    +0.000 C 
ATOM     18  O   UNL     1      47.326   8.427  14.180  0.00  0.00    +0.000 OA
ATOM     19  H   UNL     1      48.834   5.806  13.335  0.00  0.00    +0.000 HD
BRANCH  17  20
ATOM     20  C   UNL     1      49.460   8.247  13.219  0.00  0.00    +0.000 A 
ATOM     21  C   UNL     1      49.415   8.926  12.010  0.00  0.00    +0.000 A 
ATOM     22  S   UNL     1      50.946   9.440  11.460  0.00  0.00    +0.000 S 
ATOM     23  C   UNL     1      51.723   8.746  12.806  0.00  0.00    +0.000 A 
ATOM     24  N   UNL     1      53.079   8.776  12.929  0.00  0.00    +0.000 NA
ATOM     25  C   UNL     1      53.529   8.185  13.985  0.00  0.00    +0.000 A 
ATOM     26  N   UNL     1      52.751   7.586  14.940  0.00  0.00    +0.000 N 
ATOM     27  C   UNL     1      51.380   7.581  14.884  0.00  0.00    +0.000 A 
ATOM     28  O   UNL     1      50.706   7.135  15.803  0.00  0.00    +0.000 OA
ATOM     29  C   UNL     1      50.822   8.178  13.687  0.00  0.00    +0.000 A 
ATOM     30  H   UNL     1      53.163   7.174  15.765  0.00  0.00    +0.000 HD
ENDBRANCH  17  20
ENDBRANCH   1  16
BRANCH   1  31
ATOM     31  C   UNL     1      47.308   4.370  15.240  0.00  0.00    +0.000 C 
BRANCH  31  32
ATOM     32  N   UNL     1      46.565   4.365  16.511  0.00  0.00    +0.000 NA
ATOM     33  H   UNL     1      46.040   3.494  16.577  0.00  0.00    +0.000 HD
ATOM     34  H   UNL     1      45.869   5.110  16.491  0.00  0.00    +0.000 HD
ENDBRANCH  31  32
ENDBRANCH   1  31
TORSDOF 8
ENDMDL
MODEL 7
REMARK VINA RESULT:    -7.134      3.255      7.756
REMARK INTER + INTRA:         -10.969
REMARK INTER:                  -9.801
REMARK INTRA:                  -1.168
REMARK UNBOUND:                -0.706
REMARK  Name = 
REMARK  8 active torsions:
REMARK  status: ('A' for Active; 'I' for Inactive)
REMARK    1  A    between atoms: N_1  and  C_2
REMARK    2  A    between atoms: C_2  and  C_3
REMARK    3  A    between atoms: C_3  and  N_4
REMARK    4  A    between atoms: C_3  and  C_17
REMARK    5  A    between atoms: C_5  and  C_7
REMARK    6  A    between atoms: C_20  and  O_21
REMARK    7  A    between atoms: O_21  and  C_22
REMARK    8  A    between atoms: C_22  and  C_23
REMARK                            x       y       z     vdW  Elec       q    Type
REMARK                         _______ _______ _______ _____ _____    ______ ____
ROOT
ATOM      1  C   UNL     1      48.278   7.950  12.563  0.00  0.00    +0.000 C 
ENDROOT
BRANCH   1   2
ATOM      2  C   UNL     1      48.570   7.396  13.960  0.00  0.00    +0.000 A 
ATOM      3  C   UNL     1      47.999   6.180  14.367  0.00  0.00    +0.000 A 
ATOM      4  C   UNL     1      48.246   5.670  15.644  0.00  0.00    +0.000 A 
ATOM      5  C   UNL     1      49.095   6.345  16.521  0.00  0.00    +0.000 A 
ATOM      6  C   UNL     1      49.635   7.573  16.145  0.00  0.00    +0.000 A 
ATOM      7  C   UNL     1      49.368   8.098  14.879  0.00  0.00    +0.000 A 
BRANCH   5   8
ATOM      8  O   UNL     1      49.327   5.725  17.719  0.00  0.00    +0.000 OA
BRANCH   8   9
ATOM      9  C   UNL     1      49.023   4.324  17.739  0.00  0.00    +0.000 C 
BRANCH   9  10
ATOM     10  C   UNL     1      50.282   3.490  17.773  0.00  0.00    +0.000 A 
ATOM     11  C   UNL     1      50.293   2.179  17.303  0.00  0.00    +0.000 A 
ATOM     12  C   UNL     1      51.477   1.451  17.367  0.00  0.00    +0.000 A 
ATOM     13  C   UNL     1      52.612   2.042  17.912  0.00  0.00    +0.000 A 
ATOM     14  C   UNL     1      52.514   3.341  18.376  0.00  0.00    +0.000 A 
ATOM     15  N   UNL     1      51.380   4.072  18.324  0.00  0.00    +0.000 NA
ENDBRANCH   9  10
ENDBRANCH   8   9
ENDBRANCH   5   8
ENDBRANCH   1   2
BRANCH   1  16
ATOM     16  N   UNL     1      47.585   6.934  11.773  0.00  0.00    +0.000 N 
ATOM     17  C   UNL     1      46.238   6.952  11.519  0.00  0.00    +0.000 C 
ATOM     18  O   UNL     1      45.519   7.909  11.780  0.00  0.00    +0.000 OA
ATOM     19  H   UNL     1      48.029   6.022  11.786  0.00  0.00    +0.000 HD
BRANCH  17  20
ATOM     20  C   UNL     1      45.696   5.754  10.865  0.00  0.00    +0.000 A 
ATOM     21  C   UNL     1      45.872   5.564   9.502  0.00  0.00    +0.000 A 
ATOM     22  S   UNL     1      45.119   4.153   8.909  0.00  0.00    +0.000 S 
ATOM     23  C   UNL     1      44.509   3.764  10.449  0.00  0.00    +0.000 A 
ATOM     24  N   UNL     1      43.709   2.678  10.636  0.00  0.00    +0.000 NA
ATOM     25  C   UNL     1      43.298   2.525  11.850  0.00  0.00    +0.000 A 
ATOM     26  N   UNL     1      43.628   3.342  12.899  0.00  0.00    +0.000 N 
ATOM     27  C   UNL     1      44.474   4.414  12.767  0.00  0.00    +0.000 A 
ATOM     28  O   UNL     1      44.839   5.062  13.739  0.00  0.00    +0.000 OA
ATOM     29  C   UNL     1      44.918   4.669  11.411  0.00  0.00    +0.000 A 
ATOM     30  H   UNL     1      43.304   3.145  13.835  0.00  0.00    +0.000 HD
ENDBRANCH  17  20
ENDBRANCH   1  16
BRANCH   1  31
ATOM     31  C   UNL     1      49.592   8.457  11.895  0.00  0.00    +0.000 C 
BRANCH  31  32
ATOM     32  N   UNL     1      50.553   7.396  11.551  0.00  0.00    +0.000 NA
ATOM     33  H   UNL     1      51.474   7.817  11.437  0.00  0.00    +0.000 HD
ATOM     34  H   UNL     1      50.307   7.009  10.640  0.00  0.00    +0.000 HD
ENDBRANCH  31  32
ENDBRANCH   1  31
TORSDOF 8
ENDMDL
MODEL 8
REMARK VINA RESULT:    -7.066      2.948      8.023
REMARK INTER + INTRA:         -10.870
REMARK INTER:                  -9.886
REMARK INTRA:                  -0.984
REMARK UNBOUND:                -0.706
REMARK  Name = 
REMARK  8 active torsions:
REMARK  status: ('A' for Active; 'I' for Inactive)
REMARK    1  A    between atoms: N_1  and  C_2
REMARK    2  A    between atoms: C_2  and  C_3
REMARK    3  A    between atoms: C_3  and  N_4
REMARK    4  A    between atoms: C_3  and  C_17
REMARK    5  A    between atoms: C_5  and  C_7
REMARK    6  A    between atoms: C_20  and  O_21
REMARK    7  A    between atoms: O_21  and  C_22
REMARK    8  A    between atoms: C_22  and  C_23
REMARK                            x       y       z     vdW  Elec       q    Type
REMARK                         _______ _______ _______ _____ _____    ______ ____
ROOT
ATOM      1  C   UNL     1      47.957   7.523  12.521  0.00  0.00    +0.000 C 
ENDROOT
BRANCH   1   2
ATOM      2  C   UNL     1      48.666   7.186  13.835  0.00  0.00    +0.000 A 
ATOM      3  C   UNL     1      48.055   6.328  14.763  0.00  0.00    +0.000 A 
ATOM      4  C   UNL     1      48.684   6.022  15.973  0.00  0.00    +0.000 A 
ATOM      5  C   UNL     1      49.948   6.538  16.259  0.00  0.00    +0.000 A 
ATOM      6  C   UNL     1      50.547   7.423  15.365  0.00  0.00    +0.000 A 
ATOM      7  C   UNL     1      49.908   7.751  14.168  0.00  0.00    +0.000 A 
BRANCH   5   8
ATOM      8  O   UNL     1      50.507   6.120  17.436  0.00  0.00    +0.000 OA
BRANCH   8   9
ATOM      9  C   UNL     1      49.868   4.985  18.035  0.00  0.00    +0.000 C 
BRANCH   9  10
ATOM     10  C   UNL     1      50.708   3.738  17.878  0.00  0.00    +0.000 A 
ATOM     11  C   UNL     1      52.017   3.685  18.350  0.00  0.00    +0.000 A 
ATOM     12  C   UNL     1      52.750   2.516  18.170  0.00  0.00    +0.000 A 
ATOM     13  C   UNL     1      52.165   1.440  17.512  0.00  0.00    +0.000 A 
ATOM     14  C   UNL     1      50.868   1.579  17.055  0.00  0.00    +0.000 A 
ATOM     15  N   UNL     1      50.132   2.700  17.217  0.00  0.00    +0.000 NA
ENDBRANCH   9  10
ENDBRANCH   8   9
ENDBRANCH   5   8
ENDBRANCH   1   2
BRANCH   1  16
ATOM     16  N   UNL     1      47.101   6.404  12.131  0.00  0.00    +0.000 N 
ATOM     17  C   UNL     1      45.775   6.534  11.807  0.00  0.00    +0.000 C 
ATOM     18  O   UNL     1      45.227   7.618  11.646  0.00  0.00    +0.000 OA
ATOM     19  H   UNL     1      47.386   5.509  12.511  0.00  0.00    +0.000 HD
BRANCH  17  20
ATOM     20  C   UNL     1      45.037   5.279  11.620  0.00  0.00    +0.000 A 
ATOM     21  C   UNL     1      44.293   4.745  12.662  0.00  0.00    +0.000 A 
ATOM     22  S   UNL     1      43.560   3.252  12.281  0.00  0.00    +0.000 S 
ATOM     23  C   UNL     1      44.236   3.256  10.719  0.00  0.00    +0.000 A 
ATOM     24  N   UNL     1      44.045   2.211   9.867  0.00  0.00    +0.000 NA
ATOM     25  C   UNL     1      44.642   2.339   8.729  0.00  0.00    +0.000 A 
ATOM     26  N   UNL     1      45.392   3.423   8.355  0.00  0.00    +0.000 N 
ATOM     27  C   UNL     1      45.564   4.521   9.159  0.00  0.00    +0.000 A 
ATOM     28  O   UNL     1      46.147   5.519   8.760  0.00  0.00    +0.000 OA
ATOM     29  C   UNL     1      44.966   4.404  10.474  0.00  0.00    +0.000 A 
ATOM     30  H   UNL     1      45.801   3.480   7.433  0.00  0.00    +0.000 HD
ENDBRANCH  17  20
ENDBRANCH   1  16
BRANCH   1  31
ATOM     31  C   UNL     1      48.997   7.911  11.427  0.00  0.00    +0.000 C 
BRANCH  31  32
ATOM     32  N   UNL     1      49.195   9.360  11.256  0.00  0.00    +0.000 NA
ATOM     33  H   UNL     1      50.193   9.542  11.161  0.00  0.00    +0.000 HD
ATOM     34  H   UNL     1      48.904   9.837  12.110  0.00  0.00    +0.000 HD
ENDBRANCH  31  32
ENDBRANCH   1  31
TORSDOF 8
ENDMDL
MODEL 9
REMARK VINA RESULT:    -7.057      2.415      4.008
REMARK INTER + INTRA:         -10.858
REMARK INTER:                  -9.610
REMARK INTRA:                  -1.248
REMARK UNBOUND:                -0.706
REMARK  Name = 
REMARK  8 active torsions:
REMARK  status: ('A' for Active; 'I' for Inactive)
REMARK    1  A    between atoms: N_1  and  C_2
REMARK    2  A    between atoms: C_2  and  C_3
REMARK    3  A    between atoms: C_3  and  N_4
REMARK    4  A    between atoms: C_3  and  C_17
REMARK    5  A    between atoms: C_5  and  C_7
REMARK    6  A    between atoms: C_20  and  O_21
REMARK    7  A    between atoms: O_21  and  C_22
REMARK    8  A    between atoms: C_22  and  C_23
REMARK                            x       y       z     vdW  Elec       q    Type
REMARK                         _______ _______ _______ _____ _____    ______ ____
ROOT
ATOM      1  C   UNL     1      47.165   4.344  15.692  0.00  0.00    +0.000 C 
ENDROOT
BRANCH   1   2
ATOM      2  C   UNL     1      46.698   4.691  14.277  0.00  0.00    +0.000 A 
ATOM      3  C   UNL     1      45.830   3.827  13.591  0.00  0.00    +0.000 A 
ATOM      4  C   UNL     1      45.407   4.124  12.293  0.00  0.00    +0.000 A 
ATOM      5  C   UNL     1      45.812   5.307  11.674  0.00  0.00    +0.000 A 
ATOM      6  C   UNL     1      46.705   6.153  12.327  0.00  0.00    +0.000 A 
ATOM      7  C   UNL     1      47.151   5.844  13.614  0.00  0.00    +0.000 A 
BRANCH   5   8
ATOM      8  O   UNL     1      45.284   5.537  10.433  0.00  0.00    +0.000 OA
BRANCH   8   9
ATOM      9  C   UNL     1      44.520   4.452   9.893  0.00  0.00    +0.000 C 
BRANCH   9  10
ATOM     10  C   UNL     1      45.347   3.617   8.943  0.00  0.00    +0.000 A 
ATOM     11  C   UNL     1      46.059   4.203   7.899  0.00  0.00    +0.000 A 
ATOM     12  C   UNL     1      46.797   3.388   7.047  0.00  0.00    +0.000 A 
ATOM     13  C   UNL     1      46.792   2.012   7.247  0.00  0.00    +0.000 A 
ATOM     14  C   UNL     1      46.043   1.506   8.293  0.00  0.00    +0.000 A 
ATOM     15  N   UNL     1      45.320   2.272   9.137  0.00  0.00    +0.000 NA
ENDBRANCH   9  10
ENDBRANCH   8   9
ENDBRANCH   5   8
ENDBRANCH   1   2
BRANCH   1  16
ATOM     16  N   UNL     1      47.981   5.438  16.217  0.00  0.00    +0.000 N 
ATOM     17  C   UNL     1      47.984   5.826  17.531  0.00  0.00    +0.000 C 
ATOM     18  O   UNL     1      47.438   5.185  18.422  0.00  0.00    +0.000 OA
ATOM     19  H   UNL     1      48.205   6.154  15.535  0.00  0.00    +0.000 HD
BRANCH  17  20
ATOM     20  C   UNL     1      48.726   7.057  17.832  0.00  0.00    +0.000 A 
ATOM     21  C   UNL     1      48.089   8.121  18.454  0.00  0.00    +0.000 A 
ATOM     22  S   UNL     1      49.090   9.486  18.663  0.00  0.00    +0.000 S 
ATOM     23  C   UNL     1      50.401   8.710  17.903  0.00  0.00    +0.000 A 
ATOM     24  N   UNL     1      51.580   9.359  17.699  0.00  0.00    +0.000 NA
ATOM     25  C   UNL     1      52.473   8.656  17.085  0.00  0.00    +0.000 A 
ATOM     26  N   UNL     1      52.304   7.358  16.677  0.00  0.00    +0.000 N 
ATOM     27  C   UNL     1      51.154   6.650  16.912  0.00  0.00    +0.000 A 
ATOM     28  O   UNL     1      51.069   5.461  16.634  0.00  0.00    +0.000 OA
ATOM     29  C   UNL     1      50.095   7.411  17.544  0.00  0.00    +0.000 A 
ATOM     30  H   UNL     1      53.057   6.849  16.236  0.00  0.00    +0.000 HD
ENDBRANCH  17  20
ENDBRANCH   1  16
BRANCH   1  31
ATOM     31  C   UNL     1      47.902   2.971  15.699  0.00  0.00    +0.000 C 
BRANCH  31  32
ATOM     32  N   UNL     1      49.059   2.900  16.607  0.00  0.00    +0.000 NA
ATOM     33  H   UNL     1      49.192   1.930  16.889  0.00  0.00    +0.000 HD
ATOM     34  H   UNL     1      48.840   3.413  17.462  0.00  0.00    +0.000 HD
ENDBRANCH  31  32
ENDBRANCH   1  31
TORSDOF 8
ENDMDL
