MODEL 1
REMARK VINA RESULT:    -8.865      0.000      0.000
REMARK INTER + INTRA:         -12.414
REMARK INTER:                 -11.457
REMARK INTRA:                  -0.957
REMARK UNBOUND:                -0.957
REMARK  Name = 
REMARK  5 active torsions:
REMARK  status: ('A' for Active; 'I' for Inactive)
REMARK    1  A    between atoms: C_2  and  C_4
REMARK    2  A    between atoms: C_7  and  N_8
REMARK    3  A    between atoms: N_8  and  C_9
REMARK    4  A    between atoms: C_9  and  C_10
REMARK    5  A    between atoms: C_14  and  C_15
REMARK                            x       y       z     vdW  Elec       q    Type
REMARK                         _______ _______ _______ _____ _____    ______ ____
ROOT
ATOM      1  C   UNL     1      43.455   4.794  11.255  0.00  0.00    +0.000 C 
ENDROOT
BRANCH   1   2
ATOM      2  C   UNL     1      44.678   5.097  12.076  0.00  0.00    +0.000 A 
ATOM      3  C   UNL     1      45.068   4.267  13.116  0.00  0.00    +0.000 A 
ATOM      4  N   UNL     1      46.207   4.432  13.818  0.00  0.00    +0.000 NA
ATOM      5  C   UNL     1      46.997   5.478  13.464  0.00  0.00    +0.000 A 
ATOM      6  C   UNL     1      46.718   6.400  12.451  0.00  0.00    +0.000 A 
ATOM      7  C   UNL     1      45.520   6.176  11.756  0.00  0.00    +0.000 A 
BRANCH   6   8
ATOM      8  C   UNL     1      47.616   7.533  12.138  0.00  0.00    +0.000 A 
ATOM      9  C   UNL     1      47.156   8.866  12.135  0.00  0.00    +0.000 A 
ATOM     10  C   UNL     1      48.016   9.942  11.871  0.00  0.00    +0.000 A 
ATOM     11  C   UNL     1      49.357   9.705  11.591  0.00  0.00    +0.000 A 
ATOM     12  C   UNL     1      49.823   8.401  11.575  0.00  0.00    +0.000 A 
ATOM     13  F   UNL     1      51.113   8.165  11.302  0.00  0.00    +0.000 F 
ATOM     14  C   UNL     1      48.975   7.327  11.844  0.00  0.00    +0.000 A 
ENDBRANCH   6   8
ENDBRANCH   1   2
BRANCH   1  15
ATOM     15  N   UNL     1      43.751   4.946   9.843  0.00  0.00    +0.000 N 
ATOM     16  H   UNL     1      42.989   5.339   9.296  0.00  0.00    +0.000 HD
BRANCH  15  20
ATOM     17  C   UNL     1      46.326   2.249   7.870  0.00  0.00    +0.000 A 
ATOM     18  C   UNL     1      45.354   1.757   8.743  0.00  0.00    +0.000 A 
ATOM     19  C   UNL     1      44.467   2.638   9.373  0.00  0.00    +0.000 A 
ATOM     20  C   UNL     1      44.517   4.015   9.141  0.00  0.00    +0.000 A 
ATOM     21  C   UNL     1      45.510   4.494   8.274  0.00  0.00    +0.000 A 
ATOM     22  C   UNL     1      46.408   3.625   7.642  0.00  0.00    +0.000 A 
BRANCH  17  24
ATOM     23  N   UNL     1      48.364   1.945   6.579  0.00  0.00    +0.000 N 
ATOM     24  C   UNL     1      47.304   1.351   7.208  0.00  0.00    +0.000 C 
ATOM     25  O   UNL     1      47.193   0.134   7.247  0.00  0.00    +0.000 OA
ATOM     26  H   UNL     1      49.079   1.323   6.221  0.00  0.00    +0.000 HD
ATOM     27  H   UNL     1      48.616   2.909   6.737  0.00  0.00    +0.000 HD
ENDBRANCH  17  24
ENDBRANCH  15  20
ENDBRANCH   1  15
TORSDOF 5
ENDMDL
MODEL 2
REMARK VINA RESULT:    -8.617      1.801      2.151
REMARK INTER + INTRA:         -12.093
REMARK INTER:                 -11.149
REMARK INTRA:                  -0.943
REMARK UNBOUND:                -0.957
REMARK  Name = 
REMARK  5 active torsions:
REMARK  status: ('A' for Active; 'I' for Inactive)
REMARK    1  A    between atoms: C_2  and  C_4
REMARK    2  A    between atoms: C_7  and  N_8
REMARK    3  A    between atoms: N_8  and  C_9
REMARK    4  A    between atoms: C_9  and  C_10
REMARK    5  A    between atoms: C_14  and  C_15
REMARK                            x       y       z     vdW  Elec       q    Type
REMARK                         _______ _______ _______ _____ _____    ______ ____
ROOT
ATOM      1  C   UNL     1      44.078   3.421  11.976  0.00  0.00    +0.000 C 
ENDROOT
BRANCH   1   2
ATOM      2  C   UNL     1      45.228   4.213  12.533  0.00  0.00    +0.000 A 
ATOM      3  C   UNL     1      46.235   3.600  13.263  0.00  0.00    +0.000 A 
ATOM      4  N   UNL     1      47.339   4.239  13.700  0.00  0.00    +0.000 NA
ATOM      5  C   UNL     1      47.443   5.556  13.391  0.00  0.00    +0.000 A 
ATOM      6  C   UNL     1      46.499   6.301  12.679  0.00  0.00    +0.000 A 
ATOM      7  C   UNL     1      45.373   5.582  12.251  0.00  0.00    +0.000 A 
BRANCH   6   8
ATOM      8  C   UNL     1      46.670   7.745  12.401  0.00  0.00    +0.000 A 
ATOM      9  C   UNL     1      47.941   8.309  12.163  0.00  0.00    +0.000 A 
ATOM     10  C   UNL     1      48.098   9.670  11.867  0.00  0.00    +0.000 A 
ATOM     11  C   UNL     1      46.986  10.502  11.814  0.00  0.00    +0.000 A 
ATOM     12  C   UNL     1      45.731   9.968  12.060  0.00  0.00    +0.000 A 
ATOM     13  F   UNL     1      44.655  10.763  12.014  0.00  0.00    +0.000 F 
ATOM     14  C   UNL     1      45.566   8.613  12.348  0.00  0.00    +0.000 A 
ENDBRANCH   6   8
ENDBRANCH   1   2
BRANCH   1  15
ATOM     15  N   UNL     1      43.814   3.819  10.606  0.00  0.00    +0.000 N 
ATOM     16  H   UNL     1      42.826   3.893  10.375  0.00  0.00    +0.000 HD
BRANCH  15  20
ATOM     17  C   UNL     1      46.447   2.660   7.521  0.00  0.00    +0.000 A 
ATOM     18  C   UNL     1      45.886   1.685   8.347  0.00  0.00    +0.000 A 
ATOM     19  C   UNL     1      44.979   2.052   9.348  0.00  0.00    +0.000 A 
ATOM     20  C   UNL     1      44.604   3.385   9.541  0.00  0.00    +0.000 A 
ATOM     21  C   UNL     1      45.191   4.353   8.714  0.00  0.00    +0.000 A 
ATOM     22  C   UNL     1      46.104   4.000   7.712  0.00  0.00    +0.000 A 
BRANCH  17  24
ATOM     23  N   UNL     1      47.444   3.094   5.346  0.00  0.00    +0.000 N 
ATOM     24  C   UNL     1      47.436   2.313   6.470  0.00  0.00    +0.000 C 
ATOM     25  O   UNL     1      48.232   1.396   6.609  0.00  0.00    +0.000 OA
ATOM     26  H   UNL     1      48.188   2.915   4.682  0.00  0.00    +0.000 HD
ATOM     27  H   UNL     1      46.984   3.990   5.306  0.00  0.00    +0.000 HD
ENDBRANCH  17  24
ENDBRANCH  15  20
ENDBRANCH   1  15
TORSDOF 5
ENDMDL
MODEL 3
REMARK VINA RESULT:    -8.538      2.696      3.838
REMARK INTER + INTRA:         -11.991
REMARK INTER:                 -11.395
REMARK INTRA:                  -0.596
REMARK UNBOUND:                -0.957
REMARK  Name = 
REMARK  5 active torsions:
REMARK  status: ('A' for Active; 'I' for Inactive)
REMARK    1  A    between atoms: C_2  and  C_4
REMARK    2  A    between atoms: C_7  and  N_8
REMARK    3  A    between atoms: N_8  and  C_9
REMARK    4  A    between atoms: C_9  and  C_10
REMARK    5  A    between atoms: C_14  and  C_15
REMARK                            x       y       z     vdW  Elec       q    Type
REMARK                         _______ _______ _______ _____ _____    ______ ____
ROOT
ATOM      1  C   UNL     1      43.916   4.754  11.572  0.00  0.00    +0.000 C 
ENDROOT
BRANCH   1   2
ATOM      2  C   UNL     1      45.223   5.314  12.063  0.00  0.00    +0.000 A 
ATOM      3  C   UNL     1      45.895   6.297  11.354  0.00  0.00    +0.000 A 
ATOM      4  N   UNL     1      47.014   6.906  11.795  0.00  0.00    +0.000 NA
ATOM      5  C   UNL     1      47.486   6.514  13.005  0.00  0.00    +0.000 A 
ATOM      6  C   UNL     1      46.919   5.526  13.817  0.00  0.00    +0.000 A 
ATOM      7  C   UNL     1      45.758   4.929  13.305  0.00  0.00    +0.000 A 
BRANCH   6   8
ATOM      8  C   UNL     1      47.506   5.133  15.117  0.00  0.00    +0.000 A 
ATOM      9  C   UNL     1      48.505   5.906  15.744  0.00  0.00    +0.000 A 
ATOM     10  C   UNL     1      49.036   5.550  16.993  0.00  0.00    +0.000 A 
ATOM     11  C   UNL     1      48.586   4.403  17.637  0.00  0.00    +0.000 A 
ATOM     12  C   UNL     1      47.615   3.624  17.028  0.00  0.00    +0.000 A 
ATOM     13  F   UNL     1      47.179   2.516  17.640  0.00  0.00    +0.000 F 
ATOM     14  C   UNL     1      47.077   3.975  15.790  0.00  0.00    +0.000 A 
ENDBRANCH   6   8
ENDBRANCH   1   2
BRANCH   1  15
ATOM     15  N   UNL     1      43.863   4.809  10.123  0.00  0.00    +0.000 N 
ATOM     16  H   UNL     1      42.946   5.037   9.746  0.00  0.00    +0.000 HD
BRANCH  15  20
ATOM     17  C   UNL     1      46.333   2.278   7.823  0.00  0.00    +0.000 A 
ATOM     18  C   UNL     1      45.465   1.721   8.763  0.00  0.00    +0.000 A 
ATOM     19  C   UNL     1      44.611   2.547   9.504  0.00  0.00    +0.000 A 
ATOM     20  C   UNL     1      44.592   3.932   9.319  0.00  0.00    +0.000 A 
ATOM     21  C   UNL     1      45.483   4.476   8.383  0.00  0.00    +0.000 A 
ATOM     22  C   UNL     1      46.347   3.663   7.640  0.00  0.00    +0.000 A 
BRANCH  17  24
ATOM     23  N   UNL     1      48.332   2.081   6.452  0.00  0.00    +0.000 N 
ATOM     24  C   UNL     1      47.276   1.440   7.041  0.00  0.00    +0.000 C 
ATOM     25  O   UNL     1      47.140   0.228   6.951  0.00  0.00    +0.000 OA
ATOM     26  H   UNL     1      49.025   1.489   6.009  0.00  0.00    +0.000 HD
ATOM     27  H   UNL     1      48.609   3.016   6.707  0.00  0.00    +0.000 HD
ENDBRANCH  17  24
ENDBRANCH  15  20
ENDBRANCH   1  15
TORSDOF 5
ENDMDL
MODEL 4
REMARK VINA RESULT:    -8.355      3.628      6.779
REMARK INTER + INTRA:         -11.754
REMARK INTER:                 -10.913
REMARK INTRA:                  -0.841
REMARK UNBOUND:                -0.957
REMARK  Name = 
REMARK  5 active torsions:
REMARK  status: ('A' for Active; 'I' for Inactive)
REMARK    1  A    between atoms: C_2  and  C_4
REMARK    2  A    between atoms: C_7  and  N_8
REMARK    3  A    between atoms: N_8  and  C_9
REMARK    4  A    between atoms: C_9  and  C_10
REMARK    5  A    between atoms: C_14  and  C_15
REMARK                            x       y       z     vdW  Elec       q    Type
REMARK                         _______ _______ _______ _____ _____    ______ ____
ROOT
ATOM      1  C   UNL     1      43.480   6.487  11.313  0.00  0.00    +0.000 C 
ENDROOT
BRANCH   1   2
ATOM      2  C   UNL     1      43.716   5.029  11.036  0.00  0.00    +0.000 A 
ATOM      3  C   UNL     1      43.063   4.045  11.763  0.00  0.00    +0.000 A 
ATOM      4  N   UNL     1      43.158   2.727  11.494  0.00  0.00    +0.000 NA
ATOM      5  C   UNL     1      43.945   2.374  10.446  0.00  0.00    +0.000 A 
ATOM      6  C   UNL     1      44.672   3.257   9.642  0.00  0.00    +0.000 A 
ATOM      7  C   UNL     1      44.532   4.613   9.970  0.00  0.00    +0.000 A 
BRANCH   6   8
ATOM      8  C   UNL     1      45.531   2.794   8.529  0.00  0.00    +0.000 A 
ATOM      9  C   UNL     1      45.983   3.676   7.525  0.00  0.00    +0.000 A 
ATOM     10  C   UNL     1      46.825   3.244   6.490  0.00  0.00    +0.000 A 
ATOM     11  C   UNL     1      47.225   1.914   6.431  0.00  0.00    +0.000 A 
ATOM     12  C   UNL     1      46.778   1.031   7.400  0.00  0.00    +0.000 A 
ATOM     13  F   UNL     1      47.156  -0.253   7.348  0.00  0.00    +0.000 F 
ATOM     14  C   UNL     1      45.947   1.455   8.437  0.00  0.00    +0.000 A 
ENDBRANCH   6   8
ENDBRANCH   1   2
BRANCH   1  15
ATOM     15  N   UNL     1      44.180   6.887  12.518  0.00  0.00    +0.000 N 
ATOM     16  H   UNL     1      43.599   7.369  13.200  0.00  0.00    +0.000 HD
BRANCH  15  20
ATOM     17  C   UNL     1      48.209   8.092  12.175  0.00  0.00    +0.000 A 
ATOM     18  C   UNL     1      47.197   9.051  12.111  0.00  0.00    +0.000 A 
ATOM     19  C   UNL     1      45.859   8.670  12.264  0.00  0.00    +0.000 A 
ATOM     20  C   UNL     1      45.500   7.339  12.495  0.00  0.00    +0.000 A 
ATOM     21  C   UNL     1      46.528   6.386  12.540  0.00  0.00    +0.000 A 
ATOM     22  C   UNL     1      47.870   6.753  12.382  0.00  0.00    +0.000 A 
BRANCH  17  24
ATOM     23  N   UNL     1      50.519   7.419  11.825  0.00  0.00    +0.000 N 
ATOM     24  C   UNL     1      49.636   8.452  11.986  0.00  0.00    +0.000 C 
ATOM     25  O   UNL     1      50.008   9.616  11.942  0.00  0.00    +0.000 OA
ATOM     26  H   UNL     1      51.471   7.676  11.594  0.00  0.00    +0.000 HD
ATOM     27  H   UNL     1      50.221   6.480  11.610  0.00  0.00    +0.000 HD
ENDBRANCH  17  24
ENDBRANCH  15  20
ENDBRANCH   1  15
TORSDOF 5
ENDMDL
MODEL 5
REMARK VINA RESULT:    -7.909      3.930      7.117
REMARK INTER + INTRA:         -11.178
REMARK INTER:                 -10.369
REMARK INTRA:                  -0.809
REMARK UNBOUND:                -0.957
REMARK  Name = 
REMARK  5 active torsions:
REMARK  status: ('A' for Active; 'I' for Inactive)
REMARK    1  A    between atoms: C_2  and  C_4
REMARK    2  A    between atoms: C_7  and  N_8
REMARK    3  A    between atoms: N_8  and  C_9
REMARK    4  A    between atoms: C_9  and  C_10
REMARK    5  A    between atoms: C_14  and  C_15
REMARK                            x       y       z     vdW  Elec       q    Type
REMARK                         _______ _______ _______ _____ _____    ______ ____
ROOT
ATOM      1  C   UNL     1      43.974   6.590  11.554  0.00  0.00    +0.000 C 
ENDROOT
BRANCH   1   2
ATOM      2  C   UNL     1      44.008   5.137  11.169  0.00  0.00    +0.000 A 
ATOM      3  C   UNL     1      43.181   4.211  11.786  0.00  0.00    +0.000 A 
ATOM      4  N   UNL     1      43.096   2.918  11.415  0.00  0.00    +0.000 NA
ATOM      5  C   UNL     1      43.875   2.530  10.374  0.00  0.00    +0.000 A 
ATOM      6  C   UNL     1      44.763   3.351   9.674  0.00  0.00    +0.000 A 
ATOM      7  C   UNL     1      44.808   4.685  10.106  0.00  0.00    +0.000 A 
BRANCH   6   8
ATOM      8  C   UNL     1      45.602   2.849   8.562  0.00  0.00    +0.000 A 
ATOM      9  C   UNL     1      46.111   3.712   7.569  0.00  0.00    +0.000 A 
ATOM     10  C   UNL     1      46.933   3.241   6.536  0.00  0.00    +0.000 A 
ATOM     11  C   UNL     1      47.254   1.890   6.465  0.00  0.00    +0.000 A 
ATOM     12  C   UNL     1      46.750   1.026   7.424  0.00  0.00    +0.000 A 
ATOM     13  F   UNL     1      47.052  -0.278   7.361  0.00  0.00    +0.000 F 
ATOM     14  C   UNL     1      45.938   1.488   8.459  0.00  0.00    +0.000 A 
ENDBRANCH   6   8
ENDBRANCH   1   2
BRANCH   1  15
ATOM     15  N   UNL     1      45.192   7.249  11.123  0.00  0.00    +0.000 N 
ATOM     16  H   UNL     1      45.477   7.023  10.173  0.00  0.00    +0.000 HD
BRANCH  15  20
ATOM     17  C   UNL     1      48.586   8.055  13.496  0.00  0.00    +0.000 A 
ATOM     18  C   UNL     1      47.367   8.655  13.814  0.00  0.00    +0.000 A 
ATOM     19  C   UNL     1      46.224   8.365  13.059  0.00  0.00    +0.000 A 
ATOM     20  C   UNL     1      46.264   7.468  11.988  0.00  0.00    +0.000 A 
ATOM     21  C   UNL     1      47.501   6.888  11.671  0.00  0.00    +0.000 A 
ATOM     22  C   UNL     1      48.653   7.174  12.414  0.00  0.00    +0.000 A 
BRANCH  17  24
ATOM     23  N   UNL     1      50.969   7.729  13.848  0.00  0.00    +0.000 N 
ATOM     24  C   UNL     1      49.825   8.361  14.252  0.00  0.00    +0.000 C 
ATOM     25  O   UNL     1      49.838   9.165  15.173  0.00  0.00    +0.000 OA
ATOM     26  H   UNL     1      51.827   8.022  14.301  0.00  0.00    +0.000 HD
ATOM     27  H   UNL     1      51.045   7.264  12.956  0.00  0.00    +0.000 HD
ENDBRANCH  17  24
ENDBRANCH  15  20
ENDBRANCH   1  15
TORSDOF 5
ENDMDL
MODEL 6
REMARK VINA RESULT:    -7.848      1.819      2.264
REMARK INTER + INTRA:         -11.099
REMARK INTER:                 -10.322
REMARK INTRA:                  -0.778
REMARK UNBOUND:                -0.957
REMARK  Name = 
REMARK  5 active torsions:
REMARK  status: ('A' for Active; 'I' for Inactive)
REMARK    1  A    between atoms: C_2  and  C_4
REMARK    2  A    between atoms: C_7  and  N_8
REMARK    3  A    between atoms: N_8  and  C_9
REMARK    4  A    between atoms: C_9  and  C_10
REMARK    5  A    between atoms: C_14  and  C_15
REMARK                            x       y       z     vdW  Elec       q    Type
REMARK                         _______ _______ _______ _____ _____    ______ ____
ROOT
ATOM      1  C   UNL     1      44.196   4.229  11.607  0.00  0.00    +0.000 C 
ENDROOT
BRANCH   1   2
ATOM      2  C   UNL     1      44.802   5.602  11.695  0.00  0.00    +0.000 A 
ATOM      3  C   UNL     1      44.078   6.731  11.344  0.00  0.00    +0.000 A 
ATOM      4  N   UNL     1      44.534   7.990  11.497  0.00  0.00    +0.000 NA
ATOM      5  C   UNL     1      45.776   8.130  12.028  0.00  0.00    +0.000 A 
ATOM      6  C   UNL     1      46.619   7.082  12.408  0.00  0.00    +0.000 A 
ATOM      7  C   UNL     1      46.089   5.795  12.225  0.00  0.00    +0.000 A 
BRANCH   6   8
ATOM      8  C   UNL     1      47.974   7.311  12.957  0.00  0.00    +0.000 A 
ATOM      9  C   UNL     1      48.960   8.009  12.231  0.00  0.00    +0.000 A 
ATOM     10  C   UNL     1      50.233   8.255  12.766  0.00  0.00    +0.000 A 
ATOM     11  C   UNL     1      50.551   7.795  14.038  0.00  0.00    +0.000 A 
ATOM     12  C   UNL     1      49.599   7.094  14.760  0.00  0.00    +0.000 A 
ATOM     13  F   UNL     1      49.899   6.645  15.986  0.00  0.00    +0.000 F 
ATOM     14  C   UNL     1      48.329   6.853  14.238  0.00  0.00    +0.000 A 
ENDBRANCH   6   8
ENDBRANCH   1   2
BRANCH   1  15
ATOM     15  N   UNL     1      43.754   3.964  10.251  0.00  0.00    +0.000 N 
ATOM     16  H   UNL     1      42.806   3.600  10.183  0.00  0.00    +0.000 HD
BRANCH  15  20
ATOM     17  C   UNL     1      46.589   2.605   7.438  0.00  0.00    +0.000 A 
ATOM     18  C   UNL     1      45.979   1.689   8.295  0.00  0.00    +0.000 A 
ATOM     19  C   UNL     1      45.007   2.120   9.206  0.00  0.00    +0.000 A 
ATOM     20  C   UNL     1      44.613   3.460   9.275  0.00  0.00    +0.000 A 
ATOM     21  C   UNL     1      45.249   4.370   8.418  0.00  0.00    +0.000 A 
ATOM     22  C   UNL     1      46.227   3.953   7.507  0.00  0.00    +0.000 A 
BRANCH  17  24
ATOM     23  N   UNL     1      47.813   2.971   5.369  0.00  0.00    +0.000 N 
ATOM     24  C   UNL     1      47.645   2.192   6.482  0.00  0.00    +0.000 C 
ATOM     25  O   UNL     1      48.360   1.221   6.688  0.00  0.00    +0.000 OA
ATOM     26  H   UNL     1      48.602   2.742   4.776  0.00  0.00    +0.000 HD
ATOM     27  H   UNL     1      47.421   3.897   5.292  0.00  0.00    +0.000 HD
ENDBRANCH  17  24
ENDBRANCH  15  20
ENDBRANCH   1  15
TORSDOF 5
ENDMDL
MODEL 7
REMARK VINA RESULT:    -7.620      3.904      7.249
REMARK INTER + INTRA:         -10.805
REMARK INTER:                 -10.277
REMARK INTRA:                  -0.528
REMARK UNBOUND:                -0.957
REMARK  Name = 
REMARK  5 active torsions:
REMARK  status: ('A' for Active; 'I' for Inactive)
REMARK    1  A    between atoms: C_2  and  C_4
REMARK    2  A    between atoms: C_7  and  N_8
REMARK    3  A    between atoms: N_8  and  C_9
REMARK    4  A    between atoms: C_9  and  C_10
REMARK    5  A    between atoms: C_14  and  C_15
REMARK                            x       y       z     vdW  Elec       q    Type
REMARK                         _______ _______ _______ _____ _____    ______ ____
ROOT
ATOM      1  C   UNL     1      45.149   6.801  12.116  0.00  0.00    +0.000 C 
ENDROOT
BRANCH   1   2
ATOM      2  C   UNL     1      44.694   5.499  11.519  0.00  0.00    +0.000 A 
ATOM      3  C   UNL     1      43.524   4.886  11.940  0.00  0.00    +0.000 A 
ATOM      4  N   UNL     1      43.015   3.773  11.374  0.00  0.00    +0.000 NA
ATOM      5  C   UNL     1      43.709   3.247  10.333  0.00  0.00    +0.000 A 
ATOM      6  C   UNL     1      44.907   3.750   9.818  0.00  0.00    +0.000 A 
ATOM      7  C   UNL     1      45.386   4.908  10.448  0.00  0.00    +0.000 A 
BRANCH   6   8
ATOM      8  C   UNL     1      45.623   3.105   8.694  0.00  0.00    +0.000 A 
ATOM      9  C   UNL     1      46.109   3.850   7.600  0.00  0.00    +0.000 A 
ATOM     10  C   UNL     1      46.816   3.243   6.552  0.00  0.00    +0.000 A 
ATOM     11  C   UNL     1      47.042   1.872   6.571  0.00  0.00    +0.000 A 
ATOM     12  C   UNL     1      46.558   1.122   7.631  0.00  0.00    +0.000 A 
ATOM     13  F   UNL     1      46.769  -0.200   7.654  0.00  0.00    +0.000 F 
ATOM     14  C   UNL     1      45.861   1.720   8.680  0.00  0.00    +0.000 A 
ENDBRANCH   6   8
ENDBRANCH   1   2
BRANCH   1  15
ATOM     15  N   UNL     1      46.580   6.769  12.353  0.00  0.00    +0.000 N 
ATOM     16  H   UNL     1      47.141   6.674  11.510  0.00  0.00    +0.000 HD
BRANCH  15  20
ATOM     17  C   UNL     1      48.140   5.093  15.896  0.00  0.00    +0.000 A 
ATOM     18  C   UNL     1      47.159   4.402  15.183  0.00  0.00    +0.000 A 
ATOM     19  C   UNL     1      46.661   4.928  13.985  0.00  0.00    +0.000 A 
ATOM     20  C   UNL     1      47.135   6.137  13.465  0.00  0.00    +0.000 A 
ATOM     21  C   UNL     1      48.108   6.825  14.203  0.00  0.00    +0.000 A 
ATOM     22  C   UNL     1      48.610   6.314  15.406  0.00  0.00    +0.000 A 
BRANCH  17  24
ATOM     23  N   UNL     1      47.921   4.836  18.304  0.00  0.00    +0.000 N 
ATOM     24  C   UNL     1      48.669   4.584  17.185  0.00  0.00    +0.000 C 
ATOM     25  O   UNL     1      49.706   3.940  17.249  0.00  0.00    +0.000 OA
ATOM     26  H   UNL     1      48.235   4.397  19.161  0.00  0.00    +0.000 HD
ATOM     27  H   UNL     1      46.960   5.138  18.256  0.00  0.00    +0.000 HD
ENDBRANCH  17  24
ENDBRANCH  15  20
ENDBRANCH   1  15
TORSDOF 5
ENDMDL
MODEL 8
REMARK VINA RESULT:    -7.145      4.623      7.979
REMARK INTER + INTRA:         -10.191
REMARK INTER:                  -9.678
REMARK INTRA:                  -0.513
REMARK UNBOUND:                -0.957
REMARK  Name = 
REMARK  5 active torsions:
REMARK  status: ('A' for Active; 'I' for Inactive)
REMARK    1  A    between atoms: C_2  and  C_4
REMARK    2  A    between atoms: C_7  and  N_8
REMARK    3  A    between atoms: N_8  and  C_9
REMARK    4  A    between atoms: C_9  and  C_10
REMARK    5  A    between atoms: C_14  and  C_15
REMARK                            x       y       z     vdW  Elec       q    Type
REMARK                         _______ _______ _______ _____ _____    ______ ____
ROOT
ATOM      1  C   UNL     1      45.991   5.427  13.974  0.00  0.00    +0.000 C 
ENDROOT
BRANCH   1   2
ATOM      2  C   UNL     1      45.100   5.018  12.834  0.00  0.00    +0.000 A 
ATOM      3  C   UNL     1      43.741   5.289  12.851  0.00  0.00    +0.000 A 
ATOM      4  N   UNL     1      42.914   5.036  11.817  0.00  0.00    +0.000 NA
ATOM      5  C   UNL     1      43.472   4.487  10.709  0.00  0.00    +0.000 A 
ATOM      6  C   UNL     1      44.820   4.147  10.562  0.00  0.00    +0.000 A 
ATOM      7  C   UNL     1      45.630   4.433  11.671  0.00  0.00    +0.000 A 
BRANCH   6   8
ATOM      8  C   UNL     1      45.354   3.526   9.329  0.00  0.00    +0.000 A 
ATOM      9  C   UNL     1      45.756   4.301   8.222  0.00  0.00    +0.000 A 
ATOM     10  C   UNL     1      46.293   3.712   7.068  0.00  0.00    +0.000 A 
ATOM     11  C   UNL     1      46.428   2.331   6.992  0.00  0.00    +0.000 A 
ATOM     12  C   UNL     1      46.023   1.553   8.064  0.00  0.00    +0.000 A 
ATOM     13  F   UNL     1      46.147   0.222   7.997  0.00  0.00    +0.000 F 
ATOM     14  C   UNL     1      45.496   2.132   9.218  0.00  0.00    +0.000 A 
ENDBRANCH   6   8
ENDBRANCH   1   2
BRANCH   1  15
ATOM     15  N   UNL     1      46.530   4.253  14.633  0.00  0.00    +0.000 N 
ATOM     16  H   UNL     1      45.870   3.484  14.726  0.00  0.00    +0.000 HD
BRANCH  15  20
ATOM     17  C   UNL     1      49.442   4.329  17.685  0.00  0.00    +0.000 A 
ATOM     18  C   UNL     1      49.157   5.498  16.978  0.00  0.00    +0.000 A 
ATOM     19  C   UNL     1      48.164   5.496  15.991  0.00  0.00    +0.000 A 
ATOM     20  C   UNL     1      47.430   4.344  15.695  0.00  0.00    +0.000 A 
ATOM     21  C   UNL     1      47.741   3.174  16.404  0.00  0.00    +0.000 A 
ATOM     22  C   UNL     1      48.735   3.161  17.389  0.00  0.00    +0.000 A 
BRANCH  17  24
ATOM     23  N   UNL     1      51.512   3.372  18.529  0.00  0.00    +0.000 N 
ATOM     24  C   UNL     1      50.507   4.283  18.716  0.00  0.00    +0.000 C 
ATOM     25  O   UNL     1      50.513   5.043  19.674  0.00  0.00    +0.000 OA
ATOM     26  H   UNL     1      52.286   3.419  19.180  0.00  0.00    +0.000 HD
ATOM     27  H   UNL     1      51.669   2.914  17.645  0.00  0.00    +0.000 HD
ENDBRANCH  17  24
ENDBRANCH  15  20
ENDBRANCH   1  15
TORSDOF 5
ENDMDL
MODEL 9
REMARK VINA RESULT:    -6.514      4.574      7.967
REMARK INTER + INTRA:          -9.375
REMARK INTER:                  -8.813
REMARK INTRA:                  -0.562
REMARK UNBOUND:                -0.957
REMARK  Name = 
REMARK  5 active torsions:
REMARK  status: ('A' for Active; 'I' for Inactive)
REMARK    1  A    between atoms: C_2  and  C_4
REMARK    2  A    between atoms: C_7  and  N_8
REMARK    3  A    between atoms: N_8  and  C_9
REMARK    4  A    between atoms: C_9  and  C_10
REMARK    5  A    between atoms: C_14  and  C_15
REMARK                            x       y       z     vdW  Elec       q    Type
REMARK                         _______ _______ _______ _____ _____    ______ ____
ROOT
ATOM      1  C   UNL     1      48.312   7.449  13.741  0.00  0.00    +0.000 C 
ENDROOT
BRANCH   1   2
ATOM      2  C   UNL     1      47.045   7.372  12.934  0.00  0.00    +0.000 A 
ATOM      3  C   UNL     1      46.170   8.444  12.868  0.00  0.00    +0.000 A 
ATOM      4  N   UNL     1      45.074   8.469  12.083  0.00  0.00    +0.000 NA
ATOM      5  C   UNL     1      44.840   7.367  11.326  0.00  0.00    +0.000 A 
ATOM      6  C   UNL     1      45.628   6.212  11.308  0.00  0.00    +0.000 A 
ATOM      7  C   UNL     1      46.753   6.246  12.145  0.00  0.00    +0.000 A 
BRANCH   6   8
ATOM      8  C   UNL     1      45.296   5.036  10.474  0.00  0.00    +0.000 A 
ATOM      9  C   UNL     1      44.562   3.946  10.986  0.00  0.00    +0.000 A 
ATOM     10  C   UNL     1      44.218   2.847  10.185  0.00  0.00    +0.000 A 
ATOM     11  C   UNL     1      44.614   2.810   8.853  0.00  0.00    +0.000 A 
ATOM     12  C   UNL     1      45.349   3.865   8.337  0.00  0.00    +0.000 A 
ATOM     13  F   UNL     1      45.737   3.834   7.056  0.00  0.00    +0.000 F 
ATOM     14  C   UNL     1      45.687   4.964   9.126  0.00  0.00    +0.000 A 
ENDBRANCH   6   8
ENDBRANCH   1   2
BRANCH   1  15
ATOM     15  N   UNL     1      48.020   7.257  15.149  0.00  0.00    +0.000 N 
ATOM     16  H   UNL     1      47.619   8.071  15.608  0.00  0.00    +0.000 HD
BRANCH  15  20
ATOM     17  C   UNL     1      50.470   4.719  17.462  0.00  0.00    +0.000 A 
ATOM     18  C   UNL     1      51.024   5.854  16.869  0.00  0.00    +0.000 A 
ATOM     19  C   UNL     1      50.213   6.726  16.133  0.00  0.00    +0.000 A 
ATOM     20  C   UNL     1      48.842   6.498  15.982  0.00  0.00    +0.000 A 
ATOM     21  C   UNL     1      48.307   5.343  16.570  0.00  0.00    +0.000 A 
ATOM     22  C   UNL     1      49.107   4.459  17.304  0.00  0.00    +0.000 A 
BRANCH  17  24
ATOM     23  N   UNL     1      51.290   2.454  17.796  0.00  0.00    +0.000 N 
ATOM     24  C   UNL     1      51.302   3.754  18.223  0.00  0.00    +0.000 C 
ATOM     25  O   UNL     1      51.995   4.103  19.168  0.00  0.00    +0.000 OA
ATOM     26  H   UNL     1      51.939   1.826  18.255  0.00  0.00    +0.000 HD
ATOM     27  H   UNL     1      50.937   2.185  16.890  0.00  0.00    +0.000 HD
ENDBRANCH  17  24
ENDBRANCH  15  20
ENDBRANCH   1  15
TORSDOF 5
ENDMDL
