MODEL 1
REMARK VINA RESULT:    -7.526      0.000      0.000
REMARK INTER + INTRA:         -12.027
REMARK INTER:                 -11.045
REMARK INTRA:                  -0.981
REMARK UNBOUND:                -0.981
REMARK  Name = 
REMARK  12 active torsions:
REMARK  status: ('A' for Active; 'I' for Inactive)
REMARK    1  A    between atoms: C_1  and  C_2
REMARK    2  A    between atoms: C_2  and  N_3
REMARK    3  A    between atoms: N_3  and  C_4
REMARK    4  A    between atoms: C_4  and  C_5
REMARK    5  A    between atoms: C_6  and  C_8
REMARK    6  A    between atoms: C_11  and  C_12
REMARK    7  A    between atoms: C_12  and  C_13
REMARK    8  A    between atoms: C_12  and  C_14
REMARK    9  A    between atoms: C_12  and  C_15
REMARK   10  A    between atoms: C_15  and  O_16
REMARK   11  A    between atoms: O_16  and  C_17
REMARK   12  A    between atoms: C_20  and  C_21
REMARK                            x       y       z     vdW  Elec       q    Type
REMARK                         _______ _______ _______ _____ _____    ______ ____
ROOT
ATOM      1  C   UNL     1      47.294   6.370  13.505  0.00  0.00    +0.000 A 
ATOM      2  C   UNL     1      47.093   4.995  13.561  0.00  0.00    +0.000 A 
ATOM      3  C   UNL     1      45.966   4.422  12.979  0.00  0.00    +0.000 A 
ATOM      4  C   UNL     1      44.987   5.238  12.418  0.00  0.00    +0.000 A 
ATOM      5  N   UNL     1      45.142   6.583  12.384  0.00  0.00    +0.000 NA
ATOM      6  C   UNL     1      46.271   7.116  12.934  0.00  0.00    +0.000 A 
ENDROOT
BRANCH   1   8
ATOM      7  N   UNL     1      49.502   7.604  13.282  0.00  0.00    +0.000 N 
ATOM      8  C   UNL     1      48.463   7.087  14.089  0.00  0.00    +0.000 C 
ATOM      9  O   UNL     1      48.469   7.215  15.314  0.00  0.00    +0.000 OA
BRANCH   7  11
ATOM     10  C   UNL     1      50.542   9.652  14.259  0.00  0.00    +0.000 C 
ATOM     11  C   UNL     1      50.661   8.158  13.991  0.00  0.00    +0.000 C 
ENDBRANCH   7  11
BRANCH   7  12
ATOM     12  C   UNL     1      49.485   7.580  11.815  0.00  0.00    +0.000 C 
ATOM     13  C   UNL     1      50.792   7.611  11.041  0.00  0.00    +0.000 C 
ENDBRANCH   7  12
ENDBRANCH   1   8
BRANCH   4  14
ATOM     14  C   UNL     1      43.695   4.616  11.877  0.00  0.00    +0.000 C 
ATOM     15  C   UNL     1      43.474   3.240  12.544  0.00  0.00    +0.000 C 
ATOM     16  C   UNL     1      42.495   5.536  12.198  0.00  0.00    +0.000 C 
BRANCH  14  17
ATOM     17  C   UNL     1      43.740   4.374  10.348  0.00  0.00    +0.000 C 
BRANCH  17  18
ATOM     18  O   UNL     1      43.825   2.980  10.024  0.00  0.00    +0.000 OA
BRANCH  18  19
ATOM     19  C   UNL     1      44.818   2.758   9.098  0.00  0.00    +0.000 A 
ATOM     20  C   UNL     1      45.226   3.829   8.319  0.00  0.00    +0.000 A 
ATOM     21  C   UNL     1      46.218   3.613   7.365  0.00  0.00    +0.000 A 
ATOM     22  C   UNL     1      46.751   2.333   7.213  0.00  0.00    +0.000 A 
ATOM     23  C   UNL     1      46.263   1.322   8.026  0.00  0.00    +0.000 A 
ATOM     24  N   UNL     1      45.308   1.505   8.962  0.00  0.00    +0.000 NA
BRANCH  22  25
ATOM     25  C   UNL     1      47.768   2.051   6.255  0.00  0.00    +0.000 C 
ATOM     26  N   UNL     1      48.585   1.826   5.461  0.00  0.00    +0.000 NA
ENDBRANCH  22  25
ENDBRANCH  18  19
ENDBRANCH  17  18
ENDBRANCH  14  17
ENDBRANCH   4  14
TORSDOF 8
ENDMDL
MODEL 2
REMARK VINA RESULT:    -7.330      1.250      2.042
REMARK INTER + INTRA:         -11.739
REMARK INTER:                 -10.843
REMARK INTRA:                  -0.896
REMARK UNBOUND:                -0.981
REMARK  Name = 
REMARK  12 active torsions:
REMARK  status: ('A' for Active; 'I' for Inactive)
REMARK    1  A    between atoms: C_1  and  C_2
REMARK    2  A    between atoms: C_2  and  N_3
REMARK    3  A    between atoms: N_3  and  C_4
REMARK    4  A    between atoms: C_4  and  C_5
REMARK    5  A    between atoms: C_6  and  C_8
REMARK    6  A    between atoms: C_11  and  C_12
REMARK    7  A    between atoms: C_12  and  C_13
REMARK    8  A    between atoms: C_12  and  C_14
REMARK    9  A    between atoms: C_12  and  C_15
REMARK   10  A    between atoms: C_15  and  O_16
REMARK   11  A    between atoms: O_16  and  C_17
REMARK   12  A    between atoms: C_20  and  C_21
REMARK                            x       y       z     vdW  Elec       q    Type
REMARK                         _______ _______ _______ _____ _____    ______ ____
ROOT
ATOM      1  C   UNL     1      47.580   6.507  13.158  0.00  0.00    +0.000 A 
ATOM      2  C   UNL     1      46.545   7.301  12.676  0.00  0.00    +0.000 A 
ATOM      3  C   UNL     1      45.310   6.739  12.366  0.00  0.00    +0.000 A 
ATOM      4  C   UNL     1      45.136   5.360  12.452  0.00  0.00    +0.000 A 
ATOM      5  N   UNL     1      46.141   4.561  12.884  0.00  0.00    +0.000 NA
ATOM      6  C   UNL     1      47.332   5.142  13.210  0.00  0.00    +0.000 A 
ENDROOT
BRANCH   1   8
ATOM      7  N   UNL     1      49.328   7.188  14.869  0.00  0.00    +0.000 N 
ATOM      8  C   UNL     1      48.937   7.002  13.524  0.00  0.00    +0.000 C 
ATOM      9  O   UNL     1      49.705   7.231  12.588  0.00  0.00    +0.000 OA
BRANCH   7  11
ATOM     10  C   UNL     1      51.563   6.985  15.961  0.00  0.00    +0.000 C 
ATOM     11  C   UNL     1      50.636   7.817  15.085  0.00  0.00    +0.000 C 
ENDBRANCH   7  11
BRANCH   7  12
ATOM     12  C   UNL     1      48.493   6.822  16.019  0.00  0.00    +0.000 C 
ATOM     13  C   UNL     1      48.578   5.422  16.602  0.00  0.00    +0.000 C 
ENDBRANCH   7  12
ENDBRANCH   1   8
BRANCH   4  14
ATOM     14  C   UNL     1      43.812   4.729  12.005  0.00  0.00    +0.000 C 
ATOM     15  C   UNL     1      43.697   3.311  12.606  0.00  0.00    +0.000 C 
ATOM     16  C   UNL     1      42.628   5.590  12.500  0.00  0.00    +0.000 C 
BRANCH  14  17
ATOM     17  C   UNL     1      43.709   4.578  10.468  0.00  0.00    +0.000 C 
BRANCH  17  18
ATOM     18  O   UNL     1      43.662   3.204  10.063  0.00  0.00    +0.000 OA
BRANCH  18  19
ATOM     19  C   UNL     1      44.676   2.926   9.176  0.00  0.00    +0.000 A 
ATOM     20  C   UNL     1      45.174   3.972   8.415  0.00  0.00    +0.000 A 
ATOM     21  C   UNL     1      46.189   3.700   7.500  0.00  0.00    +0.000 A 
ATOM     22  C   UNL     1      46.656   2.392   7.369  0.00  0.00    +0.000 A 
ATOM     23  C   UNL     1      46.080   1.410   8.161  0.00  0.00    +0.000 A 
ATOM     24  N   UNL     1      45.101   1.647   9.058  0.00  0.00    +0.000 NA
BRANCH  22  25
ATOM     25  C   UNL     1      47.692   2.053   6.450  0.00  0.00    +0.000 C 
ATOM     26  N   UNL     1      48.546   1.791   5.708  0.00  0.00    +0.000 NA
ENDBRANCH  22  25
ENDBRANCH  18  19
ENDBRANCH  17  18
ENDBRANCH  14  17
ENDBRANCH   4  14
TORSDOF 8
ENDMDL
MODEL 3
REMARK VINA RESULT:    -6.915      1.718      2.088
REMARK INTER + INTRA:         -11.130
REMARK INTER:                 -10.143
REMARK INTRA:                  -0.987
REMARK UNBOUND:                -0.981
REMARK  Name = 
REMARK  12 active torsions:
REMARK  status: ('A' for Active; 'I' for Inactive)
REMARK    1  A    between atoms: C_1  and  C_2
REMARK    2  A    between atoms: C_2  and  N_3
REMARK    3  A    between atoms: N_3  and  C_4
REMARK    4  A    between atoms: C_4  and  C_5
REMARK    5  A    between atoms: C_6  and  C_8
REMARK    6  A    between atoms: C_11  and  C_12
REMARK    7  A    between atoms: C_12  and  C_13
REMARK    8  A    between atoms: C_12  and  C_14
REMARK    9  A    between atoms: C_12  and  C_15
REMARK   10  A    between atoms: C_15  and  O_16
REMARK   11  A    between atoms: O_16  and  C_17
REMARK   12  A    between atoms: C_20  and  C_21
REMARK                            x       y       z     vdW  Elec       q    Type
REMARK                         _______ _______ _______ _____ _____    ______ ____
ROOT
ATOM      1  C   UNL     1      47.031   8.103  12.250  0.00  0.00    +0.000 A 
ATOM      2  C   UNL     1      47.258   6.899  11.592  0.00  0.00    +0.000 A 
ATOM      3  C   UNL     1      46.236   5.964  11.458  0.00  0.00    +0.000 A 
ATOM      4  C   UNL     1      45.004   6.194  12.066  0.00  0.00    +0.000 A 
ATOM      5  N   UNL     1      44.770   7.344  12.744  0.00  0.00    +0.000 NA
ATOM      6  C   UNL     1      45.780   8.256  12.834  0.00  0.00    +0.000 A 
ENDROOT
BRANCH   1   8
ATOM      7  N   UNL     1      49.179   8.988  13.274  0.00  0.00    +0.000 N 
ATOM      8  C   UNL     1      48.049   9.174  12.447  0.00  0.00    +0.000 C 
ATOM      9  O   UNL     1      47.856  10.229  11.841  0.00  0.00    +0.000 OA
BRANCH   7  11
ATOM     10  C   UNL     1      51.482   9.820  13.761  0.00  0.00    +0.000 C 
ATOM     11  C   UNL     1      50.024  10.167  13.496  0.00  0.00    +0.000 C 
ENDBRANCH   7  11
BRANCH   7  12
ATOM     12  C   UNL     1      49.514   7.715  13.925  0.00  0.00    +0.000 C 
ATOM     13  C   UNL     1      49.010   7.425  15.327  0.00  0.00    +0.000 C 
ENDBRANCH   7  12
ENDBRANCH   1   8
BRANCH   4  14
ATOM     14  C   UNL     1      43.915   5.117  12.013  0.00  0.00    +0.000 C 
ATOM     15  C   UNL     1      43.635   4.608  13.444  0.00  0.00    +0.000 C 
ATOM     16  C   UNL     1      42.618   5.711  11.420  0.00  0.00    +0.000 C 
BRANCH  14  17
ATOM     17  C   UNL     1      44.330   3.886  11.169  0.00  0.00    +0.000 C 
BRANCH  17  18
ATOM     18  O   UNL     1      43.869   3.980   9.815  0.00  0.00    +0.000 OA
BRANCH  18  19
ATOM     19  C   UNL     1      44.818   3.492   8.947  0.00  0.00    +0.000 A 
ATOM     20  C   UNL     1      45.155   2.152   9.045  0.00  0.00    +0.000 A 
ATOM     21  C   UNL     1      46.128   1.649   8.183  0.00  0.00    +0.000 A 
ATOM     22  C   UNL     1      46.737   2.508   7.268  0.00  0.00    +0.000 A 
ATOM     23  C   UNL     1      46.345   3.838   7.259  0.00  0.00    +0.000 A 
ATOM     24  N   UNL     1      45.402   4.349   8.079  0.00  0.00    +0.000 NA
BRANCH  22  25
ATOM     25  C   UNL     1      47.737   2.052   6.361  0.00  0.00    +0.000 C 
ATOM     26  N   UNL     1      48.542   1.666   5.618  0.00  0.00    +0.000 NA
ENDBRANCH  22  25
ENDBRANCH  18  19
ENDBRANCH  17  18
ENDBRANCH  14  17
ENDBRANCH   4  14
TORSDOF 8
ENDMDL
MODEL 4
REMARK VINA RESULT:    -6.183      2.258      2.936
REMARK INTER + INTRA:         -10.056
REMARK INTER:                  -9.136
REMARK INTRA:                  -0.920
REMARK UNBOUND:                -0.981
REMARK  Name = 
REMARK  12 active torsions:
REMARK  status: ('A' for Active; 'I' for Inactive)
REMARK    1  A    between atoms: C_1  and  C_2
REMARK    2  A    between atoms: C_2  and  N_3
REMARK    3  A    between atoms: N_3  and  C_4
REMARK    4  A    between atoms: C_4  and  C_5
REMARK    5  A    between atoms: C_6  and  C_8
REMARK    6  A    between atoms: C_11  and  C_12
REMARK    7  A    between atoms: C_12  and  C_13
REMARK    8  A    between atoms: C_12  and  C_14
REMARK    9  A    between atoms: C_12  and  C_15
REMARK   10  A    between atoms: C_15  and  O_16
REMARK   11  A    between atoms: O_16  and  C_17
REMARK   12  A    between atoms: C_20  and  C_21
REMARK                            x       y       z     vdW  Elec       q    Type
REMARK                         _______ _______ _______ _____ _____    ______ ____
ROOT
ATOM      1  C   UNL     1      48.210   6.105  15.275  0.00  0.00    +0.000 A 
ATOM      2  C   UNL     1      48.045   6.925  14.165  0.00  0.00    +0.000 A 
ATOM      3  C   UNL     1      47.002   6.703  13.270  0.00  0.00    +0.000 A 
ATOM      4  C   UNL     1      46.174   5.596  13.436  0.00  0.00    +0.000 A 
ATOM      5  N   UNL     1      46.337   4.760  14.490  0.00  0.00    +0.000 NA
ATOM      6  C   UNL     1      47.349   5.020  15.368  0.00  0.00    +0.000 A 
ENDROOT
BRANCH   1   8
ATOM      7  N   UNL     1      49.249   7.271  17.277  0.00  0.00    +0.000 N 
ATOM      8  C   UNL     1      49.285   6.254  16.296  0.00  0.00    +0.000 C 
ATOM      9  O   UNL     1      50.204   5.436  16.245  0.00  0.00    +0.000 OA
BRANCH   7  11
ATOM     10  C   UNL     1      50.179   7.018  19.579  0.00  0.00    +0.000 C 
ATOM     11  C   UNL     1      50.438   7.397  18.128  0.00  0.00    +0.000 C 
ENDBRANCH   7  11
BRANCH   7  12
ATOM     12  C   UNL     1      48.123   8.196  17.452  0.00  0.00    +0.000 C 
ATOM     13  C   UNL     1      48.233   9.626  16.954  0.00  0.00    +0.000 C 
ENDBRANCH   7  12
ENDBRANCH   1   8
BRANCH   4  14
ATOM     14  C   UNL     1      45.096   5.286  12.391  0.00  0.00    +0.000 C 
ATOM     15  C   UNL     1      43.723   5.183  13.091  0.00  0.00    +0.000 C 
ATOM     16  C   UNL     1      45.048   6.416  11.338  0.00  0.00    +0.000 C 
BRANCH  14  17
ATOM     17  C   UNL     1      45.335   3.940  11.664  0.00  0.00    +0.000 C 
BRANCH  17  18
ATOM     18  O   UNL     1      44.531   3.813  10.484  0.00  0.00    +0.000 OA
BRANCH  18  19
ATOM     19  C   UNL     1      45.298   3.402   9.418  0.00  0.00    +0.000 A 
ATOM     20  C   UNL     1      45.808   4.376   8.576  0.00  0.00    +0.000 A 
ATOM     21  C   UNL     1      46.571   3.972   7.482  0.00  0.00    +0.000 A 
ATOM     22  C   UNL     1      46.781   2.610   7.264  0.00  0.00    +0.000 A 
ATOM     23  C   UNL     1      46.212   1.710   8.153  0.00  0.00    +0.000 A 
ATOM     24  N   UNL     1      45.474   2.075   9.222  0.00  0.00    +0.000 NA
BRANCH  22  25
ATOM     25  C   UNL     1      47.553   2.136   6.163  0.00  0.00    +0.000 C 
ATOM     26  N   UNL     1      48.170   1.756   5.257  0.00  0.00    +0.000 NA
ENDBRANCH  22  25
ENDBRANCH  18  19
ENDBRANCH  17  18
ENDBRANCH  14  17
ENDBRANCH   4  14
TORSDOF 8
ENDMDL
MODEL 5
REMARK VINA RESULT:    -5.619      2.273      3.231
REMARK INTER + INTRA:          -9.228
REMARK INTER:                  -8.336
REMARK INTRA:                  -0.892
REMARK UNBOUND:                -0.981
REMARK  Name = 
REMARK  12 active torsions:
REMARK  status: ('A' for Active; 'I' for Inactive)
REMARK    1  A    between atoms: C_1  and  C_2
REMARK    2  A    between atoms: C_2  and  N_3
REMARK    3  A    between atoms: N_3  and  C_4
REMARK    4  A    between atoms: C_4  and  C_5
REMARK    5  A    between atoms: C_6  and  C_8
REMARK    6  A    between atoms: C_11  and  C_12
REMARK    7  A    between atoms: C_12  and  C_13
REMARK    8  A    between atoms: C_12  and  C_14
REMARK    9  A    between atoms: C_12  and  C_15
REMARK   10  A    between atoms: C_15  and  O_16
REMARK   11  A    between atoms: O_16  and  C_17
REMARK   12  A    between atoms: C_20  and  C_21
REMARK                            x       y       z     vdW  Elec       q    Type
REMARK                         _______ _______ _______ _____ _____    ______ ____
ROOT
ATOM      1  C   UNL     1      48.505   7.056  14.579  0.00  0.00    +0.000 A 
ATOM      2  C   UNL     1      47.773   8.196  14.267  0.00  0.00    +0.000 A 
ATOM      3  C   UNL     1      46.667   8.117  13.426  0.00  0.00    +0.000 A 
ATOM      4  C   UNL     1      46.346   6.907  12.817  0.00  0.00    +0.000 A 
ATOM      5  N   UNL     1      47.067   5.789  13.075  0.00  0.00    +0.000 NA
ATOM      6  C   UNL     1      48.127   5.888  13.928  0.00  0.00    +0.000 A 
ENDROOT
BRANCH   1   8
ATOM      7  N   UNL     1      49.626   6.567  16.803  0.00  0.00    +0.000 N 
ATOM      8  C   UNL     1      49.700   7.024  15.469  0.00  0.00    +0.000 C 
ATOM      9  O   UNL     1      50.760   7.410  14.974  0.00  0.00    +0.000 OA
BRANCH   7  11
ATOM     10  C   UNL     1      51.686   5.460  17.676  0.00  0.00    +0.000 C 
ATOM     11  C   UNL     1      50.839   6.723  17.613  0.00  0.00    +0.000 C 
ENDBRANCH   7  11
BRANCH   7  12
ATOM     12  C   UNL     1      48.416   5.990  17.403  0.00  0.00    +0.000 C 
ATOM     13  C   UNL     1      48.172   4.493  17.327  0.00  0.00    +0.000 C 
ENDBRANCH   7  12
ENDBRANCH   1   8
BRANCH   4  14
ATOM     14  C   UNL     1      45.197   6.844  11.804  0.00  0.00    +0.000 C 
ATOM     15  C   UNL     1      44.033   6.026  12.406  0.00  0.00    +0.000 C 
ATOM     16  C   UNL     1      44.704   8.272  11.481  0.00  0.00    +0.000 C 
BRANCH  14  17
ATOM     17  C   UNL     1      45.602   6.147  10.482  0.00  0.00    +0.000 C 
BRANCH  17  18
ATOM     18  O   UNL     1      44.546   5.333   9.956  0.00  0.00    +0.000 OA
BRANCH  18  19
ATOM     19  C   UNL     1      45.054   4.184   9.394  0.00  0.00    +0.000 A 
ATOM     20  C   UNL     1      45.883   4.316   8.293  0.00  0.00    +0.000 A 
ATOM     21  C   UNL     1      46.390   3.159   7.704  0.00  0.00    +0.000 A 
ATOM     22  C   UNL     1      46.035   1.915   8.228  0.00  0.00    +0.000 A 
ATOM     23  C   UNL     1      45.183   1.887   9.322  0.00  0.00    +0.000 A 
ATOM     24  N   UNL     1      44.683   2.991   9.914  0.00  0.00    +0.000 NA
BRANCH  22  25
ATOM     25  C   UNL     1      46.522   0.698   7.670  0.00  0.00    +0.000 C 
ATOM     26  N   UNL     1      46.919  -0.286   7.199  0.00  0.00    +0.000 NA
ENDBRANCH  22  25
ENDBRANCH  18  19
ENDBRANCH  17  18
ENDBRANCH  14  17
ENDBRANCH   4  14
TORSDOF 8
ENDMDL
MODEL 6
REMARK VINA RESULT:    -5.421      4.228      8.784
REMARK INTER + INTRA:          -8.938
REMARK INTER:                  -8.087
REMARK INTRA:                  -0.851
REMARK UNBOUND:                -0.981
REMARK  Name = 
REMARK  12 active torsions:
REMARK  status: ('A' for Active; 'I' for Inactive)
REMARK    1  A    between atoms: C_1  and  C_2
REMARK    2  A    between atoms: C_2  and  N_3
REMARK    3  A    between atoms: N_3  and  C_4
REMARK    4  A    between atoms: C_4  and  C_5
REMARK    5  A    between atoms: C_6  and  C_8
REMARK    6  A    between atoms: C_11  and  C_12
REMARK    7  A    between atoms: C_12  and  C_13
REMARK    8  A    between atoms: C_12  and  C_14
REMARK    9  A    between atoms: C_12  and  C_15
REMARK   10  A    between atoms: C_15  and  O_16
REMARK   11  A    between atoms: O_16  and  C_17
REMARK   12  A    between atoms: C_20  and  C_21
REMARK                            x       y       z     vdW  Elec       q    Type
REMARK                         _______ _______ _______ _____ _____    ______ ____
ROOT
ATOM      1  C   UNL     1      46.854   4.916  13.763  0.00  0.00    +0.000 A 
ATOM      2  C   UNL     1      47.444   6.014  13.146  0.00  0.00    +0.000 A 
ATOM      3  C   UNL     1      48.405   6.767  13.813  0.00  0.00    +0.000 A 
ATOM      4  C   UNL     1      48.711   6.478  15.141  0.00  0.00    +0.000 A 
ATOM      5  N   UNL     1      48.123   5.436  15.776  0.00  0.00    +0.000 NA
ATOM      6  C   UNL     1      47.207   4.695  15.088  0.00  0.00    +0.000 A 
ENDROOT
BRANCH   1   8
ATOM      7  N   UNL     1      44.560   4.537  12.743  0.00  0.00    +0.000 N 
ATOM      8  C   UNL     1      45.821   4.040  13.142  0.00  0.00    +0.000 C 
ATOM      9  O   UNL     1      46.131   2.858  12.985  0.00  0.00    +0.000 OA
BRANCH   7  11
ATOM     10  C   UNL     1      43.688   3.251  10.790  0.00  0.00    +0.000 C 
ATOM     11  C   UNL     1      43.585   3.543  12.280  0.00  0.00    +0.000 C 
ENDBRANCH   7  11
BRANCH   7  12
ATOM     12  C   UNL     1      44.186   5.955  12.802  0.00  0.00    +0.000 C 
ATOM     13  C   UNL     1      44.350   6.834  11.573  0.00  0.00    +0.000 C 
ENDBRANCH   7  12
ENDBRANCH   1   8
BRANCH   4  14
ATOM     14  C   UNL     1      49.687   7.375  15.911  0.00  0.00    +0.000 C 
ATOM     15  C   UNL     1      50.870   7.747  14.991  0.00  0.00    +0.000 C 
ATOM     16  C   UNL     1      48.967   8.666  16.362  0.00  0.00    +0.000 C 
BRANCH  14  17
ATOM     17  C   UNL     1      50.285   6.678  17.158  0.00  0.00    +0.000 C 
BRANCH  17  18
ATOM     18  O   UNL     1      51.695   6.454  17.026  0.00  0.00    +0.000 OA
BRANCH  18  19
ATOM     19  C   UNL     1      52.005   5.146  17.317  0.00  0.00    +0.000 A 
ATOM     20  C   UNL     1      53.332   4.839  17.574  0.00  0.00    +0.000 A 
ATOM     21  C   UNL     1      53.662   3.514  17.853  0.00  0.00    +0.000 A 
ATOM     22  C   UNL     1      52.658   2.545  17.846  0.00  0.00    +0.000 A 
ATOM     23  C   UNL     1      51.363   2.948  17.558  0.00  0.00    +0.000 A 
ATOM     24  N   UNL     1      51.015   4.224  17.291  0.00  0.00    +0.000 NA
BRANCH  22  25
ATOM     25  C   UNL     1      52.935   1.175  18.124  0.00  0.00    +0.000 C 
ATOM     26  N   UNL     1      53.151   0.054  18.337  0.00  0.00    +0.000 NA
ENDBRANCH  22  25
ENDBRANCH  18  19
ENDBRANCH  17  18
ENDBRANCH  14  17
ENDBRANCH   4  14
TORSDOF 8
ENDMDL
MODEL 7
REMARK VINA RESULT:    -5.234      3.482      6.141
REMARK INTER + INTRA:          -8.664
REMARK INTER:                  -7.560
REMARK INTRA:                  -1.104
REMARK UNBOUND:                -0.981
REMARK  Name = 
REMARK  12 active torsions:
REMARK  status: ('A' for Active; 'I' for Inactive)
REMARK    1  A    between atoms: C_1  and  C_2
REMARK    2  A    between atoms: C_2  and  N_3
REMARK    3  A    between atoms: N_3  and  C_4
REMARK    4  A    between atoms: C_4  and  C_5
REMARK    5  A    between atoms: C_6  and  C_8
REMARK    6  A    between atoms: C_11  and  C_12
REMARK    7  A    between atoms: C_12  and  C_13
REMARK    8  A    between atoms: C_12  and  C_14
REMARK    9  A    between atoms: C_12  and  C_15
REMARK   10  A    between atoms: C_15  and  O_16
REMARK   11  A    between atoms: O_16  and  C_17
REMARK   12  A    between atoms: C_20  and  C_21
REMARK                            x       y       z     vdW  Elec       q    Type
REMARK                         _______ _______ _______ _____ _____    ______ ____
ROOT
ATOM      1  C   UNL     1      49.265   7.381  16.686  0.00  0.00    +0.000 A 
ATOM      2  C   UNL     1      48.682   8.616  16.420  0.00  0.00    +0.000 A 
ATOM      3  C   UNL     1      48.337   8.968  15.118  0.00  0.00    +0.000 A 
ATOM      4  C   UNL     1      48.662   8.119  14.063  0.00  0.00    +0.000 A 
ATOM      5  N   UNL     1      49.263   6.927  14.293  0.00  0.00    +0.000 NA
ATOM      6  C   UNL     1      49.562   6.593  15.582  0.00  0.00    +0.000 A 
ENDROOT
BRANCH   1   8
ATOM      7  N   UNL     1      48.792   6.162  18.861  0.00  0.00    +0.000 N 
ATOM      8  C   UNL     1      49.670   6.901  18.037  0.00  0.00    +0.000 C 
ATOM      9  O   UNL     1      50.817   7.175  18.394  0.00  0.00    +0.000 OA
BRANCH   7  11
ATOM     10  C   UNL     1      48.518   4.726  20.885  0.00  0.00    +0.000 C 
ATOM     11  C   UNL     1      49.263   5.876  20.222  0.00  0.00    +0.000 C 
ENDBRANCH   7  11
BRANCH   7  12
ATOM     12  C   UNL     1      47.460   5.711  18.439  0.00  0.00    +0.000 C 
ATOM     13  C   UNL     1      47.317   4.454  17.598  0.00  0.00    +0.000 C 
ENDBRANCH   7  12
ENDBRANCH   1   8
BRANCH   4  14
ATOM     14  C   UNL     1      48.383   8.555  12.620  0.00  0.00    +0.000 C 
ATOM     15  C   UNL     1      48.487  10.094  12.526  0.00  0.00    +0.000 C 
ATOM     16  C   UNL     1      49.419   7.915  11.670  0.00  0.00    +0.000 C 
BRANCH  14  17
ATOM     17  C   UNL     1      46.962   8.169  12.141  0.00  0.00    +0.000 C 
BRANCH  17  18
ATOM     18  O   UNL     1      46.129   7.731  13.222  0.00  0.00    +0.000 OA
BRANCH  18  19
ATOM     19  C   UNL     1      45.485   6.560  12.893  0.00  0.00    +0.000 A 
ATOM     20  C   UNL     1      46.026   5.373  13.360  0.00  0.00    +0.000 A 
ATOM     21  C   UNL     1      45.393   4.179  13.019  0.00  0.00    +0.000 A 
ATOM     22  C   UNL     1      44.256   4.216  12.211  0.00  0.00    +0.000 A 
ATOM     23  C   UNL     1      43.803   5.453  11.778  0.00  0.00    +0.000 A 
ATOM     24  N   UNL     1      44.392   6.624  12.099  0.00  0.00    +0.000 NA
BRANCH  22  25
ATOM     25  C   UNL     1      43.567   3.028  11.830  0.00  0.00    +0.000 C 
ATOM     26  N   UNL     1      43.018   2.057  11.510  0.00  0.00    +0.000 NA
ENDBRANCH  22  25
ENDBRANCH  18  19
ENDBRANCH  17  18
ENDBRANCH  14  17
ENDBRANCH   4  14
TORSDOF 8
ENDMDL
MODEL 8
REMARK VINA RESULT:    -4.997      5.049      8.748
REMARK INTER + INTRA:          -8.315
REMARK INTER:                  -8.147
REMARK INTRA:                  -0.168
REMARK UNBOUND:                -0.981
REMARK  Name = 
REMARK  12 active torsions:
REMARK  status: ('A' for Active; 'I' for Inactive)
REMARK    1  A    between atoms: C_1  and  C_2
REMARK    2  A    between atoms: C_2  and  N_3
REMARK    3  A    between atoms: N_3  and  C_4
REMARK    4  A    between atoms: C_4  and  C_5
REMARK    5  A    between atoms: C_6  and  C_8
REMARK    6  A    between atoms: C_11  and  C_12
REMARK    7  A    between atoms: C_12  and  C_13
REMARK    8  A    between atoms: C_12  and  C_14
REMARK    9  A    between atoms: C_12  and  C_15
REMARK   10  A    between atoms: C_15  and  O_16
REMARK   11  A    between atoms: O_16  and  C_17
REMARK   12  A    between atoms: C_20  and  C_21
REMARK                            x       y       z     vdW  Elec       q    Type
REMARK                         _______ _______ _______ _____ _____    ______ ____
ROOT
ATOM      1  C   UNL     1      46.701   5.501  13.024  0.00  0.00    +0.000 A 
ATOM      2  C   UNL     1      47.503   6.493  13.577  0.00  0.00    +0.000 A 
ATOM      3  C   UNL     1      48.085   6.316  14.828  0.00  0.00    +0.000 A 
ATOM      4  C   UNL     1      47.789   5.177  15.574  0.00  0.00    +0.000 A 
ATOM      5  N   UNL     1      46.981   4.213  15.073  0.00  0.00    +0.000 NA
ATOM      6  C   UNL     1      46.448   4.398  13.831  0.00  0.00    +0.000 A 
ENDROOT
BRANCH   1   8
ATOM      7  N   UNL     1      44.790   4.960  11.443  0.00  0.00    +0.000 N 
ATOM      8  C   UNL     1      46.033   5.583  11.695  0.00  0.00    +0.000 C 
ATOM      9  O   UNL     1      46.620   6.233  10.828  0.00  0.00    +0.000 OA
BRANCH   7  11
ATOM     10  C   UNL     1      44.587   3.707   9.294  0.00  0.00    +0.000 C 
ATOM     11  C   UNL     1      44.314   4.996  10.055  0.00  0.00    +0.000 C 
ENDBRANCH   7  11
BRANCH   7  12
ATOM     12  C   UNL     1      43.997   4.274  12.470  0.00  0.00    +0.000 C 
ATOM     13  C   UNL     1      42.805   4.973  13.100  0.00  0.00    +0.000 C 
ENDBRANCH   7  12
ENDBRANCH   1   8
BRANCH   4  14
ATOM     14  C   UNL     1      48.341   5.033  16.997  0.00  0.00    +0.000 C 
ATOM     15  C   UNL     1      49.106   6.320  17.378  0.00  0.00    +0.000 C 
ATOM     16  C   UNL     1      47.177   4.819  17.990  0.00  0.00    +0.000 C 
BRANCH  14  17
ATOM     17  C   UNL     1      49.337   3.856  17.137  0.00  0.00    +0.000 C 
BRANCH  17  18
ATOM     18  O   UNL     1      50.692   4.309  17.259  0.00  0.00    +0.000 OA
BRANCH  18  19
ATOM     19  C   UNL     1      51.537   3.247  17.486  0.00  0.00    +0.000 A 
ATOM     20  C   UNL     1      51.012   1.969  17.384  0.00  0.00    +0.000 A 
ATOM     21  C   UNL     1      51.853   0.886  17.629  0.00  0.00    +0.000 A 
ATOM     22  C   UNL     1      53.182   1.121  17.984  0.00  0.00    +0.000 A 
ATOM     23  C   UNL     1      53.609   2.437  18.080  0.00  0.00    +0.000 A 
ATOM     24  N   UNL     1      52.817   3.503  17.842  0.00  0.00    +0.000 NA
BRANCH  22  25
ATOM     25  C   UNL     1      54.090   0.054  18.246  0.00  0.00    +0.000 C 
ATOM     26  N   UNL     1      54.832  -0.816  18.442  0.00  0.00    +0.000 NA
ENDBRANCH  22  25
ENDBRANCH  18  19
ENDBRANCH  17  18
ENDBRANCH  14  17
ENDBRANCH   4  14
TORSDOF 8
ENDMDL
