MODEL 1
REMARK VINA RESULT:    -8.411      0.000      0.000
REMARK INTER + INTRA:         -12.334
REMARK INTER:                 -11.362
REMARK INTRA:                  -0.972
REMARK UNBOUND:                -0.972
REMARK  Name = 
REMARK  7 active torsions:
REMARK  status: ('A' for Active; 'I' for Inactive)
REMARK    1  A    between atoms: C_1  and  C_2
REMARK    2  A    between atoms: C_5  and  O_6
REMARK    3  A    between atoms: O_6  and  C_7
REMARK    4  A    between atoms: C_9  and  C_10
REMARK    5  A    between atoms: C_10  and  C_11
REMARK    6  A    between atoms: C_11  and  N_12
REMARK    7  A    between atoms: C_16  and  C_17
REMARK                            x       y       z     vdW  Elec       q    Type
REMARK                         _______ _______ _______ _____ _____    ______ ____
ROOT
ATOM      1  C   UNL     1      43.570   5.248  12.188  0.00  0.00    +0.000 C 
ENDROOT
BRANCH   1   4
ATOM      2  C   UNL     1      47.022   5.098  13.811  0.00  0.00    +0.000 A 
ATOM      3  C   UNL     1      45.683   4.844  13.488  0.00  0.00    +0.000 A 
ATOM      4  C   UNL     1      44.993   5.617  12.541  0.00  0.00    +0.000 A 
ATOM      5  C   UNL     1      45.664   6.680  11.927  0.00  0.00    +0.000 A 
ATOM      6  C   UNL     1      47.004   6.928  12.238  0.00  0.00    +0.000 A 
ATOM      7  F   UNL     1      47.632   7.943  11.629  0.00  0.00    +0.000 F 
ATOM      8  C   UNL     1      47.686   6.135  13.159  0.00  0.00    +0.000 A 
ATOM      9  F   UNL     1      48.977   6.387  13.421  0.00  0.00    +0.000 F 
BRANCH   2  10
ATOM     10  O   UNL     1      47.723   4.349  14.734  0.00  0.00    +0.000 OA
BRANCH  10  15
ATOM     11  C   UNL     1      49.278   6.079  16.718  0.00  0.00    +0.000 C 
ATOM     12  C   UNL     1      48.148   5.174  17.147  0.00  0.00    +0.000 C 
ATOM     13  O   UNL     1      48.650   3.920  17.688  0.00  0.00    +0.000 OA
ATOM     14  C   UNL     1      47.586   3.207  17.018  0.00  0.00    +0.000 C 
ATOM     15  C   UNL     1      47.277   4.418  16.115  0.00  0.00    +0.000 C 
ENDBRANCH  10  15
ENDBRANCH   2  10
ENDBRANCH   1   4
BRANCH   1  16
ATOM     16  C   UNL     1      43.390   4.811  10.734  0.00  0.00    +0.000 C 
BRANCH  16  17
ATOM     17  N   UNL     1      43.758   3.397  10.586  0.00  0.00    +0.000 N 
ATOM     18  C   UNL     1      44.660   3.168   9.530  0.00  0.00    +0.000 A 
ATOM     19  C   UNL     1      45.115   1.871   9.262  0.00  0.00    +0.000 A 
ATOM     20  N   UNL     1      45.999   1.560   8.272  0.00  0.00    +0.000 NA
ATOM     21  C   UNL     1      46.429   2.632   7.553  0.00  0.00    +0.000 A 
ATOM     22  C   UNL     1      45.997   3.920   7.810  0.00  0.00    +0.000 A 
ATOM     23  N   UNL     1      45.113   4.207   8.798  0.00  0.00    +0.000 NA
ATOM     24  H   UNL     1      42.947   2.795  10.459  0.00  0.00    +0.000 HD
BRANCH  21  25
ATOM     25  C   UNL     1      47.406   2.398   6.457  0.00  0.00    +0.000 C 
ATOM     26  N   UNL     1      47.293   3.219   5.369  0.00  0.00    +0.000 N 
ATOM     27  O   UNL     1      48.261   1.524   6.519  0.00  0.00    +0.000 OA
ATOM     28  H   UNL     1      46.567   3.926   5.337  0.00  0.00    +0.000 HD
ATOM     29  H   UNL     1      47.923   3.098   4.589  0.00  0.00    +0.000 HD
ENDBRANCH  21  25
ENDBRANCH  16  17
ENDBRANCH   1  16
TORSDOF 6
ENDMDL
MODEL 2
REMARK VINA RESULT:    -7.798      3.554      7.850
REMARK INTER + INTRA:         -11.505
REMARK INTER:                 -10.745
REMARK INTRA:                  -0.760
REMARK UNBOUND:                -0.972
REMARK  Name = 
REMARK  7 active torsions:
REMARK  status: ('A' for Active; 'I' for Inactive)
REMARK    1  A    between atoms: C_1  and  C_2
REMARK    2  A    between atoms: C_5  and  O_6
REMARK    3  A    between atoms: O_6  and  C_7
REMARK    4  A    between atoms: C_9  and  C_10
REMARK    5  A    between atoms: C_10  and  C_11
REMARK    6  A    between atoms: C_11  and  N_12
REMARK    7  A    between atoms: C_16  and  C_17
REMARK                            x       y       z     vdW  Elec       q    Type
REMARK                         _______ _______ _______ _____ _____    ______ ____
ROOT
ATOM      1  C   UNL     1      45.751   6.590  11.115  0.00  0.00    +0.000 C 
ENDROOT
BRANCH   1   4
ATOM      2  C   UNL     1      45.189   3.521   8.917  0.00  0.00    +0.000 A 
ATOM      3  C   UNL     1      45.620   4.766   9.391  0.00  0.00    +0.000 A 
ATOM      4  C   UNL     1      45.196   5.269  10.631  0.00  0.00    +0.000 A 
ATOM      5  C   UNL     1      44.304   4.509  11.394  0.00  0.00    +0.000 A 
ATOM      6  C   UNL     1      43.884   3.259  10.929  0.00  0.00    +0.000 A 
ATOM      7  F   UNL     1      43.039   2.540  11.682  0.00  0.00    +0.000 F 
ATOM      8  C   UNL     1      44.333   2.759   9.709  0.00  0.00    +0.000 A 
ATOM      9  F   UNL     1      43.926   1.547   9.300  0.00  0.00    +0.000 F 
BRANCH   2  10
ATOM     10  O   UNL     1      45.595   3.002   7.704  0.00  0.00    +0.000 OA
BRANCH  10  15
ATOM     11  C   UNL     1      47.163   2.789   5.088  0.00  0.00    +0.000 C 
ATOM     12  C   UNL     1      47.562   2.035   6.334  0.00  0.00    +0.000 C 
ATOM     13  O   UNL     1      47.100   0.656   6.289  0.00  0.00    +0.000 OA
ATOM     14  C   UNL     1      46.761   0.727   7.693  0.00  0.00    +0.000 C 
ATOM     15  C   UNL     1      46.847   2.267   7.686  0.00  0.00    +0.000 C 
ENDBRANCH  10  15
ENDBRANCH   2  10
ENDBRANCH   1   4
BRANCH   1  16
ATOM     16  C   UNL     1      45.399   6.910  12.569  0.00  0.00    +0.000 C 
BRANCH  16  17
ATOM     17  N   UNL     1      46.625   7.161  13.338  0.00  0.00    +0.000 N 
ATOM     18  C   UNL     1      46.998   6.075  14.152  0.00  0.00    +0.000 A 
ATOM     19  C   UNL     1      48.150   6.153  14.944  0.00  0.00    +0.000 A 
ATOM     20  N   UNL     1      48.594   5.147  15.749  0.00  0.00    +0.000 NA
ATOM     21  C   UNL     1      47.824   4.026  15.715  0.00  0.00    +0.000 A 
ATOM     22  C   UNL     1      46.689   3.928  14.932  0.00  0.00    +0.000 A 
ATOM     23  N   UNL     1      46.261   4.944  14.141  0.00  0.00    +0.000 NA
ATOM     24  H   UNL     1      46.557   7.995  13.917  0.00  0.00    +0.000 HD
BRANCH  21  25
ATOM     25  C   UNL     1      48.232   2.865  16.550  0.00  0.00    +0.000 C 
ATOM     26  N   UNL     1      47.660   2.789  17.790  0.00  0.00    +0.000 N 
ATOM     27  O   UNL     1      49.033   2.027  16.157  0.00  0.00    +0.000 OA
ATOM     28  H   UNL     1      47.011   3.505  18.097  0.00  0.00    +0.000 HD
ATOM     29  H   UNL     1      47.910   2.029  18.405  0.00  0.00    +0.000 HD
ENDBRANCH  21  25
ENDBRANCH  16  17
ENDBRANCH   1  16
TORSDOF 6
ENDMDL
MODEL 3
REMARK VINA RESULT:    -7.333      3.778      8.200
REMARK INTER + INTRA:         -10.877
REMARK INTER:                 -10.574
REMARK INTRA:                  -0.303
REMARK UNBOUND:                -0.972
REMARK  Name = 
REMARK  7 active torsions:
REMARK  status: ('A' for Active; 'I' for Inactive)
REMARK    1  A    between atoms: C_1  and  C_2
REMARK    2  A    between atoms: C_5  and  O_6
REMARK    3  A    between atoms: O_6  and  C_7
REMARK    4  A    between atoms: C_9  and  C_10
REMARK    5  A    between atoms: C_10  and  C_11
REMARK    6  A    between atoms: C_11  and  N_12
REMARK    7  A    between atoms: C_16  and  C_17
REMARK                            x       y       z     vdW  Elec       q    Type
REMARK                         _______ _______ _______ _____ _____    ______ ____
ROOT
ATOM      1  C   UNL     1      45.258   6.570  11.129  0.00  0.00    +0.000 C 
ENDROOT
BRANCH   1   4
ATOM      2  C   UNL     1      45.069   3.444   8.946  0.00  0.00    +0.000 A 
ATOM      3  C   UNL     1      45.354   4.732   9.417  0.00  0.00    +0.000 A 
ATOM      4  C   UNL     1      44.858   5.194  10.647  0.00  0.00    +0.000 A 
ATOM      5  C   UNL     1      44.042   4.345  11.401  0.00  0.00    +0.000 A 
ATOM      6  C   UNL     1      43.768   3.055  10.940  0.00  0.00    +0.000 A 
ATOM      7  F   UNL     1      42.993   2.252  11.685  0.00  0.00    +0.000 F 
ATOM      8  C   UNL     1      44.289   2.599   9.731  0.00  0.00    +0.000 A 
ATOM      9  F   UNL     1      44.023   1.348   9.325  0.00  0.00    +0.000 F 
BRANCH   2  10
ATOM     10  O   UNL     1      45.549   2.966   7.744  0.00  0.00    +0.000 OA
BRANCH  10  15
ATOM     11  C   UNL     1      47.257   2.860   5.211  0.00  0.00    +0.000 C 
ATOM     12  C   UNL     1      47.608   2.081   6.456  0.00  0.00    +0.000 C 
ATOM     13  O   UNL     1      47.181   0.694   6.350  0.00  0.00    +0.000 OA
ATOM     14  C   UNL     1      46.768   0.718   7.735  0.00  0.00    +0.000 C 
ATOM     15  C   UNL     1      46.817   2.259   7.774  0.00  0.00    +0.000 C 
ENDBRANCH  10  15
ENDBRANCH   2  10
ENDBRANCH   1   4
BRANCH   1  16
ATOM     16  C   UNL     1      46.477   6.568  12.054  0.00  0.00    +0.000 C 
BRANCH  16  17
ATOM     17  N   UNL     1      46.408   5.423  12.972  0.00  0.00    +0.000 N 
ATOM     18  C   UNL     1      47.261   5.555  14.084  0.00  0.00    +0.000 A 
ATOM     19  C   UNL     1      47.307   4.550  15.058  0.00  0.00    +0.000 A 
ATOM     20  N   UNL     1      48.089   4.601  16.172  0.00  0.00    +0.000 NA
ATOM     21  C   UNL     1      48.831   5.737  16.280  0.00  0.00    +0.000 A 
ATOM     22  C   UNL     1      48.791   6.743  15.333  0.00  0.00    +0.000 A 
ATOM     23  N   UNL     1      48.008   6.670  14.228  0.00  0.00    +0.000 NA
ATOM     24  H   UNL     1      46.610   4.540  12.507  0.00  0.00    +0.000 HD
BRANCH  21  25
ATOM     25  C   UNL     1      49.709   5.893  17.470  0.00  0.00    +0.000 C 
ATOM     26  N   UNL     1      50.744   5.004  17.572  0.00  0.00    +0.000 N 
ATOM     27  O   UNL     1      49.521   6.763  18.311  0.00  0.00    +0.000 OA
ATOM     28  H   UNL     1      50.868   4.284  16.869  0.00  0.00    +0.000 HD
ATOM     29  H   UNL     1      51.365   5.056  18.366  0.00  0.00    +0.000 HD
ENDBRANCH  21  25
ENDBRANCH  16  17
ENDBRANCH   1  16
TORSDOF 6
ENDMDL
MODEL 4
REMARK VINA RESULT:    -7.138      3.761      7.786
REMARK INTER + INTRA:         -10.614
REMARK INTER:                  -9.772
REMARK INTRA:                  -0.842
REMARK UNBOUND:                -0.972
REMARK  Name = 
REMARK  7 active torsions:
REMARK  status: ('A' for Active; 'I' for Inactive)
REMARK    1  A    between atoms: C_1  and  C_2
REMARK    2  A    between atoms: C_5  and  O_6
REMARK    3  A    between atoms: O_6  and  C_7
REMARK    4  A    between atoms: C_9  and  C_10
REMARK    5  A    between atoms: C_10  and  C_11
REMARK    6  A    between atoms: C_11  and  N_12
REMARK    7  A    between atoms: C_16  and  C_17
REMARK                            x       y       z     vdW  Elec       q    Type
REMARK                         _______ _______ _______ _____ _____    ______ ____
ROOT
ATOM      1  C   UNL     1      46.711   7.475  12.054  0.00  0.00    +0.000 C 
ENDROOT
BRANCH   1   4
ATOM      2  C   UNL     1      44.600   4.722  10.462  0.00  0.00    +0.000 A 
ATOM      3  C   UNL     1      45.579   5.698  10.683  0.00  0.00    +0.000 A 
ATOM      4  C   UNL     1      45.587   6.485  11.845  0.00  0.00    +0.000 A 
ATOM      5  C   UNL     1      44.573   6.295  12.790  0.00  0.00    +0.000 A 
ATOM      6  C   UNL     1      43.602   5.312  12.579  0.00  0.00    +0.000 A 
ATOM      7  F   UNL     1      42.646   5.138  13.502  0.00  0.00    +0.000 F 
ATOM      8  C   UNL     1      43.621   4.519  11.433  0.00  0.00    +0.000 A 
ATOM      9  F   UNL     1      42.687   3.570  11.269  0.00  0.00    +0.000 F 
BRANCH   2  10
ATOM     10  O   UNL     1      44.573   3.933   9.330  0.00  0.00    +0.000 OA
BRANCH  10  15
ATOM     11  C   UNL     1      46.669   3.861   7.106  0.00  0.00    +0.000 C 
ATOM     12  C   UNL     1      46.472   2.714   8.069  0.00  0.00    +0.000 C 
ATOM     13  O   UNL     1      45.660   1.661   7.479  0.00  0.00    +0.000 OA
ATOM     14  C   UNL     1      44.983   1.478   8.743  0.00  0.00    +0.000 C 
ATOM     15  C   UNL     1      45.511   2.825   9.276  0.00  0.00    +0.000 C 
ENDBRANCH  10  15
ENDBRANCH   2  10
ENDBRANCH   1   4
BRANCH   1  16
ATOM     16  C   UNL     1      48.069   6.819  12.311  0.00  0.00    +0.000 C 
BRANCH  16  17
ATOM     17  N   UNL     1      48.572   7.211  13.634  0.00  0.00    +0.000 N 
ATOM     18  C   UNL     1      48.252   6.285  14.644  0.00  0.00    +0.000 A 
ATOM     19  C   UNL     1      48.667   6.510  15.963  0.00  0.00    +0.000 A 
ATOM     20  N   UNL     1      48.416   5.662  16.999  0.00  0.00    +0.000 NA
ATOM     21  C   UNL     1      47.728   4.542  16.647  0.00  0.00    +0.000 A 
ATOM     22  C   UNL     1      47.318   4.299  15.349  0.00  0.00    +0.000 A 
ATOM     23  N   UNL     1      47.574   5.160  14.333  0.00  0.00    +0.000 NA
ATOM     24  H   UNL     1      48.243   8.132  13.918  0.00  0.00    +0.000 HD
BRANCH  21  25
ATOM     25  C   UNL     1      47.415   3.546  17.706  0.00  0.00    +0.000 C 
ATOM     26  N   UNL     1      48.159   3.635  18.850  0.00  0.00    +0.000 N 
ATOM     27  O   UNL     1      46.545   2.696  17.566  0.00  0.00    +0.000 OA
ATOM     28  H   UNL     1      48.883   4.339  18.933  0.00  0.00    +0.000 HD
ATOM     29  H   UNL     1      47.998   2.976  19.598  0.00  0.00    +0.000 HD
ENDBRANCH  21  25
ENDBRANCH  16  17
ENDBRANCH   1  16
TORSDOF 6
ENDMDL
MODEL 5
REMARK VINA RESULT:    -6.563      4.097      7.518
REMARK INTER + INTRA:          -9.836
REMARK INTER:                  -8.846
REMARK INTRA:                  -0.990
REMARK UNBOUND:                -0.972
REMARK  Name = 
REMARK  7 active torsions:
REMARK  status: ('A' for Active; 'I' for Inactive)
REMARK    1  A    between atoms: C_1  and  C_2
REMARK    2  A    between atoms: C_5  and  O_6
REMARK    3  A    between atoms: O_6  and  C_7
REMARK    4  A    between atoms: C_9  and  C_10
REMARK    5  A    between atoms: C_10  and  C_11
REMARK    6  A    between atoms: C_11  and  N_12
REMARK    7  A    between atoms: C_16  and  C_17
REMARK                            x       y       z     vdW  Elec       q    Type
REMARK                         _______ _______ _______ _____ _____    ______ ____
ROOT
ATOM      1  C   UNL     1      48.497   8.806  12.812  0.00  0.00    +0.000 C 
ENDROOT
BRANCH   1   4
ATOM      2  C   UNL     1      45.419   7.024  11.428  0.00  0.00    +0.000 A 
ATOM      3  C   UNL     1      46.721   7.303  11.862  0.00  0.00    +0.000 A 
ATOM      4  C   UNL     1      47.095   8.586  12.292  0.00  0.00    +0.000 A 
ATOM      5  C   UNL     1      46.140   9.608  12.261  0.00  0.00    +0.000 A 
ATOM      6  C   UNL     1      44.837   9.328  11.841  0.00  0.00    +0.000 A 
ATOM      7  F   UNL     1      43.934  10.319  11.831  0.00  0.00    +0.000 F 
ATOM      8  C   UNL     1      44.471   8.044  11.443  0.00  0.00    +0.000 A 
ATOM      9  F   UNL     1      43.207   7.804  11.064  0.00  0.00    +0.000 F 
BRANCH   2  10
ATOM     10  O   UNL     1      45.026   5.770  11.006  0.00  0.00    +0.000 OA
BRANCH  10  15
ATOM     11  C   UNL     1      44.799   2.840  10.163  0.00  0.00    +0.000 C 
ATOM     12  C   UNL     1      44.605   3.288  11.592  0.00  0.00    +0.000 C 
ATOM     13  O   UNL     1      43.192   3.410  11.921  0.00  0.00    +0.000 OA
ATOM     14  C   UNL     1      43.475   4.611  12.676  0.00  0.00    +0.000 C 
ATOM     15  C   UNL     1      44.867   4.749  12.027  0.00  0.00    +0.000 C 
ENDBRANCH  10  15
ENDBRANCH   2  10
ENDBRANCH   1   4
BRANCH   1  16
ATOM     16  C   UNL     1      49.235   7.512  13.160  0.00  0.00    +0.000 C 
BRANCH  16  17
ATOM     17  N   UNL     1      49.686   7.553  14.558  0.00  0.00    +0.000 N 
ATOM     18  C   UNL     1      49.112   6.544  15.353  0.00  0.00    +0.000 A 
ATOM     19  C   UNL     1      49.445   6.442  16.710  0.00  0.00    +0.000 A 
ATOM     20  N   UNL     1      48.951   5.489  17.549  0.00  0.00    +0.000 NA
ATOM     21  C   UNL     1      48.097   4.612  16.954  0.00  0.00    +0.000 A 
ATOM     22  C   UNL     1      47.764   4.693  15.615  0.00  0.00    +0.000 A 
ATOM     23  N   UNL     1      48.265   5.652  14.797  0.00  0.00    +0.000 NA
ATOM     24  H   UNL     1      49.512   8.455  14.996  0.00  0.00    +0.000 HD
BRANCH  21  25
ATOM     25  C   UNL     1      47.512   3.526  17.785  0.00  0.00    +0.000 C 
ATOM     26  N   UNL     1      48.202   3.204  18.921  0.00  0.00    +0.000 N 
ATOM     27  O   UNL     1      46.477   2.952  17.474  0.00  0.00    +0.000 OA
ATOM     28  H   UNL     1      49.065   3.685  19.147  0.00  0.00    +0.000 HD
ATOM     29  H   UNL     1      47.857   2.465  19.517  0.00  0.00    +0.000 HD
ENDBRANCH  21  25
ENDBRANCH  16  17
ENDBRANCH   1  16
TORSDOF 6
ENDMDL
MODEL 6
REMARK VINA RESULT:    -6.250      4.448      8.098
REMARK INTER + INTRA:          -9.414
REMARK INTER:                  -8.690
REMARK INTRA:                  -0.723
REMARK UNBOUND:                -0.972
REMARK  Name = 
REMARK  7 active torsions:
REMARK  status: ('A' for Active; 'I' for Inactive)
REMARK    1  A    between atoms: C_1  and  C_2
REMARK    2  A    between atoms: C_5  and  O_6
REMARK    3  A    between atoms: O_6  and  C_7
REMARK    4  A    between atoms: C_9  and  C_10
REMARK    5  A    between atoms: C_10  and  C_11
REMARK    6  A    between atoms: C_11  and  N_12
REMARK    7  A    between atoms: C_16  and  C_17
REMARK                            x       y       z     vdW  Elec       q    Type
REMARK                         _______ _______ _______ _____ _____    ______ ____
ROOT
ATOM      1  C   UNL     1      48.864   7.546  13.290  0.00  0.00    +0.000 C 
ENDROOT
BRANCH   1   4
ATOM      2  C   UNL     1      45.705   6.479  11.433  0.00  0.00    +0.000 A 
ATOM      3  C   UNL     1      47.000   6.504  11.965  0.00  0.00    +0.000 A 
ATOM      4  C   UNL     1      47.480   7.609  12.685  0.00  0.00    +0.000 A 
ATOM      5  C   UNL     1      46.642   8.717  12.851  0.00  0.00    +0.000 A 
ATOM      6  C   UNL     1      45.344   8.689  12.333  0.00  0.00    +0.000 A 
ATOM      7  F   UNL     1      44.552   9.755  12.514  0.00  0.00    +0.000 F 
ATOM      8  C   UNL     1      44.870   7.574  11.643  0.00  0.00    +0.000 A 
ATOM      9  F   UNL     1      43.613   7.571  11.176  0.00  0.00    +0.000 F 
BRANCH   2  10
ATOM     10  O   UNL     1      45.208   5.403  10.726  0.00  0.00    +0.000 OA
BRANCH  10  15
ATOM     11  C   UNL     1      44.510   2.825   9.238  0.00  0.00    +0.000 C 
ATOM     12  C   UNL     1      44.363   2.960  10.735  0.00  0.00    +0.000 C 
ATOM     13  O   UNL     1      42.985   3.240  11.108  0.00  0.00    +0.000 OA
ATOM     14  C   UNL     1      43.448   4.170  12.113  0.00  0.00    +0.000 C 
ATOM     15  C   UNL     1      44.858   4.217  11.489  0.00  0.00    +0.000 C 
ENDBRANCH  10  15
ENDBRANCH   2  10
ENDBRANCH   1   4
BRANCH   1  16
ATOM     16  C   UNL     1      48.893   7.837  14.792  0.00  0.00    +0.000 C 
BRANCH  16  17
ATOM     17  N   UNL     1      48.248   6.742  15.528  0.00  0.00    +0.000 N 
ATOM     18  C   UNL     1      49.157   5.962  16.266  0.00  0.00    +0.000 A 
ATOM     19  C   UNL     1      48.698   4.881  17.030  0.00  0.00    +0.000 A 
ATOM     20  N   UNL     1      49.503   4.083  17.786  0.00  0.00    +0.000 NA
ATOM     21  C   UNL     1      50.818   4.431  17.757  0.00  0.00    +0.000 A 
ATOM     22  C   UNL     1      51.287   5.499  17.016  0.00  0.00    +0.000 A 
ATOM     23  N   UNL     1      50.469   6.279  16.266  0.00  0.00    +0.000 NA
ATOM     24  H   UNL     1      47.710   6.129  14.919  0.00  0.00    +0.000 HD
BRANCH  21  25
ATOM     25  C   UNL     1      51.777   3.627  18.561  0.00  0.00    +0.000 C 
ATOM     26  N   UNL     1      51.935   2.324  18.177  0.00  0.00    +0.000 N 
ATOM     27  O   UNL     1      52.389   4.099  19.510  0.00  0.00    +0.000 OA
ATOM     28  H   UNL     1      51.405   1.955  17.396  0.00  0.00    +0.000 HD
ATOM     29  H   UNL     1      52.565   1.728  18.695  0.00  0.00    +0.000 HD
ENDBRANCH  21  25
ENDBRANCH  16  17
ENDBRANCH   1  16
TORSDOF 6
ENDMDL
MODEL 7
REMARK VINA RESULT:    -6.196      2.459      3.734
REMARK INTER + INTRA:          -9.342
REMARK INTER:                  -8.881
REMARK INTRA:                  -0.460
REMARK UNBOUND:                -0.972
REMARK  Name = 
REMARK  7 active torsions:
REMARK  status: ('A' for Active; 'I' for Inactive)
REMARK    1  A    between atoms: C_1  and  C_2
REMARK    2  A    between atoms: C_5  and  O_6
REMARK    3  A    between atoms: O_6  and  C_7
REMARK    4  A    between atoms: C_9  and  C_10
REMARK    5  A    between atoms: C_10  and  C_11
REMARK    6  A    between atoms: C_11  and  N_12
REMARK    7  A    between atoms: C_16  and  C_17
REMARK                            x       y       z     vdW  Elec       q    Type
REMARK                         _______ _______ _______ _____ _____    ______ ____
ROOT
ATOM      1  C   UNL     1      47.408   7.602  12.936  0.00  0.00    +0.000 C 
ENDROOT
BRANCH   1   4
ATOM      2  C   UNL     1      49.006   6.302  16.148  0.00  0.00    +0.000 A 
ATOM      3  C   UNL     1      48.420   6.370  14.878  0.00  0.00    +0.000 A 
ATOM      4  C   UNL     1      47.970   7.586  14.339  0.00  0.00    +0.000 A 
ATOM      5  C   UNL     1      48.097   8.748  15.107  0.00  0.00    +0.000 A 
ATOM      6  C   UNL     1      48.695   8.684  16.369  0.00  0.00    +0.000 A 
ATOM      7  F   UNL     1      48.818   9.811  17.084  0.00  0.00    +0.000 F 
ATOM      8  C   UNL     1      49.162   7.476  16.882  0.00  0.00    +0.000 A 
ATOM      9  F   UNL     1      49.748   7.451  18.088  0.00  0.00    +0.000 F 
BRANCH   2  10
ATOM     10  O   UNL     1      49.460   5.120  16.698  0.00  0.00    +0.000 OA
BRANCH  10  15
ATOM     11  C   UNL     1      48.747   2.158  16.450  0.00  0.00    +0.000 C 
ATOM     12  C   UNL     1      48.148   3.047  17.513  0.00  0.00    +0.000 C 
ATOM     13  O   UNL     1      46.820   3.505  17.133  0.00  0.00    +0.000 OA
ATOM     14  C   UNL     1      47.118   4.812  17.676  0.00  0.00    +0.000 C 
ATOM     15  C   UNL     1      48.628   4.504  17.717  0.00  0.00    +0.000 C 
ENDBRANCH  10  15
ENDBRANCH   2  10
ENDBRANCH   1   4
BRANCH   1  16
ATOM     16  C   UNL     1      45.879   7.596  12.885  0.00  0.00    +0.000 C 
BRANCH  16  17
ATOM     17  N   UNL     1      45.371   6.268  13.251  0.00  0.00    +0.000 N 
ATOM     18  C   UNL     1      45.208   5.414  12.143  0.00  0.00    +0.000 A 
ATOM     19  C   UNL     1      44.738   4.107  12.325  0.00  0.00    +0.000 A 
ATOM     20  N   UNL     1      44.565   3.209  11.316  0.00  0.00    +0.000 NA
ATOM     21  C   UNL     1      44.907   3.682  10.086  0.00  0.00    +0.000 A 
ATOM     22  C   UNL     1      45.381   4.965   9.889  0.00  0.00    +0.000 A 
ATOM     23  N   UNL     1      45.541   5.846  10.909  0.00  0.00    +0.000 NA
ATOM     24  H   UNL     1      44.490   6.315  13.759  0.00  0.00    +0.000 HD
BRANCH  21  25
ATOM     25  C   UNL     1      44.766   2.772   8.918  0.00  0.00    +0.000 C 
ATOM     26  N   UNL     1      44.240   3.329   7.785  0.00  0.00    +0.000 N 
ATOM     27  O   UNL     1      45.099   1.595   8.964  0.00  0.00    +0.000 OA
ATOM     28  H   UNL     1      43.960   4.303   7.779  0.00  0.00    +0.000 HD
ATOM     29  H   UNL     1      44.111   2.755   6.965  0.00  0.00    +0.000 HD
ENDBRANCH  21  25
ENDBRANCH  16  17
ENDBRANCH   1  16
TORSDOF 6
ENDMDL
MODEL 8
REMARK VINA RESULT:    -6.174      4.156      5.670
REMARK INTER + INTRA:          -9.311
REMARK INTER:                  -8.305
REMARK INTRA:                  -1.006
REMARK UNBOUND:                -0.972
REMARK  Name = 
REMARK  7 active torsions:
REMARK  status: ('A' for Active; 'I' for Inactive)
REMARK    1  A    between atoms: C_1  and  C_2
REMARK    2  A    between atoms: C_5  and  O_6
REMARK    3  A    between atoms: O_6  and  C_7
REMARK    4  A    between atoms: C_9  and  C_10
REMARK    5  A    between atoms: C_10  and  C_11
REMARK    6  A    between atoms: C_11  and  N_12
REMARK    7  A    between atoms: C_16  and  C_17
REMARK                            x       y       z     vdW  Elec       q    Type
REMARK                         _______ _______ _______ _____ _____    ______ ____
ROOT
ATOM      1  C   UNL     1      49.782   8.328  13.968  0.00  0.00    +0.000 C 
ENDROOT
BRANCH   1   4
ATOM      2  C   UNL     1      49.250   6.276  17.142  0.00  0.00    +0.000 A 
ATOM      3  C   UNL     1      49.616   6.669  15.848  0.00  0.00    +0.000 A 
ATOM      4  C   UNL     1      49.299   7.941  15.347  0.00  0.00    +0.000 A 
ATOM      5  C   UNL     1      48.581   8.823  16.162  0.00  0.00    +0.000 A 
ATOM      6  C   UNL     1      48.227   8.438  17.457  0.00  0.00    +0.000 A 
ATOM      7  F   UNL     1      47.549   9.302  18.227  0.00  0.00    +0.000 F 
ATOM      8  C   UNL     1      48.571   7.182  17.953  0.00  0.00    +0.000 A 
ATOM      9  F   UNL     1      48.233   6.850  19.208  0.00  0.00    +0.000 F 
BRANCH   2  10
ATOM     10  O   UNL     1      49.554   5.033  17.659  0.00  0.00    +0.000 OA
BRANCH  10  15
ATOM     11  C   UNL     1      50.278   2.124  17.058  0.00  0.00    +0.000 C 
ATOM     12  C   UNL     1      48.847   2.592  17.185  0.00  0.00    +0.000 C 
ATOM     13  O   UNL     1      48.248   2.821  15.878  0.00  0.00    +0.000 OA
ATOM     14  C   UNL     1      47.588   4.001  16.391  0.00  0.00    +0.000 C 
ATOM     15  C   UNL     1      48.502   4.032  17.633  0.00  0.00    +0.000 C 
ENDBRANCH  10  15
ENDBRANCH   2  10
ENDBRANCH   1   4
BRANCH   1  16
ATOM     16  C   UNL     1      49.345   7.358  12.868  0.00  0.00    +0.000 C 
BRANCH  16  17
ATOM     17  N   UNL     1      48.102   7.833  12.246  0.00  0.00    +0.000 N 
ATOM     18  C   UNL     1      47.024   6.944  12.418  0.00  0.00    +0.000 A 
ATOM     19  C   UNL     1      45.765   7.255  11.889  0.00  0.00    +0.000 A 
ATOM     20  N   UNL     1      44.663   6.464  12.020  0.00  0.00    +0.000 NA
ATOM     21  C   UNL     1      44.879   5.325  12.734  0.00  0.00    +0.000 A 
ATOM     22  C   UNL     1      46.112   5.007  13.270  0.00  0.00    +0.000 A 
ATOM     23  N   UNL     1      47.197   5.807  13.124  0.00  0.00    +0.000 NA
ATOM     24  H   UNL     1      48.213   8.024  11.252  0.00  0.00    +0.000 HD
BRANCH  21  25
ATOM     25  C   UNL     1      43.734   4.399  12.943  0.00  0.00    +0.000 C 
ATOM     26  N   UNL     1      44.003   3.068  12.780  0.00  0.00    +0.000 N 
ATOM     27  O   UNL     1      42.617   4.799  13.243  0.00  0.00    +0.000 OA
ATOM     28  H   UNL     1      44.934   2.765  12.517  0.00  0.00    +0.000 HD
ATOM     29  H   UNL     1      43.260   2.394  12.898  0.00  0.00    +0.000 HD
ENDBRANCH  21  25
ENDBRANCH  16  17
ENDBRANCH   1  16
TORSDOF 6
ENDMDL
