MODEL 1
REMARK VINA RESULT:    -9.541      0.000      0.000
REMARK INTER + INTRA:         -13.928
REMARK INTER:                 -12.888
REMARK INTRA:                  -1.040
REMARK UNBOUND:                -1.040
REMARK  Name = 
REMARK  8 active torsions:
REMARK  status: ('A' for Active; 'I' for Inactive)
REMARK    1  A    between atoms: C_1  and  C_2
REMARK    2  A    between atoms: C_2  and  C_3
REMARK    3  A    between atoms: C_2  and  C_4
REMARK    4  A    between atoms: C_6  and  N_7
REMARK    5  A    between atoms: N_7  and  C_8
REMARK    6  A    between atoms: C_8  and  C_9
REMARK    7  A    between atoms: C_13  and  C_14
REMARK    8  A    between atoms: C_23  and  C_24
REMARK                            x       y       z     vdW  Elec       q    Type
REMARK                         _______ _______ _______ _____ _____    ______ ____
ROOT
ATOM      1  N   UNL     1      44.034   6.939  12.418  0.00  0.00    +0.000 N 
ATOM      2  H   UNL     1      43.505   6.709  13.253  0.00  0.00    +0.000 HD
ENDROOT
BRANCH   1   5
ATOM      3  C   UNL     1      47.745   7.139  12.334  0.00  0.00    +0.000 A 
ATOM      4  C   UNL     1      46.400   7.416  12.059  0.00  0.00    +0.000 A 
ATOM      5  C   UNL     1      45.377   6.663  12.644  0.00  0.00    +0.000 A 
ATOM      6  N   UNL     1      45.645   5.669  13.512  0.00  0.00    +0.000 NA
ATOM      7  C   UNL     1      46.961   5.426  13.797  0.00  0.00    +0.000 A 
ATOM      8  C   UNL     1      48.025   6.121  13.238  0.00  0.00    +0.000 A 
BRANCH   7   9
ATOM      9  C   UNL     1      47.262   4.345  14.792  0.00  0.00    +0.000 C 
ATOM     10  N   UNL     1      47.349   4.748  16.097  0.00  0.00    +0.000 N 
ATOM     11  O   UNL     1      47.424   3.174  14.473  0.00  0.00    +0.000 OA
ATOM     12  H   UNL     1      47.250   5.731  16.325  0.00  0.00    +0.000 HD
ATOM     13  H   UNL     1      47.589   4.074  16.808  0.00  0.00    +0.000 HD
ENDBRANCH   7   9
BRANCH   3  15
ATOM     14  C   UNL     1      48.572   9.439  11.712  0.00  0.00    +0.000 C 
ATOM     15  C   UNL     1      48.837   7.934  11.649  0.00  0.00    +0.000 C 
ATOM     16  C   UNL     1      50.209   7.590  12.235  0.00  0.00    +0.000 C 
ENDBRANCH   3  15
ENDBRANCH   1   5
BRANCH   1  17
ATOM     17  C   UNL     1      43.438   6.538  11.158  0.00  0.00    +0.000 C 
BRANCH  17  18
ATOM     18  C   UNL     1      43.660   5.069  10.902  0.00  0.00    +0.000 A 
ATOM     19  C   UNL     1      43.035   4.099  11.687  0.00  0.00    +0.000 A 
ATOM     20  C   UNL     1      43.229   2.765  11.369  0.00  0.00    +0.000 A 
ATOM     21  N   UNL     1      44.001   2.342  10.346  0.00  0.00    +0.000 NA
ATOM     22  C   UNL     1      44.642   3.279   9.604  0.00  0.00    +0.000 A 
ATOM     23  C   UNL     1      44.484   4.644   9.855  0.00  0.00    +0.000 A 
BRANCH  22  24
ATOM     24  C   UNL     1      45.516   2.769   8.531  0.00  0.00    +0.000 A 
ATOM     25  C   UNL     1      45.965   3.611   7.494  0.00  0.00    +0.000 A 
ATOM     26  C   UNL     1      46.778   3.129   6.461  0.00  0.00    +0.000 A 
ATOM     27  C   UNL     1      47.154   1.790   6.443  0.00  0.00    +0.000 A 
ATOM     28  C   UNL     1      46.719   0.950   7.457  0.00  0.00    +0.000 A 
ATOM     29  F   UNL     1      47.074  -0.342   7.444  0.00  0.00    +0.000 F 
ATOM     30  C   UNL     1      45.912   1.421   8.488  0.00  0.00    +0.000 A 
ENDBRANCH  22  24
ENDBRANCH  17  18
ENDBRANCH   1  17
TORSDOF 6
ENDMDL
MODEL 2
REMARK VINA RESULT:    -8.288      2.947      7.145
REMARK INTER + INTRA:         -12.235
REMARK INTER:                 -11.215
REMARK INTRA:                  -1.020
REMARK UNBOUND:                -1.040
REMARK  Name = 
REMARK  8 active torsions:
REMARK  status: ('A' for Active; 'I' for Inactive)
REMARK    1  A    between atoms: C_1  and  C_2
REMARK    2  A    between atoms: C_2  and  C_3
REMARK    3  A    between atoms: C_2  and  C_4
REMARK    4  A    between atoms: C_6  and  N_7
REMARK    5  A    between atoms: N_7  and  C_8
REMARK    6  A    between atoms: C_8  and  C_9
REMARK    7  A    between atoms: C_13  and  C_14
REMARK    8  A    between atoms: C_23  and  C_24
REMARK                            x       y       z     vdW  Elec       q    Type
REMARK                         _______ _______ _______ _____ _____    ______ ____
ROOT
ATOM      1  N   UNL     1      45.557   6.530  10.228  0.00  0.00    +0.000 N 
ATOM      2  H   UNL     1      46.410   6.771   9.734  0.00  0.00    +0.000 HD
ENDROOT
BRANCH   1   5
ATOM      3  C   UNL     1      45.423   3.183   8.615  0.00  0.00    +0.000 A 
ATOM      4  C   UNL     1      45.722   4.533   8.834  0.00  0.00    +0.000 A 
ATOM      5  C   UNL     1      45.245   5.200   9.966  0.00  0.00    +0.000 A 
ATOM      6  N   UNL     1      44.507   4.566  10.897  0.00  0.00    +0.000 NA
ATOM      7  C   UNL     1      44.246   3.238  10.689  0.00  0.00    +0.000 A 
ATOM      8  C   UNL     1      44.672   2.521   9.580  0.00  0.00    +0.000 A 
BRANCH   7   9
ATOM      9  C   UNL     1      43.458   2.518  11.743  0.00  0.00    +0.000 C 
ATOM     10  N   UNL     1      43.589   3.004  13.015  0.00  0.00    +0.000 N 
ATOM     11  O   UNL     1      42.744   1.555  11.497  0.00  0.00    +0.000 OA
ATOM     12  H   UNL     1      44.220   3.778  13.193  0.00  0.00    +0.000 HD
ATOM     13  H   UNL     1      43.116   2.537  13.774  0.00  0.00    +0.000 HD
ENDBRANCH   7   9
BRANCH   3  15
ATOM     14  C   UNL     1      46.677   3.450   6.444  0.00  0.00    +0.000 C 
ATOM     15  C   UNL     1      45.908   2.494   7.356  0.00  0.00    +0.000 C 
ATOM     16  C   UNL     1      46.750   1.263   7.700  0.00  0.00    +0.000 C 
ENDBRANCH   3  15
ENDBRANCH   1   5
BRANCH   1  17
ATOM     17  C   UNL     1      45.448   7.020  11.588  0.00  0.00    +0.000 C 
BRANCH  17  18
ATOM     18  C   UNL     1      46.755   6.861  12.323  0.00  0.00    +0.000 A 
ATOM     19  C   UNL     1      47.952   7.318  11.771  0.00  0.00    +0.000 A 
ATOM     20  C   UNL     1      49.112   7.198  12.517  0.00  0.00    +0.000 A 
ATOM     21  N   UNL     1      49.159   6.650  13.750  0.00  0.00    +0.000 NA
ATOM     22  C   UNL     1      48.005   6.169  14.274  0.00  0.00    +0.000 A 
ATOM     23  C   UNL     1      46.793   6.266  13.589  0.00  0.00    +0.000 A 
BRANCH  22  24
ATOM     24  C   UNL     1      48.114   5.532  15.600  0.00  0.00    +0.000 A 
ATOM     25  C   UNL     1      49.011   6.020  16.572  0.00  0.00    +0.000 A 
ATOM     26  C   UNL     1      49.136   5.408  17.825  0.00  0.00    +0.000 A 
ATOM     27  C   UNL     1      48.365   4.291  18.130  0.00  0.00    +0.000 A 
ATOM     28  C   UNL     1      47.478   3.800  17.184  0.00  0.00    +0.000 A 
ATOM     29  F   UNL     1      46.736   2.721  17.469  0.00  0.00    +0.000 F 
ATOM     30  C   UNL     1      47.348   4.403  15.936  0.00  0.00    +0.000 A 
ENDBRANCH  22  24
ENDBRANCH  17  18
ENDBRANCH   1  17
TORSDOF 6
ENDMDL
MODEL 3
REMARK VINA RESULT:    -8.108      1.363      1.766
REMARK INTER + INTRA:         -11.992
REMARK INTER:                 -11.087
REMARK INTRA:                  -0.905
REMARK UNBOUND:                -1.040
REMARK  Name = 
REMARK  8 active torsions:
REMARK  status: ('A' for Active; 'I' for Inactive)
REMARK    1  A    between atoms: C_1  and  C_2
REMARK    2  A    between atoms: C_2  and  C_3
REMARK    3  A    between atoms: C_2  and  C_4
REMARK    4  A    between atoms: C_6  and  N_7
REMARK    5  A    between atoms: N_7  and  C_8
REMARK    6  A    between atoms: C_8  and  C_9
REMARK    7  A    between atoms: C_13  and  C_14
REMARK    8  A    between atoms: C_23  and  C_24
REMARK                            x       y       z     vdW  Elec       q    Type
REMARK                         _______ _______ _______ _____ _____    ______ ____
ROOT
ATOM      1  N   UNL     1      46.086   7.383  11.456  0.00  0.00    +0.000 N 
ATOM      2  H   UNL     1      45.988   8.287  11.004  0.00  0.00    +0.000 HD
ENDROOT
BRANCH   1   5
ATOM      3  C   UNL     1      49.670   7.861  12.319  0.00  0.00    +0.000 A 
ATOM      4  C   UNL     1      48.472   7.876  11.595  0.00  0.00    +0.000 A 
ATOM      5  C   UNL     1      47.297   7.348  12.138  0.00  0.00    +0.000 A 
ATOM      6  N   UNL     1      47.267   6.835  13.383  0.00  0.00    +0.000 NA
ATOM      7  C   UNL     1      48.436   6.853  14.094  0.00  0.00    +0.000 A 
ATOM      8  C   UNL     1      49.640   7.343  13.609  0.00  0.00    +0.000 A 
BRANCH   7   9
ATOM      9  C   UNL     1      48.397   6.317  15.495  0.00  0.00    +0.000 C 
ATOM     10  N   UNL     1      48.410   7.258  16.489  0.00  0.00    +0.000 N 
ATOM     11  O   UNL     1      48.360   5.121  15.748  0.00  0.00    +0.000 OA
ATOM     12  H   UNL     1      48.483   8.240  16.248  0.00  0.00    +0.000 HD
ATOM     13  H   UNL     1      48.428   6.959  17.452  0.00  0.00    +0.000 HD
ENDBRANCH   7   9
BRANCH   3  15
ATOM     14  C   UNL     1      51.425   7.505  10.544  0.00  0.00    +0.000 C 
ATOM     15  C   UNL     1      50.942   8.393  11.691  0.00  0.00    +0.000 C 
ATOM     16  C   UNL     1      50.756   9.840  11.229  0.00  0.00    +0.000 C 
ENDBRANCH   3  15
ENDBRANCH   1   5
BRANCH   1  17
ATOM     17  C   UNL     1      44.899   6.867  12.109  0.00  0.00    +0.000 C 
BRANCH  17  18
ATOM     18  C   UNL     1      44.523   5.517  11.553  0.00  0.00    +0.000 A 
ATOM     19  C   UNL     1      43.457   4.790  12.087  0.00  0.00    +0.000 A 
ATOM     20  C   UNL     1      43.120   3.583  11.498  0.00  0.00    +0.000 A 
ATOM     21  N   UNL     1      43.772   3.056  10.439  0.00  0.00    +0.000 NA
ATOM     22  C   UNL     1      44.832   3.740   9.942  0.00  0.00    +0.000 A 
ATOM     23  C   UNL     1      45.223   4.970  10.473  0.00  0.00    +0.000 A 
BRANCH  22  24
ATOM     24  C   UNL     1      45.545   3.101   8.820  0.00  0.00    +0.000 A 
ATOM     25  C   UNL     1      45.996   3.856   7.718  0.00  0.00    +0.000 A 
ATOM     26  C   UNL     1      46.655   3.253   6.639  0.00  0.00    +0.000 A 
ATOM     27  C   UNL     1      46.873   1.879   6.641  0.00  0.00    +0.000 A 
ATOM     28  C   UNL     1      46.434   1.125   7.718  0.00  0.00    +0.000 A 
ATOM     29  F   UNL     1      46.637  -0.200   7.724  0.00  0.00    +0.000 F 
ATOM     30  C   UNL     1      45.780   1.716   8.794  0.00  0.00    +0.000 A 
ENDBRANCH  22  24
ENDBRANCH  17  18
ENDBRANCH   1  17
TORSDOF 6
ENDMDL
MODEL 4
REMARK VINA RESULT:    -8.086      1.956      2.602
REMARK INTER + INTRA:         -11.963
REMARK INTER:                 -11.193
REMARK INTRA:                  -0.770
REMARK UNBOUND:                -1.040
REMARK  Name = 
REMARK  8 active torsions:
REMARK  status: ('A' for Active; 'I' for Inactive)
REMARK    1  A    between atoms: C_1  and  C_2
REMARK    2  A    between atoms: C_2  and  C_3
REMARK    3  A    between atoms: C_2  and  C_4
REMARK    4  A    between atoms: C_6  and  N_7
REMARK    5  A    between atoms: N_7  and  C_8
REMARK    6  A    between atoms: C_8  and  C_9
REMARK    7  A    between atoms: C_13  and  C_14
REMARK    8  A    between atoms: C_23  and  C_24
REMARK                            x       y       z     vdW  Elec       q    Type
REMARK                         _______ _______ _______ _____ _____    ______ ____
ROOT
ATOM      1  N   UNL     1      46.798   5.560  13.147  0.00  0.00    +0.000 N 
ATOM      2  H   UNL     1      47.208   6.237  12.511  0.00  0.00    +0.000 HD
ENDROOT
BRANCH   1   5
ATOM      3  C   UNL     1      49.120   6.589  15.861  0.00  0.00    +0.000 A 
ATOM      4  C   UNL     1      48.456   6.564  14.629  0.00  0.00    +0.000 A 
ATOM      5  C   UNL     1      47.498   5.586  14.348  0.00  0.00    +0.000 A 
ATOM      6  N   UNL     1      47.157   4.655  15.259  0.00  0.00    +0.000 NA
ATOM      7  C   UNL     1      47.788   4.707  16.472  0.00  0.00    +0.000 A 
ATOM      8  C   UNL     1      48.762   5.637  16.809  0.00  0.00    +0.000 A 
BRANCH   7   9
ATOM      9  C   UNL     1      47.383   3.694  17.502  0.00  0.00    +0.000 C 
ATOM     10  N   UNL     1      48.168   3.643  18.622  0.00  0.00    +0.000 N 
ATOM     11  O   UNL     1      46.419   2.954  17.363  0.00  0.00    +0.000 OA
ATOM     12  H   UNL     1      48.984   4.241  18.690  0.00  0.00    +0.000 HD
ATOM     13  H   UNL     1      47.971   2.954  19.332  0.00  0.00    +0.000 HD
ENDBRANCH   7   9
BRANCH   3  15
ATOM     14  C   UNL     1      51.595   7.023  16.073  0.00  0.00    +0.000 C 
ATOM     15  C   UNL     1      50.191   7.627  16.124  0.00  0.00    +0.000 C 
ATOM     16  C   UNL     1      50.060   8.802  15.152  0.00  0.00    +0.000 C 
ENDBRANCH   3  15
ENDBRANCH   1   5
BRANCH   1  17
ATOM     17  C   UNL     1      45.349   5.516  13.181  0.00  0.00    +0.000 C 
BRANCH  17  18
ATOM     18  C   UNL     1      44.820   4.457  12.248  0.00  0.00    +0.000 A 
ATOM     19  C   UNL     1      43.669   3.733  12.559  0.00  0.00    +0.000 A 
ATOM     20  C   UNL     1      43.196   2.814  11.637  0.00  0.00    +0.000 A 
ATOM     21  N   UNL     1      43.793   2.564  10.452  0.00  0.00    +0.000 NA
ATOM     22  C   UNL     1      44.935   3.237  10.162  0.00  0.00    +0.000 A 
ATOM     23  C   UNL     1      45.464   4.189  11.035  0.00  0.00    +0.000 A 
BRANCH  22  24
ATOM     24  C   UNL     1      45.580   2.894   8.881  0.00  0.00    +0.000 A 
ATOM     25  C   UNL     1      45.824   3.877   7.901  0.00  0.00    +0.000 A 
ATOM     26  C   UNL     1      46.417   3.555   6.674  0.00  0.00    +0.000 A 
ATOM     27  C   UNL     1      46.775   2.239   6.402  0.00  0.00    +0.000 A 
ATOM     28  C   UNL     1      46.540   1.261   7.357  0.00  0.00    +0.000 A 
ATOM     29  F   UNL     1      46.878  -0.010   7.099  0.00  0.00    +0.000 F 
ATOM     30  C   UNL     1      45.952   1.573   8.579  0.00  0.00    +0.000 A 
ENDBRANCH  22  24
ENDBRANCH  17  18
ENDBRANCH   1  17
TORSDOF 6
ENDMDL
MODEL 5
REMARK VINA RESULT:    -7.383      2.455      3.816
REMARK INTER + INTRA:         -11.012
REMARK INTER:                 -10.263
REMARK INTRA:                  -0.750
REMARK UNBOUND:                -1.040
REMARK  Name = 
REMARK  8 active torsions:
REMARK  status: ('A' for Active; 'I' for Inactive)
REMARK    1  A    between atoms: C_1  and  C_2
REMARK    2  A    between atoms: C_2  and  C_3
REMARK    3  A    between atoms: C_2  and  C_4
REMARK    4  A    between atoms: C_6  and  N_7
REMARK    5  A    between atoms: N_7  and  C_8
REMARK    6  A    between atoms: C_8  and  C_9
REMARK    7  A    between atoms: C_13  and  C_14
REMARK    8  A    between atoms: C_23  and  C_24
REMARK                            x       y       z     vdW  Elec       q    Type
REMARK                         _______ _______ _______ _____ _____    ______ ____
ROOT
ATOM      1  N   UNL     1      46.469   4.028  13.731  0.00  0.00    +0.000 N 
ATOM      2  H   UNL     1      46.954   3.976  12.841  0.00  0.00    +0.000 HD
ENDROOT
BRANCH   1   5
ATOM      3  C   UNL     1      48.157   5.175  16.838  0.00  0.00    +0.000 A 
ATOM      4  C   UNL     1      47.347   4.431  15.972  0.00  0.00    +0.000 A 
ATOM      5  C   UNL     1      47.237   4.771  14.621  0.00  0.00    +0.000 A 
ATOM      6  N   UNL     1      47.925   5.804  14.098  0.00  0.00    +0.000 NA
ATOM      7  C   UNL     1      48.738   6.506  14.946  0.00  0.00    +0.000 A 
ATOM      8  C   UNL     1      48.879   6.235  16.300  0.00  0.00    +0.000 A 
BRANCH   7   9
ATOM      9  C   UNL     1      49.535   7.633  14.359  0.00  0.00    +0.000 C 
ATOM     10  N   UNL     1      50.894   7.490  14.417  0.00  0.00    +0.000 N 
ATOM     11  O   UNL     1      49.018   8.624  13.861  0.00  0.00    +0.000 OA
ATOM     12  H   UNL     1      51.293   6.677  14.873  0.00  0.00    +0.000 HD
ATOM     13  H   UNL     1      51.485   8.233  14.076  0.00  0.00    +0.000 HD
ENDBRANCH   7   9
BRANCH   3  15
ATOM     14  C   UNL     1      48.728   3.393  18.529  0.00  0.00    +0.000 C 
ATOM     15  C   UNL     1      48.222   4.819  18.309  0.00  0.00    +0.000 C 
ATOM     16  C   UNL     1      49.075   5.832  19.077  0.00  0.00    +0.000 C 
ENDBRANCH   3  15
ENDBRANCH   1   5
BRANCH   1  17
ATOM     17  C   UNL     1      45.041   4.274  13.663  0.00  0.00    +0.000 C 
BRANCH  17  18
ATOM     18  C   UNL     1      44.575   4.344  12.231  0.00  0.00    +0.000 A 
ATOM     19  C   UNL     1      43.423   5.051  11.882  0.00  0.00    +0.000 A 
ATOM     20  C   UNL     1      43.076   5.130  10.544  0.00  0.00    +0.000 A 
ATOM     21  N   UNL     1      43.782   4.549   9.550  0.00  0.00    +0.000 NA
ATOM     22  C   UNL     1      44.880   3.828   9.888  0.00  0.00    +0.000 A 
ATOM     23  C   UNL     1      45.301   3.715  11.214  0.00  0.00    +0.000 A 
BRANCH  22  24
ATOM     24  C   UNL     1      45.588   3.170   8.774  0.00  0.00    +0.000 A 
ATOM     25  C   UNL     1      46.063   3.910   7.673  0.00  0.00    +0.000 A 
ATOM     26  C   UNL     1      46.718   3.289   6.602  0.00  0.00    +0.000 A 
ATOM     27  C   UNL     1      46.908   1.911   6.611  0.00  0.00    +0.000 A 
ATOM     28  C   UNL     1      46.445   1.171   7.689  0.00  0.00    +0.000 A 
ATOM     29  F   UNL     1      46.622  -0.158   7.702  0.00  0.00    +0.000 F 
ATOM     30  C   UNL     1      45.795   1.780   8.757  0.00  0.00    +0.000 A 
ENDBRANCH  22  24
ENDBRANCH  17  18
ENDBRANCH   1  17
TORSDOF 6
ENDMDL
MODEL 6
REMARK VINA RESULT:    -7.304      4.851      8.384
REMARK INTER + INTRA:         -10.906
REMARK INTER:                 -10.016
REMARK INTRA:                  -0.890
REMARK UNBOUND:                -1.040
REMARK  Name = 
REMARK  8 active torsions:
REMARK  status: ('A' for Active; 'I' for Inactive)
REMARK    1  A    between atoms: C_1  and  C_2
REMARK    2  A    between atoms: C_2  and  C_3
REMARK    3  A    between atoms: C_2  and  C_4
REMARK    4  A    between atoms: C_6  and  N_7
REMARK    5  A    between atoms: N_7  and  C_8
REMARK    6  A    between atoms: C_8  and  C_9
REMARK    7  A    between atoms: C_13  and  C_14
REMARK    8  A    between atoms: C_23  and  C_24
REMARK                            x       y       z     vdW  Elec       q    Type
REMARK                         _______ _______ _______ _____ _____    ______ ____
ROOT
ATOM      1  N   UNL     1      47.163   3.412  14.886  0.00  0.00    +0.000 N 
ATOM      2  H   UNL     1      47.009   2.411  14.821  0.00  0.00    +0.000 HD
ENDROOT
BRANCH   1   5
ATOM      3  C   UNL     1      46.292   5.925  12.289  0.00  0.00    +0.000 A 
ATOM      4  C   UNL     1      46.881   5.339  13.415  0.00  0.00    +0.000 A 
ATOM      5  C   UNL     1      46.565   4.031  13.794  0.00  0.00    +0.000 A 
ATOM      6  N   UNL     1      45.709   3.279  13.076  0.00  0.00    +0.000 NA
ATOM      7  C   UNL     1      45.161   3.851  11.959  0.00  0.00    +0.000 A 
ATOM      8  C   UNL     1      45.416   5.149  11.538  0.00  0.00    +0.000 A 
BRANCH   7   9
ATOM      9  C   UNL     1      44.237   3.004  11.135  0.00  0.00    +0.000 C 
ATOM     10  N   UNL     1      44.816   2.343  10.087  0.00  0.00    +0.000 N 
ATOM     11  O   UNL     1      43.040   2.904  11.371  0.00  0.00    +0.000 OA
ATOM     12  H   UNL     1      45.802   2.479   9.892  0.00  0.00    +0.000 HD
ATOM     13  H   UNL     1      44.239   1.790   9.471  0.00  0.00    +0.000 HD
ENDBRANCH   7   9
BRANCH   3  15
ATOM     14  C   UNL     1      45.990   8.349  12.915  0.00  0.00    +0.000 C 
ATOM     15  C   UNL     1      46.611   7.361  11.928  0.00  0.00    +0.000 C 
ATOM     16  C   UNL     1      48.123   7.570  11.815  0.00  0.00    +0.000 C 
ENDBRANCH   3  15
ENDBRANCH   1   5
BRANCH   1  17
ATOM     17  C   UNL     1      46.994   3.997  16.202  0.00  0.00    +0.000 C 
BRANCH  17  18
ATOM     18  C   UNL     1      48.321   4.420  16.777  0.00  0.00    +0.000 A 
ATOM     19  C   UNL     1      48.573   5.753  17.103  0.00  0.00    +0.000 A 
ATOM     20  C   UNL     1      49.789   6.074  17.683  0.00  0.00    +0.000 A 
ATOM     21  N   UNL     1      50.758   5.171  17.942  0.00  0.00    +0.000 NA
ATOM     22  C   UNL     1      50.534   3.880  17.591  0.00  0.00    +0.000 A 
ATOM     23  C   UNL     1      49.328   3.478  17.016  0.00  0.00    +0.000 A 
BRANCH  22  24
ATOM     24  C   UNL     1      51.642   2.940  17.846  0.00  0.00    +0.000 A 
ATOM     25  C   UNL     1      51.577   1.602  17.406  0.00  0.00    +0.000 A 
ATOM     26  C   UNL     1      52.615   0.697  17.661  0.00  0.00    +0.000 A 
ATOM     27  C   UNL     1      53.739   1.114  18.367  0.00  0.00    +0.000 A 
ATOM     28  C   UNL     1      53.815   2.427  18.807  0.00  0.00    +0.000 A 
ATOM     29  F   UNL     1      54.893   2.834  19.491  0.00  0.00    +0.000 F 
ATOM     30  C   UNL     1      52.789   3.333  18.556  0.00  0.00    +0.000 A 
ENDBRANCH  22  24
ENDBRANCH  17  18
ENDBRANCH   1  17
TORSDOF 6
ENDMDL
MODEL 7
REMARK VINA RESULT:    -7.299      2.482      3.320
REMARK INTER + INTRA:         -10.899
REMARK INTER:                 -10.028
REMARK INTRA:                  -0.872
REMARK UNBOUND:                -1.040
REMARK  Name = 
REMARK  8 active torsions:
REMARK  status: ('A' for Active; 'I' for Inactive)
REMARK    1  A    between atoms: C_1  and  C_2
REMARK    2  A    between atoms: C_2  and  C_3
REMARK    3  A    between atoms: C_2  and  C_4
REMARK    4  A    between atoms: C_6  and  N_7
REMARK    5  A    between atoms: N_7  and  C_8
REMARK    6  A    between atoms: C_8  and  C_9
REMARK    7  A    between atoms: C_13  and  C_14
REMARK    8  A    between atoms: C_23  and  C_24
REMARK                            x       y       z     vdW  Elec       q    Type
REMARK                         _______ _______ _______ _____ _____    ______ ____
ROOT
ATOM      1  N   UNL     1      45.923   7.293  13.026  0.00  0.00    +0.000 N 
ATOM      2  H   UNL     1      45.538   6.505  13.537  0.00  0.00    +0.000 HD
ENDROOT
BRANCH   1   5
ATOM      3  C   UNL     1      49.156   7.164  14.856  0.00  0.00    +0.000 A 
ATOM      4  C   UNL     1      47.786   7.070  14.587  0.00  0.00    +0.000 A 
ATOM      5  C   UNL     1      47.274   7.412  13.332  0.00  0.00    +0.000 A 
ATOM      6  N   UNL     1      48.079   7.816  12.331  0.00  0.00    +0.000 NA
ATOM      7  C   UNL     1      49.421   7.876  12.595  0.00  0.00    +0.000 A 
ATOM      8  C   UNL     1      49.993   7.569  13.821  0.00  0.00    +0.000 A 
BRANCH   7   9
ATOM      9  C   UNL     1      50.325   8.288  11.471  0.00  0.00    +0.000 C 
ATOM     10  N   UNL     1      50.343   9.626  11.186  0.00  0.00    +0.000 N 
ATOM     11  O   UNL     1      51.005   7.491  10.838  0.00  0.00    +0.000 OA
ATOM     12  H   UNL     1      49.738  10.256  11.701  0.00  0.00    +0.000 HD
ATOM     13  H   UNL     1      50.900   9.960  10.414  0.00  0.00    +0.000 HD
ENDBRANCH   7   9
BRANCH   3  15
ATOM     14  C   UNL     1      48.975   5.624  16.844  0.00  0.00    +0.000 C 
ATOM     15  C   UNL     1      49.681   6.837  16.238  0.00  0.00    +0.000 C 
ATOM     16  C   UNL     1      51.198   6.634  16.209  0.00  0.00    +0.000 C 
ENDBRANCH   3  15
ENDBRANCH   1   5
BRANCH   1  17
ATOM     17  C   UNL     1      45.503   7.420  11.644  0.00  0.00    +0.000 C 
BRANCH  17  18
ATOM     18  C   UNL     1      44.921   6.125  11.137  0.00  0.00    +0.000 A 
ATOM     19  C   UNL     1      43.701   5.648  11.617  0.00  0.00    +0.000 A 
ATOM     20  C   UNL     1      43.186   4.483  11.072  0.00  0.00    +0.000 A 
ATOM     21  N   UNL     1      43.803   3.769  10.107  0.00  0.00    +0.000 NA
ATOM     22  C   UNL     1      45.008   4.208   9.665  0.00  0.00    +0.000 A 
ATOM     23  C   UNL     1      45.585   5.381  10.156  0.00  0.00    +0.000 A 
BRANCH  22  24
ATOM     24  C   UNL     1      45.669   3.368   8.648  0.00  0.00    +0.000 A 
ATOM     25  C   UNL     1      46.224   3.934   7.483  0.00  0.00    +0.000 A 
ATOM     26  C   UNL     1      46.835   3.141   6.504  0.00  0.00    +0.000 A 
ATOM     27  C   UNL     1      46.898   1.762   6.671  0.00  0.00    +0.000 A 
ATOM     28  C   UNL     1      46.355   1.191   7.812  0.00  0.00    +0.000 A 
ATOM     29  F   UNL     1      46.409  -0.138   7.976  0.00  0.00    +0.000 F 
ATOM     30  C   UNL     1      45.749   1.972   8.790  0.00  0.00    +0.000 A 
ENDBRANCH  22  24
ENDBRANCH  17  18
ENDBRANCH   1  17
TORSDOF 6
ENDMDL
MODEL 8
REMARK VINA RESULT:    -7.246      3.037      4.873
REMARK INTER + INTRA:         -10.827
REMARK INTER:                  -9.776
REMARK INTRA:                  -1.052
REMARK UNBOUND:                -1.040
REMARK  Name = 
REMARK  8 active torsions:
REMARK  status: ('A' for Active; 'I' for Inactive)
REMARK    1  A    between atoms: C_1  and  C_2
REMARK    2  A    between atoms: C_2  and  C_3
REMARK    3  A    between atoms: C_2  and  C_4
REMARK    4  A    between atoms: C_6  and  N_7
REMARK    5  A    between atoms: N_7  and  C_8
REMARK    6  A    between atoms: C_8  and  C_9
REMARK    7  A    between atoms: C_13  and  C_14
REMARK    8  A    between atoms: C_23  and  C_24
REMARK                            x       y       z     vdW  Elec       q    Type
REMARK                         _______ _______ _______ _____ _____    ______ ____
ROOT
ATOM      1  N   UNL     1      48.988   6.865  13.995  0.00  0.00    +0.000 N 
ATOM      2  H   UNL     1      49.961   6.666  13.787  0.00  0.00    +0.000 HD
ENDROOT
BRANCH   1   5
ATOM      3  C   UNL     1      48.405   6.975  17.665  0.00  0.00    +0.000 A 
ATOM      4  C   UNL     1      48.717   7.387  16.363  0.00  0.00    +0.000 A 
ATOM      5  C   UNL     1      48.718   6.477  15.302  0.00  0.00    +0.000 A 
ATOM      6  N   UNL     1      48.392   5.183  15.486  0.00  0.00    +0.000 NA
ATOM      7  C   UNL     1      48.058   4.797  16.756  0.00  0.00    +0.000 A 
ATOM      8  C   UNL     1      48.056   5.643  17.856  0.00  0.00    +0.000 A 
BRANCH   7   9
ATOM      9  C   UNL     1      47.657   3.366  16.958  0.00  0.00    +0.000 C 
ATOM     10  N   UNL     1      48.613   2.435  16.656  0.00  0.00    +0.000 N 
ATOM     11  O   UNL     1      46.549   3.036  17.361  0.00  0.00    +0.000 OA
ATOM     12  H   UNL     1      49.508   2.737  16.286  0.00  0.00    +0.000 HD
ATOM     13  H   UNL     1      48.390   1.454  16.732  0.00  0.00    +0.000 HD
ENDBRANCH   7   9
BRANCH   3  15
ATOM     14  C   UNL     1      47.788   9.292  18.445  0.00  0.00    +0.000 C 
ATOM     15  C   UNL     1      48.461   7.968  18.807  0.00  0.00    +0.000 C 
ATOM     16  C   UNL     1      47.853   7.369  20.078  0.00  0.00    +0.000 C 
ENDBRANCH   3  15
ENDBRANCH   1   5
BRANCH   1  17
ATOM     17  C   UNL     1      48.485   8.141  13.525  0.00  0.00    +0.000 C 
BRANCH  17  18
ATOM     18  C   UNL     1      47.167   7.970  12.813  0.00  0.00    +0.000 A 
ATOM     19  C   UNL     1      46.211   8.987  12.812  0.00  0.00    +0.000 A 
ATOM     20  C   UNL     1      45.044   8.797  12.092  0.00  0.00    +0.000 A 
ATOM     21  N   UNL     1      44.765   7.674  11.396  0.00  0.00    +0.000 NA
ATOM     22  C   UNL     1      45.674   6.667  11.426  0.00  0.00    +0.000 A 
ATOM     23  C   UNL     1      46.880   6.790  12.117  0.00  0.00    +0.000 A 
BRANCH  22  24
ATOM     24  C   UNL     1      45.303   5.441  10.694  0.00  0.00    +0.000 A 
ATOM     25  C   UNL     1      45.711   5.237   9.361  0.00  0.00    +0.000 A 
ATOM     26  C   UNL     1      45.346   4.085   8.653  0.00  0.00    +0.000 A 
ATOM     27  C   UNL     1      44.561   3.114   9.267  0.00  0.00    +0.000 A 
ATOM     28  C   UNL     1      44.152   3.303  10.578  0.00  0.00    +0.000 A 
ATOM     29  F   UNL     1      43.392   2.374  11.174  0.00  0.00    +0.000 F 
ATOM     30  C   UNL     1      44.512   4.444  11.289  0.00  0.00    +0.000 A 
ENDBRANCH  22  24
ENDBRANCH  17  18
ENDBRANCH   1  17
TORSDOF 6
ENDMDL
MODEL 9
REMARK VINA RESULT:    -7.170      2.925      4.660
REMARK INTER + INTRA:         -10.726
REMARK INTER:                  -9.755
REMARK INTRA:                  -0.970
REMARK UNBOUND:                -1.040
REMARK  Name = 
REMARK  8 active torsions:
REMARK  status: ('A' for Active; 'I' for Inactive)
REMARK    1  A    between atoms: C_1  and  C_2
REMARK    2  A    between atoms: C_2  and  C_3
REMARK    3  A    between atoms: C_2  and  C_4
REMARK    4  A    between atoms: C_6  and  N_7
REMARK    5  A    between atoms: N_7  and  C_8
REMARK    6  A    between atoms: C_8  and  C_9
REMARK    7  A    between atoms: C_13  and  C_14
REMARK    8  A    between atoms: C_23  and  C_24
REMARK                            x       y       z     vdW  Elec       q    Type
REMARK                         _______ _______ _______ _____ _____    ______ ____
ROOT
ATOM      1  N   UNL     1      48.774   6.817  13.868  0.00  0.00    +0.000 N 
ATOM      2  H   UNL     1      49.727   6.631  13.572  0.00  0.00    +0.000 HD
ENDROOT
BRANCH   1   5
ATOM      3  C   UNL     1      48.611   6.993  17.578  0.00  0.00    +0.000 A 
ATOM      4  C   UNL     1      48.790   7.377  16.244  0.00  0.00    +0.000 A 
ATOM      5  C   UNL     1      48.638   6.455  15.204  0.00  0.00    +0.000 A 
ATOM      6  N   UNL     1      48.287   5.177  15.443  0.00  0.00    +0.000 NA
ATOM      7  C   UNL     1      48.084   4.820  16.749  0.00  0.00    +0.000 A 
ATOM      8  C   UNL     1      48.236   5.677  17.828  0.00  0.00    +0.000 A 
BRANCH   7   9
ATOM      9  C   UNL     1      47.655   3.407  17.016  0.00  0.00    +0.000 C 
ATOM     10  N   UNL     1      48.636   2.460  16.906  0.00  0.00    +0.000 N 
ATOM     11  O   UNL     1      46.506   3.106  17.310  0.00  0.00    +0.000 OA
ATOM     12  H   UNL     1      49.569   2.736  16.621  0.00  0.00    +0.000 HD
ATOM     13  H   UNL     1      48.401   1.487  17.033  0.00  0.00    +0.000 HD
ENDBRANCH   7   9
BRANCH   3  15
ATOM     14  C   UNL     1      49.857   9.062  18.304  0.00  0.00    +0.000 C 
ATOM     15  C   UNL     1      48.831   7.996  18.691  0.00  0.00    +0.000 C 
ATOM     16  C   UNL     1      47.506   8.634  19.117  0.00  0.00    +0.000 C 
ENDBRANCH   3  15
ENDBRANCH   1   5
BRANCH   1  17
ATOM     17  C   UNL     1      48.204   8.073  13.421  0.00  0.00    +0.000 C 
BRANCH  17  18
ATOM     18  C   UNL     1      46.927   7.842  12.654  0.00  0.00    +0.000 A 
ATOM     19  C   UNL     1      45.929   8.816  12.605  0.00  0.00    +0.000 A 
ATOM     20  C   UNL     1      44.804   8.571  11.836  0.00  0.00    +0.000 A 
ATOM     21  N   UNL     1      44.605   7.434  11.136  0.00  0.00    +0.000 NA
ATOM     22  C   UNL     1      45.554   6.468  11.211  0.00  0.00    +0.000 A 
ATOM     23  C   UNL     1      46.723   6.648  11.954  0.00  0.00    +0.000 A 
BRANCH  22  24
ATOM     24  C   UNL     1      45.270   5.224  10.472  0.00  0.00    +0.000 A 
ATOM     25  C   UNL     1      44.643   4.130  11.102  0.00  0.00    +0.000 A 
ATOM     26  C   UNL     1      44.388   2.937  10.413  0.00  0.00    +0.000 A 
ATOM     27  C   UNL     1      44.761   2.816   9.078  0.00  0.00    +0.000 A 
ATOM     28  C   UNL     1      45.380   3.884   8.447  0.00  0.00    +0.000 A 
ATOM     29  F   UNL     1      45.745   3.772   7.163  0.00  0.00    +0.000 F 
ATOM     30  C   UNL     1      45.635   5.073   9.124  0.00  0.00    +0.000 A 
ENDBRANCH  22  24
ENDBRANCH  17  18
ENDBRANCH   1  17
TORSDOF 6
ENDMDL
