MODEL 1
REMARK VINA RESULT:    -8.065      0.000      0.000
REMARK INTER + INTRA:         -12.505
REMARK INTER:                 -11.365
REMARK INTRA:                  -1.140
REMARK UNBOUND:                -1.140
REMARK  Name = 
REMARK  8 active torsions:
REMARK  status: ('A' for Active; 'I' for Inactive)
REMARK    1  A    between atoms: C_1  and  O_2
REMARK    2  A    between atoms: O_2  and  C_3
REMARK    3  A    between atoms: C_10  and  C_11
REMARK    4  A    between atoms: N_13  and  C_14
REMARK    5  A    between atoms: C_14  and  C_15
REMARK    6  A    between atoms: C_18  and  N_19
REMARK    7  A    between atoms: N_19  and  C_20
REMARK    8  A    between atoms: C_20  and  C_21
REMARK                            x       y       z     vdW  Elec       q    Type
REMARK                         _______ _______ _______ _____ _____    ______ ____
ROOT
ATOM      1  C   UNL     1      46.001   7.870  12.625  0.00  0.00    +0.000 C 
ENDROOT
BRANCH   1   2
ATOM      2  C   UNL     1      45.465   6.786  11.722  0.00  0.00    +0.000 A 
ATOM      3  C   UNL     1      44.185   6.253  11.918  0.00  0.00    +0.000 A 
ATOM      4  C   UNL     1      43.678   5.258  11.065  0.00  0.00    +0.000 A 
ATOM      5  C   UNL     1      44.445   4.731  10.022  0.00  0.00    +0.000 A 
ATOM      6  C   UNL     1      45.733   5.260   9.845  0.00  0.00    +0.000 A 
ATOM      7  C   UNL     1      46.241   6.266  10.681  0.00  0.00    +0.000 A 
BRANCH   5   8
ATOM      8  N   UNL     1      43.976   3.807   9.086  0.00  0.00    +0.000 N 
ATOM      9  H   UNL     1      43.946   4.204   8.149  0.00  0.00    +0.000 HD
BRANCH   8  10
ATOM     10  C   UNL     1      44.432   2.413   9.089  0.00  0.00    +0.000 C 
BRANCH  10  11
ATOM     11  C   UNL     1      45.859   2.311   8.498  0.00  0.00    +0.000 C 
ATOM     12  C   UNL     1      45.995   3.006   7.150  0.00  0.00    +0.000 C 
ATOM     13  C   UNL     1      47.274   2.408   6.595  0.00  0.00    +0.000 C 
ATOM     14  C   UNL     1      47.312   0.998   7.165  0.00  0.00    +0.000 C 
ATOM     15  N   UNL     1      46.264   0.925   8.187  0.00  0.00    +0.000 NA
ATOM     16  H   UNL     1      46.622   0.469   9.024  0.00  0.00    +0.000 HD
ENDBRANCH  10  11
ENDBRANCH   8  10
ENDBRANCH   5   8
ENDBRANCH   1   2
BRANCH   1  19
ATOM     17  C   UNL     1      48.010   7.132  13.851  0.00  0.00    +0.000 C 
ATOM     18  O   UNL     1      48.744   7.445  12.919  0.00  0.00    +0.000 OA
ATOM     19  N   UNL     1      46.655   7.308  13.783  0.00  0.00    +0.000 N 
ATOM     20  H   UNL     1      46.064   7.007  14.543  0.00  0.00    +0.000 HD
BRANCH  17  28
ATOM     21  C   UNL     1      47.193   4.352  15.715  0.00  0.00    +0.000 A 
ATOM     22  N   UNL     1      47.100   3.341  16.600  0.00  0.00    +0.000 NA
ATOM     23  C   UNL     1      47.955   3.325  17.626  0.00  0.00    +0.000 A 
ATOM     24  N   UNL     1      48.910   4.214  17.888  0.00  0.00    +0.000 NA
ATOM     25  C   UNL     1      48.974   5.200  16.975  0.00  0.00    +0.000 A 
ATOM     26  S   UNL     1      50.135   6.426  17.148  0.00  0.00    +0.000 S 
ATOM     27  C   UNL     1      49.606   7.196  15.727  0.00  0.00    +0.000 A 
ATOM     28  C   UNL     1      48.551   6.548  15.094  0.00  0.00    +0.000 A 
ATOM     29  C   UNL     1      48.170   5.354  15.850  0.00  0.00    +0.000 A 
BRANCH  21  31
ATOM     30  C   UNL     1      46.807   3.585  13.537  0.00  0.00    +0.000 C 
ATOM     31  O   UNL     1      46.330   4.351  14.639  0.00  0.00    +0.000 OA
ENDBRANCH  21  31
ENDBRANCH  17  28
ENDBRANCH   1  19
TORSDOF 7
ENDMDL
MODEL 2
REMARK VINA RESULT:    -7.346      1.487      2.030
REMARK INTER + INTRA:         -11.492
REMARK INTER:                 -10.378
REMARK INTRA:                  -1.114
REMARK UNBOUND:                -1.140
REMARK  Name = 
REMARK  8 active torsions:
REMARK  status: ('A' for Active; 'I' for Inactive)
REMARK    1  A    between atoms: C_1  and  O_2
REMARK    2  A    between atoms: O_2  and  C_3
REMARK    3  A    between atoms: C_10  and  C_11
REMARK    4  A    between atoms: N_13  and  C_14
REMARK    5  A    between atoms: C_14  and  C_15
REMARK    6  A    between atoms: C_18  and  N_19
REMARK    7  A    between atoms: N_19  and  C_20
REMARK    8  A    between atoms: C_20  and  C_21
REMARK                            x       y       z     vdW  Elec       q    Type
REMARK                         _______ _______ _______ _____ _____    ______ ____
ROOT
ATOM      1  C   UNL     1      45.645   8.023  12.932  0.00  0.00    +0.000 C 
ENDROOT
BRANCH   1   2
ATOM      2  C   UNL     1      45.379   6.658  12.346  0.00  0.00    +0.000 A 
ATOM      3  C   UNL     1      45.364   6.460  10.960  0.00  0.00    +0.000 A 
ATOM      4  C   UNL     1      45.136   5.185  10.414  0.00  0.00    +0.000 A 
ATOM      5  C   UNL     1      44.872   4.081  11.228  0.00  0.00    +0.000 A 
ATOM      6  C   UNL     1      44.873   4.293  12.615  0.00  0.00    +0.000 A 
ATOM      7  C   UNL     1      45.116   5.559  13.170  0.00  0.00    +0.000 A 
BRANCH   5   8
ATOM      8  N   UNL     1      44.723   2.773  10.760  0.00  0.00    +0.000 N 
ATOM      9  H   UNL     1      44.077   2.239  11.337  0.00  0.00    +0.000 HD
BRANCH   8  10
ATOM     10  C   UNL     1      44.568   2.483   9.331  0.00  0.00    +0.000 C 
BRANCH  10  11
ATOM     11  C   UNL     1      45.953   2.309   8.662  0.00  0.00    +0.000 C 
ATOM     12  C   UNL     1      46.100   3.118   7.380  0.00  0.00    +0.000 C 
ATOM     13  C   UNL     1      47.292   2.463   6.707  0.00  0.00    +0.000 C 
ATOM     14  C   UNL     1      47.218   1.006   7.140  0.00  0.00    +0.000 C 
ATOM     15  N   UNL     1      46.210   0.929   8.202  0.00  0.00    +0.000 NA
ATOM     16  H   UNL     1      46.557   0.362   8.974  0.00  0.00    +0.000 HD
ENDBRANCH  10  11
ENDBRANCH   8  10
ENDBRANCH   5   8
ENDBRANCH   1   2
BRANCH   1  19
ATOM     17  C   UNL     1      48.080   8.066  13.328  0.00  0.00    +0.000 C 
ATOM     18  O   UNL     1      48.315   8.144  12.126  0.00  0.00    +0.000 OA
ATOM     19  N   UNL     1      46.798   8.002  13.801  0.00  0.00    +0.000 N 
ATOM     20  H   UNL     1      46.625   7.896  14.790  0.00  0.00    +0.000 HD
BRANCH  17  28
ATOM     21  C   UNL     1      48.989   5.820  15.777  0.00  0.00    +0.000 A 
ATOM     22  N   UNL     1      49.565   5.120  16.773  0.00  0.00    +0.000 NA
ATOM     23  C   UNL     1      50.648   5.637  17.358  0.00  0.00    +0.000 A 
ATOM     24  N   UNL     1      51.240   6.794  17.071  0.00  0.00    +0.000 NA
ATOM     25  C   UNL     1      50.639   7.455  16.066  0.00  0.00    +0.000 A 
ATOM     26  S   UNL     1      51.258   8.953  15.563  0.00  0.00    +0.000 S 
ATOM     27  C   UNL     1      50.056   9.106  14.370  0.00  0.00    +0.000 A 
ATOM     28  C   UNL     1      49.168   8.037  14.325  0.00  0.00    +0.000 A 
ATOM     29  C   UNL     1      49.518   7.052  15.349  0.00  0.00    +0.000 A 
BRANCH  21  31
ATOM     30  C   UNL     1      47.202   4.320  15.959  0.00  0.00    +0.000 C 
ATOM     31  O   UNL     1      47.889   5.271  15.153  0.00  0.00    +0.000 OA
ENDBRANCH  21  31
ENDBRANCH  17  28
ENDBRANCH   1  19
TORSDOF 7
ENDMDL
MODEL 3
REMARK VINA RESULT:    -7.200      1.716      2.191
REMARK INTER + INTRA:         -11.286
REMARK INTER:                 -10.472
REMARK INTRA:                  -0.814
REMARK UNBOUND:                -1.140
REMARK  Name = 
REMARK  8 active torsions:
REMARK  status: ('A' for Active; 'I' for Inactive)
REMARK    1  A    between atoms: C_1  and  O_2
REMARK    2  A    between atoms: O_2  and  C_3
REMARK    3  A    between atoms: C_10  and  C_11
REMARK    4  A    between atoms: N_13  and  C_14
REMARK    5  A    between atoms: C_14  and  C_15
REMARK    6  A    between atoms: C_18  and  N_19
REMARK    7  A    between atoms: N_19  and  C_20
REMARK    8  A    between atoms: C_20  and  C_21
REMARK                            x       y       z     vdW  Elec       q    Type
REMARK                         _______ _______ _______ _____ _____    ______ ____
ROOT
ATOM      1  C   UNL     1      47.517   7.379  13.228  0.00  0.00    +0.000 C 
ENDROOT
BRANCH   1   2
ATOM      2  C   UNL     1      46.723   6.202  12.719  0.00  0.00    +0.000 A 
ATOM      3  C   UNL     1      46.782   4.960  13.363  0.00  0.00    +0.000 A 
ATOM      4  C   UNL     1      46.027   3.869  12.901  0.00  0.00    +0.000 A 
ATOM      5  C   UNL     1      45.227   3.967  11.760  0.00  0.00    +0.000 A 
ATOM      6  C   UNL     1      45.187   5.211  11.112  0.00  0.00    +0.000 A 
ATOM      7  C   UNL     1      45.925   6.312  11.576  0.00  0.00    +0.000 A 
BRANCH   5   8
ATOM      8  N   UNL     1      44.385   2.953  11.296  0.00  0.00    +0.000 N 
ATOM      9  H   UNL     1      43.512   2.923  11.818  0.00  0.00    +0.000 HD
BRANCH   8  10
ATOM     10  C   UNL     1      44.190   2.715   9.863  0.00  0.00    +0.000 C 
BRANCH  10  11
ATOM     11  C   UNL     1      45.552   2.495   9.162  0.00  0.00    +0.000 C 
ATOM     12  C   UNL     1      45.700   3.304   7.881  0.00  0.00    +0.000 C 
ATOM     13  C   UNL     1      46.852   2.610   7.178  0.00  0.00    +0.000 C 
ATOM     14  C   UNL     1      46.734   1.155   7.605  0.00  0.00    +0.000 C 
ATOM     15  N   UNL     1      45.749   1.109   8.690  0.00  0.00    +0.000 NA
ATOM     16  H   UNL     1      46.091   0.525   9.451  0.00  0.00    +0.000 HD
ENDBRANCH  10  11
ENDBRANCH   8  10
ENDBRANCH   5   8
ENDBRANCH   1   2
BRANCH   1  19
ATOM     17  C   UNL     1      48.780   7.052  15.322  0.00  0.00    +0.000 C 
ATOM     18  O   UNL     1      49.806   6.776  14.708  0.00  0.00    +0.000 OA
ATOM     19  N   UNL     1      47.618   7.357  14.668  0.00  0.00    +0.000 N 
ATOM     20  H   UNL     1      46.773   7.541  15.190  0.00  0.00    +0.000 HD
BRANCH  17  28
ATOM     21  C   UNL     1      48.739   4.574  17.716  0.00  0.00    +0.000 A 
ATOM     22  N   UNL     1      48.736   3.824  18.836  0.00  0.00    +0.000 NA
ATOM     23  C   UNL     1      48.712   4.455  20.012  0.00  0.00    +0.000 A 
ATOM     24  N   UNL     1      48.685   5.769  20.218  0.00  0.00    +0.000 NA
ATOM     25  C   UNL     1      48.697   6.479  19.075  0.00  0.00    +0.000 A 
ATOM     26  S   UNL     1      48.666   8.175  19.145  0.00  0.00    +0.000 S 
ATOM     27  C   UNL     1      48.706   8.294  17.449  0.00  0.00    +0.000 A 
ATOM     28  C   UNL     1      48.746   7.066  16.798  0.00  0.00    +0.000 A 
ATOM     29  C   UNL     1      48.734   5.980  17.778  0.00  0.00    +0.000 A 
BRANCH  21  31
ATOM     30  C   UNL     1      48.654   2.511  16.615  0.00  0.00    +0.000 C 
ATOM     31  O   UNL     1      48.794   3.923  16.502  0.00  0.00    +0.000 OA
ENDBRANCH  21  31
ENDBRANCH  17  28
ENDBRANCH   1  19
TORSDOF 7
ENDMDL
MODEL 4
REMARK VINA RESULT:    -7.188      2.014      3.516
REMARK INTER + INTRA:         -11.270
REMARK INTER:                 -10.190
REMARK INTRA:                  -1.080
REMARK UNBOUND:                -1.140
REMARK  Name = 
REMARK  8 active torsions:
REMARK  status: ('A' for Active; 'I' for Inactive)
REMARK    1  A    between atoms: C_1  and  O_2
REMARK    2  A    between atoms: O_2  and  C_3
REMARK    3  A    between atoms: C_10  and  C_11
REMARK    4  A    between atoms: N_13  and  C_14
REMARK    5  A    between atoms: C_14  and  C_15
REMARK    6  A    between atoms: C_18  and  N_19
REMARK    7  A    between atoms: N_19  and  C_20
REMARK    8  A    between atoms: C_20  and  C_21
REMARK                            x       y       z     vdW  Elec       q    Type
REMARK                         _______ _______ _______ _____ _____    ______ ____
ROOT
ATOM      1  C   UNL     1      46.629   4.323  14.516  0.00  0.00    +0.000 C 
ENDROOT
BRANCH   1   2
ATOM      2  C   UNL     1      46.113   4.495  13.108  0.00  0.00    +0.000 A 
ATOM      3  C   UNL     1      46.340   5.680  12.398  0.00  0.00    +0.000 A 
ATOM      4  C   UNL     1      45.877   5.833  11.080  0.00  0.00    +0.000 A 
ATOM      5  C   UNL     1      45.136   4.832  10.447  0.00  0.00    +0.000 A 
ATOM      6  C   UNL     1      44.900   3.654  11.173  0.00  0.00    +0.000 A 
ATOM      7  C   UNL     1      45.373   3.486  12.484  0.00  0.00    +0.000 A 
BRANCH   5   8
ATOM      8  N   UNL     1      44.721   4.880   9.114  0.00  0.00    +0.000 N 
ATOM      9  H   UNL     1      45.147   5.659   8.616  0.00  0.00    +0.000 HD
BRANCH   8  10
ATOM     10  C   UNL     1      44.639   3.668   8.292  0.00  0.00    +0.000 C 
BRANCH  10  11
ATOM     11  C   UNL     1      46.056   3.145   7.958  0.00  0.00    +0.000 C 
ATOM     12  C   UNL     1      46.436   3.346   6.498  0.00  0.00    +0.000 C 
ATOM     13  C   UNL     1      47.607   2.396   6.324  0.00  0.00    +0.000 C 
ATOM     14  C   UNL     1      47.313   1.253   7.284  0.00  0.00    +0.000 C 
ATOM     15  N   UNL     1      46.195   1.685   8.129  0.00  0.00    +0.000 NA
ATOM     16  H   UNL     1      46.386   1.462   9.104  0.00  0.00    +0.000 HD
ENDBRANCH  10  11
ENDBRANCH   8  10
ENDBRANCH   5   8
ENDBRANCH   1   2
BRANCH   1  19
ATOM     17  C   UNL     1      48.305   5.447  15.934  0.00  0.00    +0.000 C 
ATOM     18  O   UNL     1      48.591   4.397  16.500  0.00  0.00    +0.000 OA
ATOM     19  N   UNL     1      47.353   5.493  14.952  0.00  0.00    +0.000 N 
ATOM     20  H   UNL     1      47.102   6.374  14.527  0.00  0.00    +0.000 HD
BRANCH  17  28
ATOM     21  C   UNL     1      49.970   7.838  14.095  0.00  0.00    +0.000 A 
ATOM     22  N   UNL     1      50.636   8.911  13.626  0.00  0.00    +0.000 NA
ATOM     23  C   UNL     1      51.018   9.844  14.502  0.00  0.00    +0.000 A 
ATOM     24  N   UNL     1      50.818   9.840  15.817  0.00  0.00    +0.000 NA
ATOM     25  C   UNL     1      50.142   8.757  16.241  0.00  0.00    +0.000 A 
ATOM     26  S   UNL     1      49.795   8.582  17.894  0.00  0.00    +0.000 S 
ATOM     27  C   UNL     1      48.996   7.106  17.620  0.00  0.00    +0.000 A 
ATOM     28  C   UNL     1      48.971   6.717  16.286  0.00  0.00    +0.000 A 
ATOM     29  C   UNL     1      49.666   7.707  15.463  0.00  0.00    +0.000 A 
BRANCH  21  31
ATOM     30  C   UNL     1      49.573   7.353  11.840  0.00  0.00    +0.000 C 
ATOM     31  O   UNL     1      49.549   6.890  13.187  0.00  0.00    +0.000 OA
ENDBRANCH  21  31
ENDBRANCH  17  28
ENDBRANCH   1  19
TORSDOF 7
ENDMDL
MODEL 5
REMARK VINA RESULT:    -7.180      2.191      3.032
REMARK INTER + INTRA:         -11.258
REMARK INTER:                 -10.398
REMARK INTRA:                  -0.860
REMARK UNBOUND:                -1.140
REMARK  Name = 
REMARK  8 active torsions:
REMARK  status: ('A' for Active; 'I' for Inactive)
REMARK    1  A    between atoms: C_1  and  O_2
REMARK    2  A    between atoms: O_2  and  C_3
REMARK    3  A    between atoms: C_10  and  C_11
REMARK    4  A    between atoms: N_13  and  C_14
REMARK    5  A    between atoms: C_14  and  C_15
REMARK    6  A    between atoms: C_18  and  N_19
REMARK    7  A    between atoms: N_19  and  C_20
REMARK    8  A    between atoms: C_20  and  C_21
REMARK                            x       y       z     vdW  Elec       q    Type
REMARK                         _______ _______ _______ _____ _____    ______ ____
ROOT
ATOM      1  C   UNL     1      47.430   6.544  13.472  0.00  0.00    +0.000 C 
ENDROOT
BRANCH   1   2
ATOM      2  C   UNL     1      46.544   5.758  12.538  0.00  0.00    +0.000 A 
ATOM      3  C   UNL     1      46.206   6.259  11.275  0.00  0.00    +0.000 A 
ATOM      4  C   UNL     1      45.396   5.518  10.396  0.00  0.00    +0.000 A 
ATOM      5  C   UNL     1      44.864   4.280  10.765  0.00  0.00    +0.000 A 
ATOM      6  C   UNL     1      45.194   3.795  12.039  0.00  0.00    +0.000 A 
ATOM      7  C   UNL     1      46.016   4.520  12.916  0.00  0.00    +0.000 A 
BRANCH   5   8
ATOM      8  N   UNL     1      44.126   3.453   9.914  0.00  0.00    +0.000 N 
ATOM      9  H   UNL     1      43.697   3.981   9.156  0.00  0.00    +0.000 HD
BRANCH   8  10
ATOM     10  C   UNL     1      44.643   2.155   9.469  0.00  0.00    +0.000 C 
BRANCH  10  11
ATOM     11  C   UNL     1      45.927   2.346   8.625  0.00  0.00    +0.000 C 
ATOM     12  C   UNL     1      45.705   3.207   7.390  0.00  0.00    +0.000 C 
ATOM     13  C   UNL     1      46.916   2.885   6.536  0.00  0.00    +0.000 C 
ATOM     14  C   UNL     1      47.248   1.440   6.879  0.00  0.00    +0.000 C 
ATOM     15  N   UNL     1      46.440   1.086   8.050  0.00  0.00    +0.000 NA
ATOM     16  H   UNL     1      47.011   0.594   8.735  0.00  0.00    +0.000 HD
ENDBRANCH  10  11
ENDBRANCH   8  10
ENDBRANCH   5   8
ENDBRANCH   1   2
BRANCH   1  19
ATOM     17  C   UNL     1      48.620   6.001  15.564  0.00  0.00    +0.000 C 
ATOM     18  O   UNL     1      49.615   6.624  15.208  0.00  0.00    +0.000 OA
ATOM     19  N   UNL     1      47.510   5.914  14.769  0.00  0.00    +0.000 N 
ATOM     20  H   UNL     1      46.716   5.363  15.061  0.00  0.00    +0.000 HD
BRANCH  17  28
ATOM     21  C   UNL     1      48.747   7.091  18.829  0.00  0.00    +0.000 A 
ATOM     22  N   UNL     1      48.754   7.242  20.168  0.00  0.00    +0.000 NA
ATOM     23  C   UNL     1      48.656   6.145  20.923  0.00  0.00    +0.000 A 
ATOM     24  N   UNL     1      48.555   4.887  20.501  0.00  0.00    +0.000 NA
ATOM     25  C   UNL     1      48.543   4.783  19.160  0.00  0.00    +0.000 A 
ATOM     26  S   UNL     1      48.420   3.250  18.442  0.00  0.00    +0.000 S 
ATOM     27  C   UNL     1      48.464   3.924  16.881  0.00  0.00    +0.000 A 
ATOM     28  C   UNL     1      48.570   5.310  16.868  0.00  0.00    +0.000 A 
ATOM     29  C   UNL     1      48.624   5.821  18.237  0.00  0.00    +0.000 A 
BRANCH  21  31
ATOM     30  C   UNL     1      47.782   9.164  18.329  0.00  0.00    +0.000 C 
ATOM     31  O   UNL     1      48.817   8.227  18.050  0.00  0.00    +0.000 OA
ENDBRANCH  21  31
ENDBRANCH  17  28
ENDBRANCH   1  19
TORSDOF 7
ENDMDL
MODEL 6
REMARK VINA RESULT:    -6.911      2.358      3.325
REMARK INTER + INTRA:         -10.879
REMARK INTER:                 -10.069
REMARK INTRA:                  -0.810
REMARK UNBOUND:                -1.140
REMARK  Name = 
REMARK  8 active torsions:
REMARK  status: ('A' for Active; 'I' for Inactive)
REMARK    1  A    between atoms: C_1  and  O_2
REMARK    2  A    between atoms: O_2  and  C_3
REMARK    3  A    between atoms: C_10  and  C_11
REMARK    4  A    between atoms: N_13  and  C_14
REMARK    5  A    between atoms: C_14  and  C_15
REMARK    6  A    between atoms: C_18  and  N_19
REMARK    7  A    between atoms: N_19  and  C_20
REMARK    8  A    between atoms: C_20  and  C_21
REMARK                            x       y       z     vdW  Elec       q    Type
REMARK                         _______ _______ _______ _____ _____    ______ ____
ROOT
ATOM      1  C   UNL     1      46.378   4.393  14.390  0.00  0.00    +0.000 C 
ENDROOT
BRANCH   1   2
ATOM      2  C   UNL     1      45.931   4.437  12.949  0.00  0.00    +0.000 A 
ATOM      3  C   UNL     1      45.319   3.329  12.351  0.00  0.00    +0.000 A 
ATOM      4  C   UNL     1      44.885   3.376  11.015  0.00  0.00    +0.000 A 
ATOM      5  C   UNL     1      45.086   4.510  10.223  0.00  0.00    +0.000 A 
ATOM      6  C   UNL     1      45.716   5.609  10.827  0.00  0.00    +0.000 A 
ATOM      7  C   UNL     1      46.137   5.577  12.165  0.00  0.00    +0.000 A 
BRANCH   5   8
ATOM      8  N   UNL     1      44.605   4.658   8.920  0.00  0.00    +0.000 N 
ATOM      9  H   UNL     1      44.908   5.536   8.506  0.00  0.00    +0.000 HD
BRANCH   8  10
ATOM     10  C   UNL     1      44.632   3.548   7.962  0.00  0.00    +0.000 C 
BRANCH  10  11
ATOM     11  C   UNL     1      46.090   3.112   7.682  0.00  0.00    +0.000 C 
ATOM     12  C   UNL     1      46.452   3.155   6.204  0.00  0.00    +0.000 C 
ATOM     13  C   UNL     1      47.701   2.297   6.141  0.00  0.00    +0.000 C 
ATOM     14  C   UNL     1      47.508   1.265   7.242  0.00  0.00    +0.000 C 
ATOM     15  N   UNL     1      46.357   1.703   8.037  0.00  0.00    +0.000 NA
ATOM     16  H   UNL     1      46.566   1.625   9.031  0.00  0.00    +0.000 HD
ENDBRANCH  10  11
ENDBRANCH   8  10
ENDBRANCH   5   8
ENDBRANCH   1   2
BRANCH   1  19
ATOM     17  C   UNL     1      48.169   5.515  15.661  0.00  0.00    +0.000 C 
ATOM     18  O   UNL     1      48.439   4.485  16.269  0.00  0.00    +0.000 OA
ATOM     19  N   UNL     1      47.172   5.551  14.725  0.00  0.00    +0.000 N 
ATOM     20  H   UNL     1      46.937   6.418  14.265  0.00  0.00    +0.000 HD
BRANCH  17  28
ATOM     21  C   UNL     1      48.468   7.587  18.398  0.00  0.00    +0.000 A 
ATOM     22  N   UNL     1      48.769   8.539  19.302  0.00  0.00    +0.000 NA
ATOM     23  C   UNL     1      49.582   9.528  18.924  0.00  0.00    +0.000 A 
ATOM     24  N   UNL     1      50.143   9.693  17.728  0.00  0.00    +0.000 NA
ATOM     25  C   UNL     1      49.823   8.717  16.860  0.00  0.00    +0.000 A 
ATOM     26  S   UNL     1      50.448   8.764  15.282  0.00  0.00    +0.000 S 
ATOM     27  C   UNL     1      49.653   7.317  14.871  0.00  0.00    +0.000 A 
ATOM     28  C   UNL     1      48.905   6.771  15.909  0.00  0.00    +0.000 A 
ATOM     29  C   UNL     1      49.005   7.618  17.098  0.00  0.00    +0.000 A 
BRANCH  21  31
ATOM     30  C   UNL     1      48.293   5.645  19.693  0.00  0.00    +0.000 C 
ATOM     31  O   UNL     1      47.653   6.549  18.798  0.00  0.00    +0.000 OA
ENDBRANCH  21  31
ENDBRANCH  17  28
ENDBRANCH   1  19
TORSDOF 7
ENDMDL
MODEL 7
REMARK VINA RESULT:    -6.728      3.006      3.969
REMARK INTER + INTRA:         -10.622
REMARK INTER:                  -9.543
REMARK INTRA:                  -1.078
REMARK UNBOUND:                -1.140
REMARK  Name = 
REMARK  8 active torsions:
REMARK  status: ('A' for Active; 'I' for Inactive)
REMARK    1  A    between atoms: C_1  and  O_2
REMARK    2  A    between atoms: O_2  and  C_3
REMARK    3  A    between atoms: C_10  and  C_11
REMARK    4  A    between atoms: N_13  and  C_14
REMARK    5  A    between atoms: C_14  and  C_15
REMARK    6  A    between atoms: C_18  and  N_19
REMARK    7  A    between atoms: N_19  and  C_20
REMARK    8  A    between atoms: C_20  and  C_21
REMARK                            x       y       z     vdW  Elec       q    Type
REMARK                         _______ _______ _______ _____ _____    ______ ____
ROOT
ATOM      1  C   UNL     1      48.600   6.650  14.285  0.00  0.00    +0.000 C 
ENDROOT
BRANCH   1   2
ATOM      2  C   UNL     1      47.401   6.224  13.474  0.00  0.00    +0.000 A 
ATOM      3  C   UNL     1      46.607   5.143  13.876  0.00  0.00    +0.000 A 
ATOM      4  C   UNL     1      45.479   4.758  13.132  0.00  0.00    +0.000 A 
ATOM      5  C   UNL     1      45.134   5.407  11.943  0.00  0.00    +0.000 A 
ATOM      6  C   UNL     1      45.946   6.478  11.540  0.00  0.00    +0.000 A 
ATOM      7  C   UNL     1      47.065   6.880  12.286  0.00  0.00    +0.000 A 
BRANCH   5   8
ATOM      8  N   UNL     1      43.982   5.136  11.201  0.00  0.00    +0.000 N 
ATOM      9  H   UNL     1      43.750   5.903  10.574  0.00  0.00    +0.000 HD
BRANCH   8  10
ATOM     10  C   UNL     1      43.757   3.823  10.587  0.00  0.00    +0.000 C 
BRANCH  10  11
ATOM     11  C   UNL     1      44.993   3.394   9.762  0.00  0.00    +0.000 C 
ATOM     12  C   UNL     1      45.007   3.986   8.359  0.00  0.00    +0.000 C 
ATOM     13  C   UNL     1      46.009   3.106   7.635  0.00  0.00    +0.000 C 
ATOM     14  C   UNL     1      45.871   1.746   8.303  0.00  0.00    +0.000 C 
ATOM     15  N   UNL     1      45.045   1.942   9.498  0.00  0.00    +0.000 NA
ATOM     16  H   UNL     1      45.456   1.456  10.293  0.00  0.00    +0.000 HD
ENDBRANCH  10  11
ENDBRANCH   8  10
ENDBRANCH   5   8
ENDBRANCH   1   2
BRANCH   1  19
ATOM     17  C   UNL     1      48.904   6.203  16.692  0.00  0.00    +0.000 C 
ATOM     18  O   UNL     1      49.829   5.428  16.473  0.00  0.00    +0.000 OA
ATOM     19  N   UNL     1      48.250   6.840  15.673  0.00  0.00    +0.000 N 
ATOM     20  H   UNL     1      47.464   7.442  15.870  0.00  0.00    +0.000 HD
BRANCH  17  28
ATOM     21  C   UNL     1      47.827   9.059  18.290  0.00  0.00    +0.000 A 
ATOM     22  N   UNL     1      47.360  10.000  19.134  0.00  0.00    +0.000 NA
ATOM     23  C   UNL     1      47.073   9.631  20.385  0.00  0.00    +0.000 A 
ATOM     24  N   UNL     1      47.199   8.417  20.913  0.00  0.00    +0.000 NA
ATOM     25  C   UNL     1      47.659   7.508  20.034  0.00  0.00    +0.000 A 
ATOM     26  S   UNL     1      47.883   5.901  20.533  0.00  0.00    +0.000 S 
ATOM     27  C   UNL     1      48.425   5.444  18.987  0.00  0.00    +0.000 A 
ATOM     28  C   UNL     1      48.446   6.487  18.067  0.00  0.00    +0.000 A 
ATOM     29  C   UNL     1      47.992   7.724  18.701  0.00  0.00    +0.000 A 
BRANCH  21  31
ATOM     30  C   UNL     1      48.881  10.617  16.897  0.00  0.00    +0.000 C 
ATOM     31  O   UNL     1      48.095   9.433  16.990  0.00  0.00    +0.000 OA
ENDBRANCH  21  31
ENDBRANCH  17  28
ENDBRANCH   1  19
TORSDOF 7
ENDMDL
MODEL 8
REMARK VINA RESULT:    -6.613      2.474      3.967
REMARK INTER + INTRA:         -10.458
REMARK INTER:                  -9.359
REMARK INTRA:                  -1.099
REMARK UNBOUND:                -1.140
REMARK  Name = 
REMARK  8 active torsions:
REMARK  status: ('A' for Active; 'I' for Inactive)
REMARK    1  A    between atoms: C_1  and  O_2
REMARK    2  A    between atoms: O_2  and  C_3
REMARK    3  A    between atoms: C_10  and  C_11
REMARK    4  A    between atoms: N_13  and  C_14
REMARK    5  A    between atoms: C_14  and  C_15
REMARK    6  A    between atoms: C_18  and  N_19
REMARK    7  A    between atoms: N_19  and  C_20
REMARK    8  A    between atoms: C_20  and  C_21
REMARK                            x       y       z     vdW  Elec       q    Type
REMARK                         _______ _______ _______ _____ _____    ______ ____
ROOT
ATOM      1  C   UNL     1      47.462   3.994  15.272  0.00  0.00    +0.000 C 
ENDROOT
BRANCH   1   2
ATOM      2  C   UNL     1      46.802   4.328  13.957  0.00  0.00    +0.000 A 
ATOM      3  C   UNL     1      46.029   3.379  13.278  0.00  0.00    +0.000 A 
ATOM      4  C   UNL     1      45.397   3.696  12.063  0.00  0.00    +0.000 A 
ATOM      5  C   UNL     1      45.552   4.950  11.467  0.00  0.00    +0.000 A 
ATOM      6  C   UNL     1      46.343   5.889  12.147  0.00  0.00    +0.000 A 
ATOM      7  C   UNL     1      46.963   5.586  13.369  0.00  0.00    +0.000 A 
BRANCH   5   8
ATOM      8  N   UNL     1      44.886   5.362  10.309  0.00  0.00    +0.000 N 
ATOM      9  H   UNL     1      45.495   5.901   9.698  0.00  0.00    +0.000 HD
BRANCH   8  10
ATOM     10  C   UNL     1      44.010   4.452   9.565  0.00  0.00    +0.000 C 
BRANCH  10  11
ATOM     11  C   UNL     1      44.760   3.850   8.353  0.00  0.00    +0.000 C 
ATOM     12  C   UNL     1      45.372   2.488   8.650  0.00  0.00    +0.000 C 
ATOM     13  C   UNL     1      46.382   2.324   7.530  0.00  0.00    +0.000 C 
ATOM     14  C   UNL     1      46.840   3.742   7.223  0.00  0.00    +0.000 C 
ATOM     15  N   UNL     1      45.934   4.645   7.939  0.00  0.00    +0.000 NA
ATOM     16  H   UNL     1      45.643   5.407   7.329  0.00  0.00    +0.000 HD
ENDBRANCH  10  11
ENDBRANCH   8  10
ENDBRANCH   5   8
ENDBRANCH   1   2
BRANCH   1  19
ATOM     17  C   UNL     1      48.644   5.531  16.797  0.00  0.00    +0.000 C 
ATOM     18  O   UNL     1      49.694   4.908  16.677  0.00  0.00    +0.000 OA
ATOM     19  N   UNL     1      47.507   5.145  16.141  0.00  0.00    +0.000 N 
ATOM     20  H   UNL     1      46.642   5.647  16.284  0.00  0.00    +0.000 HD
BRANCH  17  28
ATOM     21  C   UNL     1      48.739   8.916  16.161  0.00  0.00    +0.000 A 
ATOM     22  N   UNL     1      48.726  10.263  16.193  0.00  0.00    +0.000 NA
ATOM     23  C   UNL     1      48.587  10.861  17.379  0.00  0.00    +0.000 A 
ATOM     24  N   UNL     1      48.462  10.271  18.565  0.00  0.00    +0.000 NA
ATOM     25  C   UNL     1      48.472   8.928  18.487  0.00  0.00    +0.000 A 
ATOM     26  S   UNL     1      48.323   8.007  19.904  0.00  0.00    +0.000 S 
ATOM     27  C   UNL     1      48.412   6.552  19.028  0.00  0.00    +0.000 A 
ATOM     28  C   UNL     1      48.553   6.729  17.655  0.00  0.00    +0.000 A 
ATOM     29  C   UNL     1      48.595   8.156  17.336  0.00  0.00    +0.000 A 
BRANCH  21  31
ATOM     30  C   UNL     1      50.202   8.071  14.542  0.00  0.00    +0.000 C 
ATOM     31  O   UNL     1      48.852   8.299  14.933  0.00  0.00    +0.000 OA
ENDBRANCH  21  31
ENDBRANCH  17  28
ENDBRANCH   1  19
TORSDOF 7
ENDMDL
MODEL 9
REMARK VINA RESULT:    -6.440      2.415      3.520
REMARK INTER + INTRA:         -10.215
REMARK INTER:                  -9.200
REMARK INTRA:                  -1.015
REMARK UNBOUND:                -1.140
REMARK  Name = 
REMARK  8 active torsions:
REMARK  status: ('A' for Active; 'I' for Inactive)
REMARK    1  A    between atoms: C_1  and  O_2
REMARK    2  A    between atoms: O_2  and  C_3
REMARK    3  A    between atoms: C_10  and  C_11
REMARK    4  A    between atoms: N_13  and  C_14
REMARK    5  A    between atoms: C_14  and  C_15
REMARK    6  A    between atoms: C_18  and  N_19
REMARK    7  A    between atoms: N_19  and  C_20
REMARK    8  A    between atoms: C_20  and  C_21
REMARK                            x       y       z     vdW  Elec       q    Type
REMARK                         _______ _______ _______ _____ _____    ______ ____
ROOT
ATOM      1  C   UNL     1      48.755   7.948  15.362  0.00  0.00    +0.000 C 
ENDROOT
BRANCH   1   2
ATOM      2  C   UNL     1      48.032   7.438  14.139  0.00  0.00    +0.000 A 
ATOM      3  C   UNL     1      47.479   6.152  14.114  0.00  0.00    +0.000 A 
ATOM      4  C   UNL     1      46.789   5.684  12.983  0.00  0.00    +0.000 A 
ATOM      5  C   UNL     1      46.668   6.463  11.829  0.00  0.00    +0.000 A 
ATOM      6  C   UNL     1      47.240   7.744  11.858  0.00  0.00    +0.000 A 
ATOM      7  C   UNL     1      47.917   8.226  12.990  0.00  0.00    +0.000 A 
BRANCH   5   8
ATOM      8  N   UNL     1      45.924   6.098  10.704  0.00  0.00    +0.000 N 
ATOM      9  H   UNL     1      46.521   5.922   9.900  0.00  0.00    +0.000 HD
BRANCH   8  10
ATOM     10  C   UNL     1      44.814   5.144  10.796  0.00  0.00    +0.000 C 
BRANCH  10  11
ATOM     11  C   UNL     1      44.742   4.274   9.518  0.00  0.00    +0.000 C 
ATOM     12  C   UNL     1      45.238   2.851   9.738  0.00  0.00    +0.000 C 
ATOM     13  C   UNL     1      45.490   2.363   8.324  0.00  0.00    +0.000 C 
ATOM     14  C   UNL     1      45.900   3.612   7.559  0.00  0.00    +0.000 C 
ATOM     15  N   UNL     1      45.622   4.756   8.434  0.00  0.00    +0.000 NA
ATOM     16  H   UNL     1      45.158   5.495   7.908  0.00  0.00    +0.000 HD
ENDBRANCH  10  11
ENDBRANCH   8  10
ENDBRANCH   5   8
ENDBRANCH   1   2
BRANCH   1  19
ATOM     17  C   UNL     1      49.607   6.398  17.081  0.00  0.00    +0.000 C 
ATOM     18  O   UNL     1      48.690   6.679  17.847  0.00  0.00    +0.000 OA
ATOM     19  N   UNL     1      49.708   6.978  15.847  0.00  0.00    +0.000 N 
ATOM     20  H   UNL     1      50.492   6.765  15.247  0.00  0.00    +0.000 HD
BRANCH  17  28
ATOM     21  C   UNL     1      49.812   2.964  16.892  0.00  0.00    +0.000 A 
ATOM     22  N   UNL     1      50.158   1.662  16.916  0.00  0.00    +0.000 NA
ATOM     23  C   UNL     1      51.358   1.341  17.404  0.00  0.00    +0.000 A 
ATOM     24  N   UNL     1      52.277   2.174  17.886  0.00  0.00    +0.000 NA
ATOM     25  C   UNL     1      51.895   3.462  17.836  0.00  0.00    +0.000 A 
ATOM     26  S   UNL     1      52.943   4.668  18.410  0.00  0.00    +0.000 S 
ATOM     27  C   UNL     1      51.827   5.892  18.023  0.00  0.00    +0.000 A 
ATOM     28  C   UNL     1      50.649   5.421  17.454  0.00  0.00    +0.000 A 
ATOM     29  C   UNL     1      50.691   3.962  17.350  0.00  0.00    +0.000 A 
BRANCH  21  31
ATOM     30  C   UNL     1      47.530   3.261  17.317  0.00  0.00    +0.000 C 
ATOM     31  O   UNL     1      48.584   3.297  16.361  0.00  0.00    +0.000 OA
ENDBRANCH  21  31
ENDBRANCH  17  28
ENDBRANCH   1  19
TORSDOF 7
ENDMDL
