MODEL 1
REMARK VINA RESULT:    -8.096      0.000      0.000
REMARK INTER + INTRA:         -13.134
REMARK INTER:                 -11.883
REMARK INTRA:                  -1.251
REMARK UNBOUND:                -1.251
REMARK  Name = 
REMARK  9 active torsions:
REMARK  status: ('A' for Active; 'I' for Inactive)
REMARK    1  A    between atoms: C_1  and  C_2
REMARK    2  A    between atoms: C_2  and  C_3
REMARK    3  A    between atoms: C_3  and  N_4
REMARK    4  A    between atoms: C_3  and  C_26
REMARK    5  A    between atoms: N_4  and  C_5
REMARK    6  A    between atoms: C_5  and  C_6
REMARK    7  A    between atoms: C_9  and  C_10
REMARK    8  A    between atoms: C_10  and  N_11
REMARK    9  A    between atoms: C_12  and  C_14
REMARK                            x       y       z     vdW  Elec       q    Type
REMARK                         _______ _______ _______ _____ _____    ______ ____
ROOT
ATOM      1  C   UNL     1      44.997   6.367  11.088  0.00  0.00    +0.000 A 
ATOM      2  C   UNL     1      46.386   6.190  10.994  0.00  0.00    +0.000 A 
ATOM      3  C   UNL     1      47.252   6.879  11.846  0.00  0.00    +0.000 A 
ATOM      4  C   UNL     1      46.747   7.769  12.801  0.00  0.00    +0.000 A 
ATOM      5  C   UNL     1      45.367   7.995  12.855  0.00  0.00    +0.000 A 
ATOM      6  C   UNL     1      44.500   7.295  12.014  0.00  0.00    +0.000 A 
ENDROOT
BRANCH   1   7
ATOM      7  C   UNL     1      44.050   5.592  10.196  0.00  0.00    +0.000 C 
BRANCH   7   8
ATOM      8  N   UNL     1      44.780   4.891   9.136  0.00  0.00    +0.000 NA
ATOM      9  H   UNL     1      44.428   5.198   8.235  0.00  0.00    +0.000 HD
BRANCH   8  10
ATOM     10  C   UNL     1      44.676   3.421   9.217  0.00  0.00    +0.000 C 
BRANCH  10  11
ATOM     11  C   UNL     1      45.631   2.705   8.258  0.00  0.00    +0.000 A 
ATOM     12  C   UNL     1      46.217   3.398   7.199  0.00  0.00    +0.000 A 
ATOM     13  C   UNL     1      47.099   2.718   6.362  0.00  0.00    +0.000 A 
ATOM     14  C   UNL     1      47.389   1.381   6.610  0.00  0.00    +0.000 A 
ATOM     15  C   UNL     1      46.783   0.773   7.693  0.00  0.00    +0.000 A 
ATOM     16  N   UNL     1      45.921   1.401   8.517  0.00  0.00    +0.000 NA
ENDBRANCH  10  11
BRANCH  10  18
ATOM     17  C   UNL     1      43.483   2.654  11.388  0.00  0.00    +0.000 C 
ATOM     18  C   UNL     1      44.798   2.827  10.641  0.00  0.00    +0.000 C 
ENDBRANCH  10  18
ENDBRANCH   8  10
ENDBRANCH   7   8
ENDBRANCH   1   7
BRANCH   4  19
ATOM     19  C   UNL     1      47.672   8.498  13.736  0.00  0.00    +0.000 C 
BRANCH  19  20
ATOM     20  N   UNL     1      47.950   7.714  14.910  0.00  0.00    +0.000 N 
ATOM     21  C   UNL     1      49.131   7.032  15.030  0.00  0.00    +0.000 C 
ATOM     22  O   UNL     1      50.013   7.103  14.177  0.00  0.00    +0.000 OA
ATOM     23  H   UNL     1      47.163   7.473  15.505  0.00  0.00    +0.000 HD
BRANCH  21  24
ATOM     24  C   UNL     1      49.320   6.256  16.259  0.00  0.00    +0.000 A 
ATOM     25  C   UNL     1      50.329   6.613  17.142  0.00  0.00    +0.000 A 
ATOM     26  S   UNL     1      50.400   5.628  18.533  0.00  0.00    +0.000 S 
ATOM     27  C   UNL     1      49.112   4.662  17.979  0.00  0.00    +0.000 A 
ATOM     28  N   UNL     1      48.680   3.589  18.701  0.00  0.00    +0.000 NA
ATOM     29  C   UNL     1      47.723   2.928  18.151  0.00  0.00    +0.000 A 
ATOM     30  N   UNL     1      47.144   3.243  16.949  0.00  0.00    +0.000 N 
ATOM     31  C   UNL     1      47.522   4.335  16.201  0.00  0.00    +0.000 A 
ATOM     32  O   UNL     1      46.948   4.621  15.154  0.00  0.00    +0.000 OA
ATOM     33  C   UNL     1      48.617   5.101  16.764  0.00  0.00    +0.000 A 
ATOM     34  H   UNL     1      46.383   2.692  16.578  0.00  0.00    +0.000 HD
ENDBRANCH  21  24
ENDBRANCH  19  20
ENDBRANCH   4  19
TORSDOF 8
ENDMDL
MODEL 2
REMARK VINA RESULT:    -7.284      4.922      9.397
REMARK INTER + INTRA:         -11.943
REMARK INTER:                 -10.483
REMARK INTRA:                  -1.460
REMARK UNBOUND:                -1.251
REMARK  Name = 
REMARK  9 active torsions:
REMARK  status: ('A' for Active; 'I' for Inactive)
REMARK    1  A    between atoms: C_1  and  C_2
REMARK    2  A    between atoms: C_2  and  C_3
REMARK    3  A    between atoms: C_3  and  N_4
REMARK    4  A    between atoms: C_3  and  C_26
REMARK    5  A    between atoms: N_4  and  C_5
REMARK    6  A    between atoms: C_5  and  C_6
REMARK    7  A    between atoms: C_9  and  C_10
REMARK    8  A    between atoms: C_10  and  N_11
REMARK    9  A    between atoms: C_12  and  C_14
REMARK                            x       y       z     vdW  Elec       q    Type
REMARK                         _______ _______ _______ _____ _____    ______ ____
ROOT
ATOM      1  C   UNL     1      51.259   2.501  17.535  0.00  0.00    +0.000 A 
ATOM      2  C   UNL     1      51.836   3.779  17.535  0.00  0.00    +0.000 A 
ATOM      3  C   UNL     1      51.039   4.922  17.436  0.00  0.00    +0.000 A 
ATOM      4  C   UNL     1      49.649   4.808  17.322  0.00  0.00    +0.000 A 
ATOM      5  C   UNL     1      49.076   3.532  17.259  0.00  0.00    +0.000 A 
ATOM      6  C   UNL     1      49.871   2.391  17.373  0.00  0.00    +0.000 A 
ENDROOT
BRANCH   1   7
ATOM      7  C   UNL     1      52.113   1.259  17.685  0.00  0.00    +0.000 C 
BRANCH   7   8
ATOM      8  N   UNL     1      53.149   1.453  18.703  0.00  0.00    +0.000 NA
ATOM      9  H   UNL     1      53.227   2.444  18.909  0.00  0.00    +0.000 HD
BRANCH   8  10
ATOM     10  C   UNL     1      54.475   0.941  18.305  0.00  0.00    +0.000 C 
BRANCH  10  11
ATOM     11  C   UNL     1      54.513  -0.587  18.199  0.00  0.00    +0.000 A 
ATOM     12  C   UNL     1      54.965  -1.200  17.031  0.00  0.00    +0.000 A 
ATOM     13  C   UNL     1      55.008  -2.592  16.981  0.00  0.00    +0.000 A 
ATOM     14  C   UNL     1      54.619  -3.331  18.093  0.00  0.00    +0.000 A 
ATOM     15  C   UNL     1      54.204  -2.646  19.218  0.00  0.00    +0.000 A 
ATOM     16  N   UNL     1      54.146  -1.302  19.296  0.00  0.00    +0.000 NA
ENDBRANCH  10  11
BRANCH  10  18
ATOM     17  C   UNL     1      55.408   3.065  17.148  0.00  0.00    +0.000 C 
ATOM     18  C   UNL     1      55.079   1.584  17.034  0.00  0.00    +0.000 C 
ENDBRANCH  10  18
ENDBRANCH   8  10
ENDBRANCH   7   8
ENDBRANCH   1   7
BRANCH   4  19
ATOM     19  C   UNL     1      48.782   6.034  17.235  0.00  0.00    +0.000 C 
BRANCH  19  20
ATOM     20  N   UNL     1      47.899   5.967  16.102  0.00  0.00    +0.000 N 
ATOM     21  C   UNL     1      48.333   6.332  14.855  0.00  0.00    +0.000 C 
ATOM     22  O   UNL     1      49.495   6.675  14.646  0.00  0.00    +0.000 OA
ATOM     23  H   UNL     1      46.903   5.899  16.291  0.00  0.00    +0.000 HD
BRANCH  21  24
ATOM     24  C   UNL     1      47.358   6.235  13.765  0.00  0.00    +0.000 A 
ATOM     25  C   UNL     1      46.964   7.387  13.099  0.00  0.00    +0.000 A 
ATOM     26  S   UNL     1      45.847   7.102  11.843  0.00  0.00    +0.000 S 
ATOM     27  C   UNL     1      45.817   5.432  12.177  0.00  0.00    +0.000 A 
ATOM     28  N   UNL     1      45.014   4.590  11.467  0.00  0.00    +0.000 NA
ATOM     29  C   UNL     1      45.065   3.362  11.845  0.00  0.00    +0.000 A 
ATOM     30  N   UNL     1      45.854   2.888  12.861  0.00  0.00    +0.000 N 
ATOM     31  C   UNL     1      46.707   3.692  13.582  0.00  0.00    +0.000 A 
ATOM     32  O   UNL     1      47.440   3.228  14.450  0.00  0.00    +0.000 OA
ATOM     33  C   UNL     1      46.669   5.094  13.214  0.00  0.00    +0.000 A 
ATOM     34  H   UNL     1      45.862   1.906  13.099  0.00  0.00    +0.000 HD
ENDBRANCH  21  24
ENDBRANCH  19  20
ENDBRANCH   4  19
TORSDOF 8
ENDMDL
MODEL 3
REMARK VINA RESULT:    -7.158      1.305      1.801
REMARK INTER + INTRA:         -11.757
REMARK INTER:                 -10.555
REMARK INTRA:                  -1.201
REMARK UNBOUND:                -1.251
REMARK  Name = 
REMARK  9 active torsions:
REMARK  status: ('A' for Active; 'I' for Inactive)
REMARK    1  A    between atoms: C_1  and  C_2
REMARK    2  A    between atoms: C_2  and  C_3
REMARK    3  A    between atoms: C_3  and  N_4
REMARK    4  A    between atoms: C_3  and  C_26
REMARK    5  A    between atoms: N_4  and  C_5
REMARK    6  A    between atoms: C_5  and  C_6
REMARK    7  A    between atoms: C_9  and  C_10
REMARK    8  A    between atoms: C_10  and  N_11
REMARK    9  A    between atoms: C_12  and  C_14
REMARK                            x       y       z     vdW  Elec       q    Type
REMARK                         _______ _______ _______ _____ _____    ______ ____
ROOT
ATOM      1  C   UNL     1      45.551   6.645  11.998  0.00  0.00    +0.000 A 
ATOM      2  C   UNL     1      45.746   8.034  12.043  0.00  0.00    +0.000 A 
ATOM      3  C   UNL     1      46.879   8.575  12.655  0.00  0.00    +0.000 A 
ATOM      4  C   UNL     1      47.832   7.739  13.247  0.00  0.00    +0.000 A 
ATOM      5  C   UNL     1      47.609   6.357  13.259  0.00  0.00    +0.000 A 
ATOM      6  C   UNL     1      46.485   5.815  12.633  0.00  0.00    +0.000 A 
ENDROOT
BRANCH   1   7
ATOM      7  C   UNL     1      44.347   6.049  11.298  0.00  0.00    +0.000 C 
BRANCH   7   8
ATOM      8  N   UNL     1      44.724   5.467  10.008  0.00  0.00    +0.000 NA
ATOM      9  H   UNL     1      44.179   5.910   9.274  0.00  0.00    +0.000 HD
BRANCH   8  10
ATOM     10  C   UNL     1      44.526   4.006   9.935  0.00  0.00    +0.000 C 
BRANCH  10  11
ATOM     11  C   UNL     1      45.391   3.343   8.860  0.00  0.00    +0.000 A 
ATOM     12  C   UNL     1      45.605   1.965   8.878  0.00  0.00    +0.000 A 
ATOM     13  C   UNL     1      46.378   1.395   7.869  0.00  0.00    +0.000 A 
ATOM     14  C   UNL     1      46.899   2.203   6.864  0.00  0.00    +0.000 A 
ATOM     15  C   UNL     1      46.623   3.556   6.907  0.00  0.00    +0.000 A 
ATOM     16  N   UNL     1      45.884   4.138   7.872  0.00  0.00    +0.000 NA
ENDBRANCH  10  11
BRANCH  10  18
ATOM     17  C   UNL     1      43.371   2.694  11.850  0.00  0.00    +0.000 C 
ATOM     18  C   UNL     1      44.666   3.252  11.279  0.00  0.00    +0.000 C 
ENDBRANCH  10  18
ENDBRANCH   8  10
ENDBRANCH   7   8
ENDBRANCH   1   7
BRANCH   4  19
ATOM     19  C   UNL     1      49.064   8.313  13.890  0.00  0.00    +0.000 C 
BRANCH  19  20
ATOM     20  N   UNL     1      49.198   7.863  15.251  0.00  0.00    +0.000 N 
ATOM     21  C   UNL     1      50.406   7.426  15.725  0.00  0.00    +0.000 C 
ATOM     22  O   UNL     1      51.423   7.450  15.037  0.00  0.00    +0.000 OA
ATOM     23  H   UNL     1      48.344   7.635  15.752  0.00  0.00    +0.000 HD
BRANCH  21  24
ATOM     24  C   UNL     1      50.441   6.982  17.122  0.00  0.00    +0.000 A 
ATOM     25  C   UNL     1      51.273   7.632  18.023  0.00  0.00    +0.000 A 
ATOM     26  S   UNL     1      51.178   7.013  19.609  0.00  0.00    +0.000 S 
ATOM     27  C   UNL     1      50.056   5.823  19.135  0.00  0.00    +0.000 A 
ATOM     28  N   UNL     1      49.579   4.913  20.030  0.00  0.00    +0.000 NA
ATOM     29  C   UNL     1      48.765   4.052  19.531  0.00  0.00    +0.000 A 
ATOM     30  N   UNL     1      48.368   4.018  18.219  0.00  0.00    +0.000 N 
ATOM     31  C   UNL     1      48.794   4.936  17.286  0.00  0.00    +0.000 A 
ATOM     32  O   UNL     1      48.380   4.911  16.131  0.00  0.00    +0.000 OA
ATOM     33  C   UNL     1      49.737   5.915  17.791  0.00  0.00    +0.000 A 
ATOM     34  H   UNL     1      47.711   3.324  17.892  0.00  0.00    +0.000 HD
ENDBRANCH  21  24
ENDBRANCH  19  20
ENDBRANCH   4  19
TORSDOF 8
ENDMDL
MODEL 4
REMARK VINA RESULT:    -7.019      2.893      8.127
REMARK INTER + INTRA:         -11.553
REMARK INTER:                  -9.946
REMARK INTRA:                  -1.608
REMARK UNBOUND:                -1.251
REMARK  Name = 
REMARK  9 active torsions:
REMARK  status: ('A' for Active; 'I' for Inactive)
REMARK    1  A    between atoms: C_1  and  C_2
REMARK    2  A    between atoms: C_2  and  C_3
REMARK    3  A    between atoms: C_3  and  N_4
REMARK    4  A    between atoms: C_3  and  C_26
REMARK    5  A    between atoms: N_4  and  C_5
REMARK    6  A    between atoms: C_5  and  C_6
REMARK    7  A    between atoms: C_9  and  C_10
REMARK    8  A    between atoms: C_10  and  N_11
REMARK    9  A    between atoms: C_12  and  C_14
REMARK                            x       y       z     vdW  Elec       q    Type
REMARK                         _______ _______ _______ _____ _____    ______ ____
ROOT
ATOM      1  C   UNL     1      49.399   8.347  15.756  0.00  0.00    +0.000 A 
ATOM      2  C   UNL     1      48.298   9.115  15.350  0.00  0.00    +0.000 A 
ATOM      3  C   UNL     1      47.769   8.980  14.065  0.00  0.00    +0.000 A 
ATOM      4  C   UNL     1      48.339   8.083  13.155  0.00  0.00    +0.000 A 
ATOM      5  C   UNL     1      49.476   7.361  13.536  0.00  0.00    +0.000 A 
ATOM      6  C   UNL     1      49.996   7.484  14.826  0.00  0.00    +0.000 A 
ENDROOT
BRANCH   1   7
ATOM      7  C   UNL     1      49.952   8.457  17.162  0.00  0.00    +0.000 C 
BRANCH   7   8
ATOM      8  N   UNL     1      49.914   7.161  17.845  0.00  0.00    +0.000 NA
ATOM      9  H   UNL     1      50.561   6.528  17.386  0.00  0.00    +0.000 HD
BRANCH   8  10
ATOM     10  C   UNL     1      48.574   6.543  17.869  0.00  0.00    +0.000 C 
BRANCH  10  11
ATOM     11  C   UNL     1      48.609   5.039  17.584  0.00  0.00    +0.000 A 
ATOM     12  C   UNL     1      47.424   4.310  17.500  0.00  0.00    +0.000 A 
ATOM     13  C   UNL     1      47.496   2.948  17.215  0.00  0.00    +0.000 A 
ATOM     14  C   UNL     1      48.736   2.355  17.005  0.00  0.00    +0.000 A 
ATOM     15  C   UNL     1      49.861   3.152  17.085  0.00  0.00    +0.000 A 
ATOM     16  N   UNL     1      49.825   4.470  17.364  0.00  0.00    +0.000 NA
ENDBRANCH  10  11
BRANCH  10  18
ATOM     17  C   UNL     1      47.230   8.259  19.273  0.00  0.00    +0.000 C 
ATOM     18  C   UNL     1      47.735   6.831  19.138  0.00  0.00    +0.000 C 
ENDBRANCH  10  18
ENDBRANCH   8  10
ENDBRANCH   7   8
ENDBRANCH   1   7
BRANCH   4  19
ATOM     19  C   UNL     1      47.763   7.917  11.776  0.00  0.00    +0.000 C 
BRANCH  19  20
ATOM     20  N   UNL     1      47.036   6.680  11.661  0.00  0.00    +0.000 N 
ATOM     21  C   UNL     1      45.672   6.657  11.784  0.00  0.00    +0.000 C 
ATOM     22  O   UNL     1      45.016   7.685  11.941  0.00  0.00    +0.000 OA
ATOM     23  H   UNL     1      47.567   5.818  11.751  0.00  0.00    +0.000 HD
BRANCH  21  24
ATOM     24  C   UNL     1      45.023   5.349  11.659  0.00  0.00    +0.000 A 
ATOM     25  C   UNL     1      44.367   4.806  12.755  0.00  0.00    +0.000 A 
ATOM     26  S   UNL     1      43.644   3.295  12.438  0.00  0.00    +0.000 S 
ATOM     27  C   UNL     1      44.222   3.294  10.836  0.00  0.00    +0.000 A 
ATOM     28  N   UNL     1      43.980   2.242  10.005  0.00  0.00    +0.000 NA
ATOM     29  C   UNL     1      44.502   2.357   8.835  0.00  0.00    +0.000 A 
ATOM     30  N   UNL     1      45.238   3.433   8.409  0.00  0.00    +0.000 N 
ATOM     31  C   UNL     1      45.479   4.533   9.199  0.00  0.00    +0.000 A 
ATOM     32  O   UNL     1      46.095   5.504   8.771  0.00  0.00    +0.000 OA
ATOM     33  C   UNL     1      44.934   4.443  10.540  0.00  0.00    +0.000 A 
ATOM     34  H   UNL     1      45.608   3.470   7.469  0.00  0.00    +0.000 HD
ENDBRANCH  21  24
ENDBRANCH  19  20
ENDBRANCH   4  19
TORSDOF 8
ENDMDL
MODEL 5
REMARK VINA RESULT:    -6.882      1.883      2.496
REMARK INTER + INTRA:         -11.352
REMARK INTER:                 -10.646
REMARK INTRA:                  -0.706
REMARK UNBOUND:                -1.251
REMARK  Name = 
REMARK  9 active torsions:
REMARK  status: ('A' for Active; 'I' for Inactive)
REMARK    1  A    between atoms: C_1  and  C_2
REMARK    2  A    between atoms: C_2  and  C_3
REMARK    3  A    between atoms: C_3  and  N_4
REMARK    4  A    between atoms: C_3  and  C_26
REMARK    5  A    between atoms: N_4  and  C_5
REMARK    6  A    between atoms: C_5  and  C_6
REMARK    7  A    between atoms: C_9  and  C_10
REMARK    8  A    between atoms: C_10  and  N_11
REMARK    9  A    between atoms: C_12  and  C_14
REMARK                            x       y       z     vdW  Elec       q    Type
REMARK                         _______ _______ _______ _____ _____    ______ ____
ROOT
ATOM      1  C   UNL     1      46.544   6.572  11.843  0.00  0.00    +0.000 A 
ATOM      2  C   UNL     1      47.633   5.888  12.402  0.00  0.00    +0.000 A 
ATOM      3  C   UNL     1      48.259   6.366  13.555  0.00  0.00    +0.000 A 
ATOM      4  C   UNL     1      47.816   7.545  14.165  0.00  0.00    +0.000 A 
ATOM      5  C   UNL     1      46.770   8.263  13.574  0.00  0.00    +0.000 A 
ATOM      6  C   UNL     1      46.134   7.778  12.430  0.00  0.00    +0.000 A 
ENDROOT
BRANCH   1   7
ATOM      7  C   UNL     1      45.833   6.038  10.617  0.00  0.00    +0.000 C 
BRANCH   7   8
ATOM      8  N   UNL     1      44.379   6.074  10.795  0.00  0.00    +0.000 NA
ATOM      9  H   UNL     1      44.171   6.253  11.772  0.00  0.00    +0.000 HD
BRANCH   8  10
ATOM     10  C   UNL     1      43.700   4.830  10.381  0.00  0.00    +0.000 C 
BRANCH  10  11
ATOM     11  C   UNL     1      44.569   3.952   9.478  0.00  0.00    +0.000 A 
ATOM     12  C   UNL     1      44.703   2.589   9.738  0.00  0.00    +0.000 A 
ATOM     13  C   UNL     1      45.484   1.818   8.879  0.00  0.00    +0.000 A 
ATOM     14  C   UNL     1      46.092   2.415   7.781  0.00  0.00    +0.000 A 
ATOM     15  C   UNL     1      45.892   3.768   7.582  0.00  0.00    +0.000 A 
ATOM     16  N   UNL     1      45.148   4.541   8.396  0.00  0.00    +0.000 NA
ENDBRANCH  10  11
BRANCH  10  18
ATOM     17  C   UNL     1      43.534   4.400  12.932  0.00  0.00    +0.000 C 
ATOM     18  C   UNL     1      43.100   3.989  11.533  0.00  0.00    +0.000 C 
ENDBRANCH  10  18
ENDBRANCH   8  10
ENDBRANCH   7   8
ENDBRANCH   1   7
BRANCH   4  19
ATOM     19  C   UNL     1      48.472   8.055  15.419  0.00  0.00    +0.000 C 
BRANCH  19  20
ATOM     20  N   UNL     1      49.477   7.139  15.890  0.00  0.00    +0.000 N 
ATOM     21  C   UNL     1      49.310   6.468  17.072  0.00  0.00    +0.000 C 
ATOM     22  O   UNL     1      48.287   6.577  17.744  0.00  0.00    +0.000 OA
ATOM     23  H   UNL     1      50.399   7.204  15.470  0.00  0.00    +0.000 HD
BRANCH  21  24
ATOM     24  C   UNL     1      50.391   5.561  17.471  0.00  0.00    +0.000 A 
ATOM     25  C   UNL     1      51.542   6.083  18.044  0.00  0.00    +0.000 A 
ATOM     26  S   UNL     1      52.689   4.897  18.474  0.00  0.00    +0.000 S 
ATOM     27  C   UNL     1      51.705   3.648  17.864  0.00  0.00    +0.000 A 
ATOM     28  N   UNL     1      52.122   2.351  17.891  0.00  0.00    +0.000 NA
ATOM     29  C   UNL     1      51.295   1.515  17.370  0.00  0.00    +0.000 A 
ATOM     30  N   UNL     1      50.079   1.849  16.831  0.00  0.00    +0.000 N 
ATOM     31  C   UNL     1      49.600   3.139  16.813  0.00  0.00    +0.000 A 
ATOM     32  O   UNL     1      48.484   3.399  16.372  0.00  0.00    +0.000 OA
ATOM     33  C   UNL     1      50.506   4.126  17.366  0.00  0.00    +0.000 A 
ATOM     34  H   UNL     1      49.467   1.141  16.451  0.00  0.00    +0.000 HD
ENDBRANCH  21  24
ENDBRANCH  19  20
ENDBRANCH   4  19
TORSDOF 8
ENDMDL
MODEL 6
REMARK VINA RESULT:    -6.866      2.186      2.726
REMARK INTER + INTRA:         -11.328
REMARK INTER:                 -10.464
REMARK INTRA:                  -0.864
REMARK UNBOUND:                -1.251
REMARK  Name = 
REMARK  9 active torsions:
REMARK  status: ('A' for Active; 'I' for Inactive)
REMARK    1  A    between atoms: C_1  and  C_2
REMARK    2  A    between atoms: C_2  and  C_3
REMARK    3  A    between atoms: C_3  and  N_4
REMARK    4  A    between atoms: C_3  and  C_26
REMARK    5  A    between atoms: N_4  and  C_5
REMARK    6  A    between atoms: C_5  and  C_6
REMARK    7  A    between atoms: C_9  and  C_10
REMARK    8  A    between atoms: C_10  and  N_11
REMARK    9  A    between atoms: C_12  and  C_14
REMARK                            x       y       z     vdW  Elec       q    Type
REMARK                         _______ _______ _______ _____ _____    ______ ____
ROOT
ATOM      1  C   UNL     1      45.184   5.999  11.864  0.00  0.00    +0.000 A 
ATOM      2  C   UNL     1      45.461   5.563  13.169  0.00  0.00    +0.000 A 
ATOM      3  C   UNL     1      46.675   5.877  13.783  0.00  0.00    +0.000 A 
ATOM      4  C   UNL     1      47.643   6.622  13.100  0.00  0.00    +0.000 A 
ATOM      5  C   UNL     1      47.395   7.004  11.776  0.00  0.00    +0.000 A 
ATOM      6  C   UNL     1      46.176   6.704  11.167  0.00  0.00    +0.000 A 
ENDROOT
BRANCH   1   7
ATOM      7  C   UNL     1      43.853   5.699  11.207  0.00  0.00    +0.000 C 
BRANCH   7   8
ATOM      8  N   UNL     1      44.043   5.170   9.853  0.00  0.00    +0.000 NA
ATOM      9  H   UNL     1      43.248   5.437   9.281  0.00  0.00    +0.000 HD
BRANCH   8  10
ATOM     10  C   UNL     1      44.195   3.703   9.806  0.00  0.00    +0.000 C 
BRANCH  10  11
ATOM     11  C   UNL     1      45.247   3.248   8.790  0.00  0.00    +0.000 A 
ATOM     12  C   UNL     1      45.636   1.911   8.728  0.00  0.00    +0.000 A 
ATOM     13  C   UNL     1      46.577   1.531   7.774  0.00  0.00    +0.000 A 
ATOM     14  C   UNL     1      47.090   2.483   6.899  0.00  0.00    +0.000 A 
ATOM     15  C   UNL     1      46.636   3.783   7.011  0.00  0.00    +0.000 A 
ATOM     16  N   UNL     1      45.731   4.182   7.927  0.00  0.00    +0.000 NA
ENDBRANCH  10  11
BRANCH  10  18
ATOM     17  C   UNL     1      43.237   2.289  11.757  0.00  0.00    +0.000 C 
ATOM     18  C   UNL     1      44.438   3.018  11.173  0.00  0.00    +0.000 C 
ENDBRANCH  10  18
ENDBRANCH   8  10
ENDBRANCH   7   8
ENDBRANCH   1   7
BRANCH   4  19
ATOM     19  C   UNL     1      48.945   6.982  13.762  0.00  0.00    +0.000 C 
BRANCH  19  20
ATOM     20  N   UNL     1      48.935   6.623  15.156  0.00  0.00    +0.000 N 
ATOM     21  C   UNL     1      49.606   7.383  16.076  0.00  0.00    +0.000 C 
ATOM     22  O   UNL     1      50.190   8.419  15.764  0.00  0.00    +0.000 OA
ATOM     23  H   UNL     1      48.652   5.677  15.391  0.00  0.00    +0.000 HD
BRANCH  21  24
ATOM     24  C   UNL     1      49.543   6.934  17.470  0.00  0.00    +0.000 A 
ATOM     25  C   UNL     1      50.281   5.827  17.864  0.00  0.00    +0.000 A 
ATOM     26  S   UNL     1      50.119   5.451  19.519  0.00  0.00    +0.000 S 
ATOM     27  C   UNL     1      49.018   6.729  19.756  0.00  0.00    +0.000 A 
ATOM     28  N   UNL     1      48.453   6.948  20.976  0.00  0.00    +0.000 NA
ATOM     29  C   UNL     1      47.616   7.924  21.007  0.00  0.00    +0.000 A 
ATOM     30  N   UNL     1      47.296   8.715  19.933  0.00  0.00    +0.000 N 
ATOM     31  C   UNL     1      47.867   8.555  18.691  0.00  0.00    +0.000 A 
ATOM     32  O   UNL     1      47.600   9.313  17.764  0.00  0.00    +0.000 OA
ATOM     33  C   UNL     1      48.800   7.449  18.595  0.00  0.00    +0.000 A 
ATOM     34  H   UNL     1      46.642   9.479  20.027  0.00  0.00    +0.000 HD
ENDBRANCH  21  24
ENDBRANCH  19  20
ENDBRANCH   4  19
TORSDOF 8
ENDMDL
MODEL 7
REMARK VINA RESULT:    -6.764      4.440      9.648
REMARK INTER + INTRA:         -11.178
REMARK INTER:                 -10.111
REMARK INTRA:                  -1.067
REMARK UNBOUND:                -1.251
REMARK  Name = 
REMARK  9 active torsions:
REMARK  status: ('A' for Active; 'I' for Inactive)
REMARK    1  A    between atoms: C_1  and  C_2
REMARK    2  A    between atoms: C_2  and  C_3
REMARK    3  A    between atoms: C_3  and  N_4
REMARK    4  A    between atoms: C_3  and  C_26
REMARK    5  A    between atoms: N_4  and  C_5
REMARK    6  A    between atoms: C_5  and  C_6
REMARK    7  A    between atoms: C_9  and  C_10
REMARK    8  A    between atoms: C_10  and  N_11
REMARK    9  A    between atoms: C_12  and  C_14
REMARK                            x       y       z     vdW  Elec       q    Type
REMARK                         _______ _______ _______ _____ _____    ______ ____
ROOT
ATOM      1  C   UNL     1      51.321   3.718  17.954  0.00  0.00    +0.000 A 
ATOM      2  C   UNL     1      50.830   2.521  17.412  0.00  0.00    +0.000 A 
ATOM      3  C   UNL     1      49.483   2.394  17.065  0.00  0.00    +0.000 A 
ATOM      4  C   UNL     1      48.597   3.459  17.266  0.00  0.00    +0.000 A 
ATOM      5  C   UNL     1      49.071   4.632  17.864  0.00  0.00    +0.000 A 
ATOM      6  C   UNL     1      50.420   4.764  18.197  0.00  0.00    +0.000 A 
ENDROOT
BRANCH   1   7
ATOM      7  C   UNL     1      52.789   3.877  18.293  0.00  0.00    +0.000 C 
BRANCH   7   8
ATOM      8  N   UNL     1      53.143   3.087  19.475  0.00  0.00    +0.000 NA
ATOM      9  H   UNL     1      53.082   3.680  20.297  0.00  0.00    +0.000 HD
BRANCH   8  10
ATOM     10  C   UNL     1      54.494   2.495  19.410  0.00  0.00    +0.000 C 
BRANCH  10  11
ATOM     11  C   UNL     1      54.574   1.304  18.450  0.00  0.00    +0.000 A 
ATOM     12  C   UNL     1      55.086   1.469  17.164  0.00  0.00    +0.000 A 
ATOM     13  C   UNL     1      55.165   0.356  16.329  0.00  0.00    +0.000 A 
ATOM     14  C   UNL     1      54.752  -0.886  16.799  0.00  0.00    +0.000 A 
ATOM     15  C   UNL     1      54.277  -0.968  18.093  0.00  0.00    +0.000 A 
ATOM     16  N   UNL     1      54.183   0.090  18.923  0.00  0.00    +0.000 NA
ENDBRANCH  10  11
BRANCH  10  18
ATOM     17  C   UNL     1      55.733   4.671  20.084  0.00  0.00    +0.000 C 
ATOM     18  C   UNL     1      55.641   3.494  19.123  0.00  0.00    +0.000 C 
ENDBRANCH  10  18
ENDBRANCH   8  10
ENDBRANCH   7   8
ENDBRANCH   1   7
BRANCH   4  19
ATOM     19  C   UNL     1      47.149   3.337  16.876  0.00  0.00    +0.000 C 
BRANCH  19  20
ATOM     20  N   UNL     1      46.783   4.345  15.917  0.00  0.00    +0.000 N 
ATOM     21  C   UNL     1      46.899   4.105  14.574  0.00  0.00    +0.000 C 
ATOM     22  O   UNL     1      47.265   3.016  14.136  0.00  0.00    +0.000 OA
ATOM     23  H   UNL     1      46.693   5.299  16.255  0.00  0.00    +0.000 HD
BRANCH  21  24
ATOM     24  C   UNL     1      46.507   5.195  13.675  0.00  0.00    +0.000 A 
ATOM     25  C   UNL     1      47.389   6.243  13.449  0.00  0.00    +0.000 A 
ATOM     26  S   UNL     1      46.793   7.414  12.362  0.00  0.00    +0.000 S 
ATOM     27  C   UNL     1      45.317   6.583  12.192  0.00  0.00    +0.000 A 
ATOM     28  N   UNL     1      44.321   7.079  11.405  0.00  0.00    +0.000 NA
ATOM     29  C   UNL     1      43.249   6.368  11.392  0.00  0.00    +0.000 A 
ATOM     30  N   UNL     1      43.079   5.196  12.084  0.00  0.00    +0.000 N 
ATOM     31  C   UNL     1      44.068   4.637  12.861  0.00  0.00    +0.000 A 
ATOM     32  O   UNL     1      43.903   3.559  13.425  0.00  0.00    +0.000 OA
ATOM     33  C   UNL     1      45.290   5.414  12.932  0.00  0.00    +0.000 A 
ATOM     34  H   UNL     1      42.216   4.674  12.018  0.00  0.00    +0.000 HD
ENDBRANCH  21  24
ENDBRANCH  19  20
ENDBRANCH   4  19
TORSDOF 8
ENDMDL
MODEL 8
REMARK VINA RESULT:    -6.317      3.769      8.852
REMARK INTER + INTRA:         -10.523
REMARK INTER:                  -9.140
REMARK INTRA:                  -1.383
REMARK UNBOUND:                -1.251
REMARK  Name = 
REMARK  9 active torsions:
REMARK  status: ('A' for Active; 'I' for Inactive)
REMARK    1  A    between atoms: C_1  and  C_2
REMARK    2  A    between atoms: C_2  and  C_3
REMARK    3  A    between atoms: C_3  and  N_4
REMARK    4  A    between atoms: C_3  and  C_26
REMARK    5  A    between atoms: N_4  and  C_5
REMARK    6  A    between atoms: C_5  and  C_6
REMARK    7  A    between atoms: C_9  and  C_10
REMARK    8  A    between atoms: C_10  and  N_11
REMARK    9  A    between atoms: C_12  and  C_14
REMARK                            x       y       z     vdW  Elec       q    Type
REMARK                         _______ _______ _______ _____ _____    ______ ____
ROOT
ATOM      1  C   UNL     1      51.371   4.731  17.699  0.00  0.00    +0.000 A 
ATOM      2  C   UNL     1      51.004   3.378  17.732  0.00  0.00    +0.000 A 
ATOM      3  C   UNL     1      49.707   2.982  17.398  0.00  0.00    +0.000 A 
ATOM      4  C   UNL     1      48.747   3.935  17.037  0.00  0.00    +0.000 A 
ATOM      5  C   UNL     1      49.093   5.291  17.064  0.00  0.00    +0.000 A 
ATOM      6  C   UNL     1      50.393   5.685  17.383  0.00  0.00    +0.000 A 
ENDROOT
BRANCH   1   7
ATOM      7  C   UNL     1      52.787   5.164  18.019  0.00  0.00    +0.000 C 
BRANCH   7   8
ATOM      8  N   UNL     1      53.541   5.444  16.794  0.00  0.00    +0.000 NA
ATOM      9  H   UNL     1      54.361   4.847  16.768  0.00  0.00    +0.000 HD
BRANCH   8  10
ATOM     10  C   UNL     1      53.967   6.851  16.669  0.00  0.00    +0.000 C 
BRANCH  10  11
ATOM     11  C   UNL     1      53.506   7.497  15.360  0.00  0.00    +0.000 A 
ATOM     12  C   UNL     1      54.420   7.751  14.339  0.00  0.00    +0.000 A 
ATOM     13  C   UNL     1      53.958   8.318  13.153  0.00  0.00    +0.000 A 
ATOM     14  C   UNL     1      52.603   8.599  13.008  0.00  0.00    +0.000 A 
ATOM     15  C   UNL     1      51.760   8.297  14.060  0.00  0.00    +0.000 A 
ATOM     16  N   UNL     1      52.177   7.755  15.221  0.00  0.00    +0.000 NA
ENDBRANCH  10  11
BRANCH  10  18
ATOM     17  C   UNL     1      54.070   9.205  17.751  0.00  0.00    +0.000 C 
ATOM     18  C   UNL     1      53.613   7.760  17.871  0.00  0.00    +0.000 C 
ENDBRANCH  10  18
ENDBRANCH   8  10
ENDBRANCH   7   8
ENDBRANCH   1   7
BRANCH   4  19
ATOM     19  C   UNL     1      47.354   3.515  16.656  0.00  0.00    +0.000 C 
BRANCH  19  20
ATOM     20  N   UNL     1      46.764   4.448  15.733  0.00  0.00    +0.000 N 
ATOM     21  C   UNL     1      46.778   4.202  14.386  0.00  0.00    +0.000 C 
ATOM     22  O   UNL     1      47.240   3.163  13.919  0.00  0.00    +0.000 OA
ATOM     23  H   UNL     1      46.581   5.387  16.074  0.00  0.00    +0.000 HD
BRANCH  21  24
ATOM     24  C   UNL     1      46.157   5.214  13.526  0.00  0.00    +0.000 A 
ATOM     25  C   UNL     1      46.810   6.421  13.314  0.00  0.00    +0.000 A 
ATOM     26  S   UNL     1      45.970   7.477  12.272  0.00  0.00    +0.000 S 
ATOM     27  C   UNL     1      44.682   6.375  12.106  0.00  0.00    +0.000 A 
ATOM     28  N   UNL     1      43.588   6.684  11.354  0.00  0.00    +0.000 NA
ATOM     29  C   UNL     1      42.677   5.776  11.342  0.00  0.00    +0.000 A 
ATOM     30  N   UNL     1      42.758   4.577  12.003  0.00  0.00    +0.000 N 
ATOM     31  C   UNL     1      43.856   4.206  12.745  0.00  0.00    +0.000 A 
ATOM     32  O   UNL     1      43.921   3.104  13.281  0.00  0.00    +0.000 OA
ATOM     33  C   UNL     1      44.903   5.207  12.814  0.00  0.00    +0.000 A 
ATOM     34  H   UNL     1      42.013   3.897  11.939  0.00  0.00    +0.000 HD
ENDBRANCH  21  24
ENDBRANCH  19  20
ENDBRANCH   4  19
TORSDOF 8
ENDMDL
MODEL 9
REMARK VINA RESULT:    -5.698      3.910      6.456
REMARK INTER + INTRA:          -9.615
REMARK INTER:                  -8.917
REMARK INTRA:                  -0.697
REMARK UNBOUND:                -1.251
REMARK  Name = 
REMARK  9 active torsions:
REMARK  status: ('A' for Active; 'I' for Inactive)
REMARK    1  A    between atoms: C_1  and  C_2
REMARK    2  A    between atoms: C_2  and  C_3
REMARK    3  A    between atoms: C_3  and  N_4
REMARK    4  A    between atoms: C_3  and  C_26
REMARK    5  A    between atoms: N_4  and  C_5
REMARK    6  A    between atoms: C_5  and  C_6
REMARK    7  A    between atoms: C_9  and  C_10
REMARK    8  A    between atoms: C_10  and  N_11
REMARK    9  A    between atoms: C_12  and  C_14
REMARK                            x       y       z     vdW  Elec       q    Type
REMARK                         _______ _______ _______ _____ _____    ______ ____
ROOT
ATOM      1  C   UNL     1      44.948   7.626  11.526  0.00  0.00    +0.000 A 
ATOM      2  C   UNL     1      46.287   7.440  11.900  0.00  0.00    +0.000 A 
ATOM      3  C   UNL     1      46.652   6.390  12.745  0.00  0.00    +0.000 A 
ATOM      4  C   UNL     1      45.683   5.512  13.243  0.00  0.00    +0.000 A 
ATOM      5  C   UNL     1      44.339   5.732  12.922  0.00  0.00    +0.000 A 
ATOM      6  C   UNL     1      43.975   6.773  12.066  0.00  0.00    +0.000 A 
ENDROOT
BRANCH   1   7
ATOM      7  C   UNL     1      44.550   8.737  10.576  0.00  0.00    +0.000 C 
BRANCH   7   8
ATOM      8  N   UNL     1      43.607   9.661  11.214  0.00  0.00    +0.000 NA
ATOM      9  H   UNL     1      43.125   9.174  11.963  0.00  0.00    +0.000 HD
BRANCH   8  10
ATOM     10  C   UNL     1      42.607  10.222  10.285  0.00  0.00    +0.000 C 
BRANCH  10  11
ATOM     11  C   UNL     1      41.340  10.703  10.998  0.00  0.00    +0.000 A 
ATOM     12  C   UNL     1      40.117  10.717  10.328  0.00  0.00    +0.000 A 
ATOM     13  C   UNL     1      38.982  11.138  11.018  0.00  0.00    +0.000 A 
ATOM     14  C   UNL     1      39.089  11.515  12.352  0.00  0.00    +0.000 A 
ATOM     15  C   UNL     1      40.334  11.452  12.949  0.00  0.00    +0.000 A 
ATOM     16  N   UNL     1      41.450  11.055  12.308  0.00  0.00    +0.000 NA
ENDBRANCH  10  11
BRANCH  10  18
ATOM     17  C   UNL     1      43.844  10.808   8.083  0.00  0.00    +0.000 C 
ATOM     18  C   UNL     1      43.135  11.319   9.329  0.00  0.00    +0.000 C 
ENDBRANCH  10  18
ENDBRANCH   8  10
ENDBRANCH   7   8
ENDBRANCH   1   7
BRANCH   4  19
ATOM     19  C   UNL     1      46.071   4.366  14.137  0.00  0.00    +0.000 C 
BRANCH  19  20
ATOM     20  N   UNL     1      47.205   4.706  14.955  0.00  0.00    +0.000 N 
ATOM     21  C   UNL     1      47.331   4.197  16.220  0.00  0.00    +0.000 C 
ATOM     22  O   UNL     1      46.521   3.397  16.683  0.00  0.00    +0.000 OA
ATOM     23  H   UNL     1      47.752   5.516  14.679  0.00  0.00    +0.000 HD
BRANCH  21  24
ATOM     24  C   UNL     1      48.517   4.606  16.978  0.00  0.00    +0.000 A 
ATOM     25  C   UNL     1      48.576   5.885  17.514  0.00  0.00    +0.000 A 
ATOM     26  S   UNL     1      50.007   6.194  18.387  0.00  0.00    +0.000 S 
ATOM     27  C   UNL     1      50.619   4.644  18.039  0.00  0.00    +0.000 A 
ATOM     28  N   UNL     1      51.853   4.263  18.473  0.00  0.00    +0.000 NA
ATOM     29  C   UNL     1      52.203   3.080  18.112  0.00  0.00    +0.000 A 
ATOM     30  N   UNL     1      51.430   2.229  17.364  0.00  0.00    +0.000 N 
ATOM     31  C   UNL     1      50.164   2.554  16.932  0.00  0.00    +0.000 A 
ATOM     32  O   UNL     1      49.476   1.751  16.310  0.00  0.00    +0.000 OA
ATOM     33  C   UNL     1      49.731   3.891  17.291  0.00  0.00    +0.000 A 
ATOM     34  H   UNL     1      51.757   1.303  17.127  0.00  0.00    +0.000 HD
ENDBRANCH  21  24
ENDBRANCH  19  20
ENDBRANCH   4  19
TORSDOF 8
ENDMDL
