MODEL 1
REMARK VINA RESULT:    -8.509      0.000      0.000
REMARK INTER + INTRA:         -12.867
REMARK INTER:                 -11.991
REMARK INTRA:                  -0.875
REMARK UNBOUND:                -0.875
REMARK  Name = 
REMARK  8 active torsions:
REMARK  status: ('A' for Active; 'I' for Inactive)
REMARK    1  A    between atoms: C_1  and  O_2
REMARK    2  A    between atoms: O_2  and  C_3
REMARK    3  A    between atoms: C_5  and  C_6
REMARK    4  A    between atoms: C_14  and  C_15
REMARK    5  A    between atoms: C_15  and  C_16
REMARK    6  A    between atoms: C_16  and  N_17
REMARK    7  A    between atoms: N_17  and  C_18
REMARK    8  A    between atoms: C_21  and  C_22
REMARK                            x       y       z     vdW  Elec       q    Type
REMARK                         _______ _______ _______ _____ _____    ______ ____
ROOT
ATOM      1  C   UNL     1      44.199   4.867  12.214  0.00  0.00    +0.000 C 
ATOM      2  C   UNL     1      42.966   4.936  13.116  0.00  0.00    +0.000 C 
ATOM      3  C   UNL     1      43.540   3.601  12.740  0.00  0.00    +0.000 C 
ENDROOT
BRANCH   1   8
ATOM      4  C   UNL     1      47.416   5.114  14.398  0.00  0.00    +0.000 A 
ATOM      5  C   UNL     1      48.016   6.266  13.904  0.00  0.00    +0.000 A 
ATOM      6  C   UNL     1      47.426   6.995  12.857  0.00  0.00    +0.000 A 
ATOM      7  C   UNL     1      46.190   6.536  12.352  0.00  0.00    +0.000 A 
ATOM      8  C   UNL     1      45.533   5.381  12.824  0.00  0.00    +0.000 A 
ATOM      9  C   UNL     1      46.199   4.692  13.857  0.00  0.00    +0.000 A 
BRANCH   6  10
ATOM     10  C   UNL     1      48.095   8.186  12.288  0.00  0.00    +0.000 A 
ATOM     11  C   UNL     1      47.411   9.403  12.137  0.00  0.00    +0.000 A 
ATOM     12  C   UNL     1      48.070  10.499  11.595  0.00  0.00    +0.000 A 
ATOM     13  N   UNL     1      49.358  10.479  11.208  0.00  0.00    +0.000 NA
ATOM     14  C   UNL     1      50.006   9.309  11.368  0.00  0.00    +0.000 A 
ATOM     15 CL   UNL     1      51.651   9.331  10.880  0.00  0.00    +0.000 Cl
ATOM     16  C   UNL     1      49.437   8.157  11.886  0.00  0.00    +0.000 A 
ENDBRANCH   6  10
BRANCH   4  18
ATOM     17  C   UNL     1      47.163   4.245  16.599  0.00  0.00    +0.000 C 
ATOM     18  O   UNL     1      47.903   4.307  15.388  0.00  0.00    +0.000 OA
ENDBRANCH   4  18
ENDBRANCH   1   8
BRANCH   1  19
ATOM     19  C   UNL     1      43.893   5.265  10.775  0.00  0.00    +0.000 C 
BRANCH  19  20
ATOM     20  N   UNL     1      43.525   4.137   9.915  0.00  0.00    +0.000 N 
ATOM     21  H   UNL     1      42.664   4.299   9.396  0.00  0.00    +0.000 HD
BRANCH  20  22
ATOM     22  C   UNL     1      44.576   3.644   9.128  0.00  0.00    +0.000 A 
ATOM     23  C   UNL     1      45.392   4.450   8.342  0.00  0.00    +0.000 A 
ATOM     24  N   UNL     1      46.385   4.017   7.549  0.00  0.00    +0.000 NA
ATOM     25  C   UNL     1      46.615   2.688   7.596  0.00  0.00    +0.000 A 
ATOM     26  N   UNL     1      45.971   1.804   8.384  0.00  0.00    +0.000 NA
ATOM     27  C   UNL     1      44.982   2.319   9.150  0.00  0.00    +0.000 A 
BRANCH  25  28
ATOM     28  C   UNL     1      47.676   2.201   6.643  0.00  0.00    +0.000 C 
ATOM     29  N   UNL     1      47.848   2.975   5.518  0.00  0.00    +0.000 N 
ATOM     30  O   UNL     1      48.347   1.198   6.817  0.00  0.00    +0.000 OA
ATOM     31  H   UNL     1      47.289   3.812   5.394  0.00  0.00    +0.000 HD
ATOM     32  H   UNL     1      48.546   2.718   4.836  0.00  0.00    +0.000 HD
ENDBRANCH  25  28
ENDBRANCH  20  22
ENDBRANCH  19  20
ENDBRANCH   1  19
TORSDOF 7
ENDMDL
MODEL 2
REMARK VINA RESULT:    -8.452      2.719      4.241
REMARK INTER + INTRA:         -12.787
REMARK INTER:                 -11.933
REMARK INTRA:                  -0.854
REMARK UNBOUND:                -0.875
REMARK  Name = 
REMARK  8 active torsions:
REMARK  status: ('A' for Active; 'I' for Inactive)
REMARK    1  A    between atoms: C_1  and  O_2
REMARK    2  A    between atoms: O_2  and  C_3
REMARK    3  A    between atoms: C_5  and  C_6
REMARK    4  A    between atoms: C_14  and  C_15
REMARK    5  A    between atoms: C_15  and  C_16
REMARK    6  A    between atoms: C_16  and  N_17
REMARK    7  A    between atoms: N_17  and  C_18
REMARK    8  A    between atoms: C_21  and  C_22
REMARK                            x       y       z     vdW  Elec       q    Type
REMARK                         _______ _______ _______ _____ _____    ______ ____
ROOT
ATOM      1  C   UNL     1      44.207   4.888  12.194  0.00  0.00    +0.000 C 
ATOM      2  C   UNL     1      43.013   5.072  13.133  0.00  0.00    +0.000 C 
ATOM      3  C   UNL     1      43.485   3.690  12.788  0.00  0.00    +0.000 C 
ENDROOT
BRANCH   1   8
ATOM      4  C   UNL     1      47.624   6.723  12.566  0.00  0.00    +0.000 A 
ATOM      5  C   UNL     1      48.100   6.213  13.767  0.00  0.00    +0.000 A 
ATOM      6  C   UNL     1      47.350   5.280  14.502  0.00  0.00    +0.000 A 
ATOM      7  C   UNL     1      46.116   4.855  13.961  0.00  0.00    +0.000 A 
ATOM      8  C   UNL     1      45.593   5.332  12.741  0.00  0.00    +0.000 A 
ATOM      9  C   UNL     1      46.392   6.282  12.076  0.00  0.00    +0.000 A 
BRANCH   6  10
ATOM     10  C   UNL     1      47.826   4.783  15.812  0.00  0.00    +0.000 A 
ATOM     11  C   UNL     1      47.512   3.489  16.259  0.00  0.00    +0.000 A 
ATOM     12  C   UNL     1      47.973   3.058  17.496  0.00  0.00    +0.000 A 
ATOM     13  N   UNL     1      48.733   3.810  18.312  0.00  0.00    +0.000 NA
ATOM     14  C   UNL     1      49.037   5.044  17.868  0.00  0.00    +0.000 A 
ATOM     15 CL   UNL     1      50.022   5.963  18.930  0.00  0.00    +0.000 Cl
ATOM     16  C   UNL     1      48.616   5.572  16.658  0.00  0.00    +0.000 A 
ENDBRANCH   6  10
BRANCH   4  18
ATOM     17  C   UNL     1      48.311   8.983  12.271  0.00  0.00    +0.000 C 
ATOM     18  O   UNL     1      48.243   7.652  11.777  0.00  0.00    +0.000 OA
ENDBRANCH   4  18
ENDBRANCH   1   8
BRANCH   1  19
ATOM     19  C   UNL     1      43.878   5.256  10.752  0.00  0.00    +0.000 C 
BRANCH  19  20
ATOM     20  N   UNL     1      43.525   4.106   9.914  0.00  0.00    +0.000 N 
ATOM     21  H   UNL     1      42.653   4.239   9.407  0.00  0.00    +0.000 HD
BRANCH  20  22
ATOM     22  C   UNL     1      44.577   3.628   9.119  0.00  0.00    +0.000 A 
ATOM     23  C   UNL     1      45.399   4.448   8.357  0.00  0.00    +0.000 A 
ATOM     24  N   UNL     1      46.393   4.030   7.556  0.00  0.00    +0.000 NA
ATOM     25  C   UNL     1      46.615   2.699   7.570  0.00  0.00    +0.000 A 
ATOM     26  N   UNL     1      45.963   1.798   8.333  0.00  0.00    +0.000 NA
ATOM     27  C   UNL     1      44.975   2.300   9.109  0.00  0.00    +0.000 A 
BRANCH  25  28
ATOM     28  C   UNL     1      47.676   2.229   6.608  0.00  0.00    +0.000 C 
ATOM     29  N   UNL     1      47.863   3.036   5.509  0.00  0.00    +0.000 N 
ATOM     30  O   UNL     1      48.336   1.215   6.756  0.00  0.00    +0.000 OA
ATOM     31  H   UNL     1      47.314   3.882   5.407  0.00  0.00    +0.000 HD
ATOM     32  H   UNL     1      48.562   2.793   4.823  0.00  0.00    +0.000 HD
ENDBRANCH  25  28
ENDBRANCH  20  22
ENDBRANCH  19  20
ENDBRANCH   1  19
TORSDOF 7
ENDMDL
MODEL 3
REMARK VINA RESULT:    -8.023      2.083      3.133
REMARK INTER + INTRA:         -12.182
REMARK INTER:                 -11.135
REMARK INTRA:                  -1.046
REMARK UNBOUND:                -0.875
REMARK  Name = 
REMARK  8 active torsions:
REMARK  status: ('A' for Active; 'I' for Inactive)
REMARK    1  A    between atoms: C_1  and  O_2
REMARK    2  A    between atoms: O_2  and  C_3
REMARK    3  A    between atoms: C_5  and  C_6
REMARK    4  A    between atoms: C_14  and  C_15
REMARK    5  A    between atoms: C_15  and  C_16
REMARK    6  A    between atoms: C_16  and  N_17
REMARK    7  A    between atoms: N_17  and  C_18
REMARK    8  A    between atoms: C_21  and  C_22
REMARK                            x       y       z     vdW  Elec       q    Type
REMARK                         _______ _______ _______ _____ _____    ______ ____
ROOT
ATOM      1  C   UNL     1      45.062   5.134  12.245  0.00  0.00    +0.000 C 
ATOM      2  C   UNL     1      44.786   4.539  13.627  0.00  0.00    +0.000 C 
ATOM      3  C   UNL     1      45.846   3.934  12.754  0.00  0.00    +0.000 C 
ENDROOT
BRANCH   1   8
ATOM      4  C   UNL     1      45.489   9.006  12.314  0.00  0.00    +0.000 A 
ATOM      5  C   UNL     1      46.869   9.148  12.242  0.00  0.00    +0.000 A 
ATOM      6  C   UNL     1      47.708   8.023  12.179  0.00  0.00    +0.000 A 
ATOM      7  C   UNL     1      47.099   6.749  12.158  0.00  0.00    +0.000 A 
ATOM      8  C   UNL     1      45.704   6.549  12.217  0.00  0.00    +0.000 A 
ATOM      9  C   UNL     1      44.933   7.724  12.302  0.00  0.00    +0.000 A 
BRANCH   6  10
ATOM     10  C   UNL     1      49.181   8.172  12.167  0.00  0.00    +0.000 A 
ATOM     11  C   UNL     1      49.864   8.750  13.249  0.00  0.00    +0.000 A 
ATOM     12  C   UNL     1      51.246   8.876  13.201  0.00  0.00    +0.000 A 
ATOM     13  N   UNL     1      51.998   8.458  12.167  0.00  0.00    +0.000 NA
ATOM     14  C   UNL     1      51.332   7.896  11.141  0.00  0.00    +0.000 A 
ATOM     15 CL   UNL     1      52.329   7.360   9.851  0.00  0.00    +0.000 Cl
ATOM     16  C   UNL     1      49.958   7.735  11.086  0.00  0.00    +0.000 A 
ENDBRANCH   6  10
BRANCH   4  18
ATOM     17  C   UNL     1      44.546  10.969  11.355  0.00  0.00    +0.000 C 
ATOM     18  O   UNL     1      44.573  10.016  12.408  0.00  0.00    +0.000 OA
ENDBRANCH   4  18
ENDBRANCH   1   8
BRANCH   1  19
ATOM     19  C   UNL     1      43.935   4.861  11.256  0.00  0.00    +0.000 C 
BRANCH  19  20
ATOM     20  N   UNL     1      44.279   5.176   9.867  0.00  0.00    +0.000 N 
ATOM     21  H   UNL     1      44.699   6.098   9.762  0.00  0.00    +0.000 HD
BRANCH  20  22
ATOM     22  C   UNL     1      44.973   4.157   9.198  0.00  0.00    +0.000 A 
ATOM     23  C   UNL     1      44.777   2.804   9.444  0.00  0.00    +0.000 A 
ATOM     24  N   UNL     1      45.443   1.798   8.853  0.00  0.00    +0.000 NA
ATOM     25  C   UNL     1      46.325   2.178   7.905  0.00  0.00    +0.000 A 
ATOM     26  N   UNL     1      46.546   3.443   7.494  0.00  0.00    +0.000 NA
ATOM     27  C   UNL     1      45.838   4.397   8.142  0.00  0.00    +0.000 A 
BRANCH  25  28
ATOM     28  C   UNL     1      47.126   1.051   7.306  0.00  0.00    +0.000 C 
ATOM     29  N   UNL     1      46.738  -0.211   7.695  0.00  0.00    +0.000 N 
ATOM     30  O   UNL     1      48.058   1.205   6.535  0.00  0.00    +0.000 OA
ATOM     31  H   UNL     1      45.953  -0.322   8.329  0.00  0.00    +0.000 HD
ATOM     32  H   UNL     1      47.220  -1.018   7.331  0.00  0.00    +0.000 HD
ENDBRANCH  25  28
ENDBRANCH  20  22
ENDBRANCH  19  20
ENDBRANCH   1  19
TORSDOF 7
ENDMDL
MODEL 4
REMARK VINA RESULT:    -7.428      3.988      7.643
REMARK INTER + INTRA:         -11.343
REMARK INTER:                 -10.367
REMARK INTRA:                  -0.976
REMARK UNBOUND:                -0.875
REMARK  Name = 
REMARK  8 active torsions:
REMARK  status: ('A' for Active; 'I' for Inactive)
REMARK    1  A    between atoms: C_1  and  O_2
REMARK    2  A    between atoms: O_2  and  C_3
REMARK    3  A    between atoms: C_5  and  C_6
REMARK    4  A    between atoms: C_14  and  C_15
REMARK    5  A    between atoms: C_15  and  C_16
REMARK    6  A    between atoms: C_16  and  N_17
REMARK    7  A    between atoms: N_17  and  C_18
REMARK    8  A    between atoms: C_21  and  C_22
REMARK                            x       y       z     vdW  Elec       q    Type
REMARK                         _______ _______ _______ _____ _____    ______ ____
ROOT
ATOM      1  C   UNL     1      49.030   8.228  12.608  0.00  0.00    +0.000 C 
ATOM      2  C   UNL     1      49.818   9.206  11.734  0.00  0.00    +0.000 C 
ATOM      3  C   UNL     1      50.115   7.737  11.663  0.00  0.00    +0.000 C 
ENDROOT
BRANCH   1   8
ATOM      4  C   UNL     1      45.234   8.943  12.097  0.00  0.00    +0.000 A 
ATOM      5  C   UNL     1      44.783   7.748  11.551  0.00  0.00    +0.000 A 
ATOM      6  C   UNL     1      45.669   6.682  11.318  0.00  0.00    +0.000 A 
ATOM      7  C   UNL     1      47.020   6.856  11.689  0.00  0.00    +0.000 A 
ATOM      8  C   UNL     1      47.527   8.043  12.258  0.00  0.00    +0.000 A 
ATOM      9  C   UNL     1      46.583   9.073  12.438  0.00  0.00    +0.000 A 
BRANCH   6  10
ATOM     10  C   UNL     1      45.202   5.432  10.678  0.00  0.00    +0.000 A 
ATOM     11  C   UNL     1      44.312   4.566  11.333  0.00  0.00    +0.000 A 
ATOM     12  C   UNL     1      43.898   3.400  10.703  0.00  0.00    +0.000 A 
ATOM     13  N   UNL     1      44.291   3.039   9.468  0.00  0.00    +0.000 NA
ATOM     14  C   UNL     1      45.135   3.883   8.846  0.00  0.00    +0.000 A 
ATOM     15 CL   UNL     1      45.596   3.396   7.266  0.00  0.00    +0.000 Cl
ATOM     16  C   UNL     1      45.616   5.062   9.391  0.00  0.00    +0.000 A 
ENDBRANCH   6  10
BRANCH   4  18
ATOM     17  C   UNL     1      43.743  10.597  11.256  0.00  0.00    +0.000 C 
ATOM     18  O   UNL     1      44.482  10.058  12.343  0.00  0.00    +0.000 OA
ENDBRANCH   4  18
ENDBRANCH   1   8
BRANCH   1  19
ATOM     19  C   UNL     1      49.392   8.343  14.084  0.00  0.00    +0.000 C 
BRANCH  19  20
ATOM     20  N   UNL     1      48.339   7.873  14.989  0.00  0.00    +0.000 N 
ATOM     21  H   UNL     1      47.402   8.023  14.619  0.00  0.00    +0.000 HD
BRANCH  20  22
ATOM     22  C   UNL     1      48.548   6.582  15.496  0.00  0.00    +0.000 A 
ATOM     23  C   UNL     1      49.536   6.269  16.422  0.00  0.00    +0.000 A 
ATOM     24  N   UNL     1      49.793   5.044  16.907  0.00  0.00    +0.000 NA
ATOM     25  C   UNL     1      48.958   4.074  16.477  0.00  0.00    +0.000 A 
ATOM     26  N   UNL     1      47.900   4.249  15.660  0.00  0.00    +0.000 NA
ATOM     27  C   UNL     1      47.712   5.513  15.213  0.00  0.00    +0.000 A 
BRANCH  25  28
ATOM     28  C   UNL     1      49.303   2.689  16.960  0.00  0.00    +0.000 C 
ATOM     29  N   UNL     1      49.488   2.577  18.319  0.00  0.00    +0.000 N 
ATOM     30  O   UNL     1      49.423   1.718  16.233  0.00  0.00    +0.000 OA
ATOM     31  H   UNL     1      49.374   3.392  18.911  0.00  0.00    +0.000 HD
ATOM     32  H   UNL     1      49.714   1.679  18.721  0.00  0.00    +0.000 HD
ENDBRANCH  25  28
ENDBRANCH  20  22
ENDBRANCH  19  20
ENDBRANCH   1  19
TORSDOF 7
ENDMDL
MODEL 5
REMARK VINA RESULT:    -6.589      4.052      6.311
REMARK INTER + INTRA:         -10.161
REMARK INTER:                  -9.309
REMARK INTRA:                  -0.852
REMARK UNBOUND:                -0.875
REMARK  Name = 
REMARK  8 active torsions:
REMARK  status: ('A' for Active; 'I' for Inactive)
REMARK    1  A    between atoms: C_1  and  O_2
REMARK    2  A    between atoms: O_2  and  C_3
REMARK    3  A    between atoms: C_5  and  C_6
REMARK    4  A    between atoms: C_14  and  C_15
REMARK    5  A    between atoms: C_15  and  C_16
REMARK    6  A    between atoms: C_16  and  N_17
REMARK    7  A    between atoms: N_17  and  C_18
REMARK    8  A    between atoms: C_21  and  C_22
REMARK                            x       y       z     vdW  Elec       q    Type
REMARK                         _______ _______ _______ _____ _____    ______ ____
ROOT
ATOM      1  C   UNL     1      48.225   8.564  12.593  0.00  0.00    +0.000 C 
ATOM      2  C   UNL     1      49.123   7.754  11.655  0.00  0.00    +0.000 C 
ATOM      3  C   UNL     1      49.211   9.252  11.661  0.00  0.00    +0.000 C 
ENDROOT
BRANCH   1   8
ATOM      4  C   UNL     1      48.741   9.469  16.348  0.00  0.00    +0.000 A 
ATOM      5  C   UNL     1      48.993   8.226  16.915  0.00  0.00    +0.000 A 
ATOM      6  C   UNL     1      48.997   7.061  16.129  0.00  0.00    +0.000 A 
ATOM      7  C   UNL     1      48.772   7.203  14.742  0.00  0.00    +0.000 A 
ATOM      8  C   UNL     1      48.523   8.441  14.114  0.00  0.00    +0.000 A 
ATOM      9  C   UNL     1      48.512   9.558  14.972  0.00  0.00    +0.000 A 
BRANCH   6  10
ATOM     10  C   UNL     1      49.201   5.730  16.742  0.00  0.00    +0.000 A 
ATOM     11  C   UNL     1      50.467   5.323  17.194  0.00  0.00    +0.000 A 
ATOM     12  C   UNL     1      50.623   4.065  17.761  0.00  0.00    +0.000 A 
ATOM     13  N   UNL     1      49.614   3.191  17.926  0.00  0.00    +0.000 NA
ATOM     14  C   UNL     1      48.403   3.597  17.499  0.00  0.00    +0.000 A 
ATOM     15 CL   UNL     1      47.142   2.460  17.744  0.00  0.00    +0.000 Cl
ATOM     16  C   UNL     1      48.146   4.824  16.909  0.00  0.00    +0.000 A 
ENDBRANCH   6  10
BRANCH   4  18
ATOM     17  C   UNL     1      47.868  10.725  18.170  0.00  0.00    +0.000 C 
ATOM     18  O   UNL     1      48.681  10.665  17.007  0.00  0.00    +0.000 OA
ENDBRANCH   4  18
ENDBRANCH   1   8
BRANCH   1  19
ATOM     19  C   UNL     1      46.763   8.540  12.166  0.00  0.00    +0.000 C 
BRANCH  19  20
ATOM     20  N   UNL     1      45.881   7.855  13.115  0.00  0.00    +0.000 N 
ATOM     21  H   UNL     1      45.180   8.473  13.521  0.00  0.00    +0.000 HD
BRANCH  20  22
ATOM     22  C   UNL     1      45.362   6.639  12.646  0.00  0.00    +0.000 A 
ATOM     23  C   UNL     1      45.633   5.409  13.234  0.00  0.00    +0.000 A 
ATOM     24  N   UNL     1      45.186   4.220  12.799  0.00  0.00    +0.000 NA
ATOM     25  C   UNL     1      44.360   4.277  11.733  0.00  0.00    +0.000 A 
ATOM     26  N   UNL     1      43.933   5.402  11.125  0.00  0.00    +0.000 NA
ATOM     27  C   UNL     1      44.432   6.557  11.621  0.00  0.00    +0.000 A 
BRANCH  25  28
ATOM     28  C   UNL     1      43.930   2.935  11.201  0.00  0.00    +0.000 C 
ATOM     29  N   UNL     1      44.675   2.460  10.145  0.00  0.00    +0.000 N 
ATOM     30  O   UNL     1      42.994   2.289  11.642  0.00  0.00    +0.000 OA
ATOM     31  H   UNL     1      45.457   3.005   9.797  0.00  0.00    +0.000 HD
ATOM     32  H   UNL     1      44.454   1.564   9.739  0.00  0.00    +0.000 HD
ENDBRANCH  25  28
ENDBRANCH  20  22
ENDBRANCH  19  20
ENDBRANCH   1  19
TORSDOF 7
ENDMDL
MODEL 6
REMARK VINA RESULT:    -6.454      4.161      6.597
REMARK INTER + INTRA:          -9.971
REMARK INTER:                  -8.972
REMARK INTRA:                  -0.999
REMARK UNBOUND:                -0.875
REMARK  Name = 
REMARK  8 active torsions:
REMARK  status: ('A' for Active; 'I' for Inactive)
REMARK    1  A    between atoms: C_1  and  O_2
REMARK    2  A    between atoms: O_2  and  C_3
REMARK    3  A    between atoms: C_5  and  C_6
REMARK    4  A    between atoms: C_14  and  C_15
REMARK    5  A    between atoms: C_15  and  C_16
REMARK    6  A    between atoms: C_16  and  N_17
REMARK    7  A    between atoms: N_17  and  C_18
REMARK    8  A    between atoms: C_21  and  C_22
REMARK                            x       y       z     vdW  Elec       q    Type
REMARK                         _______ _______ _______ _____ _____    ______ ____
ROOT
ATOM      1  C   UNL     1      45.680   5.219  12.799  0.00  0.00    +0.000 C 
ATOM      2  C   UNL     1      45.052   4.469  11.623  0.00  0.00    +0.000 C 
ATOM      3  C   UNL     1      44.202   4.864  12.795  0.00  0.00    +0.000 C 
ENDROOT
BRANCH   1   8
ATOM      4  C   UNL     1      45.673   9.093  12.387  0.00  0.00    +0.000 A 
ATOM      5  C   UNL     1      47.003   9.357  12.088  0.00  0.00    +0.000 A 
ATOM      6  C   UNL     1      47.947   8.319  12.019  0.00  0.00    +0.000 A 
ATOM      7  C   UNL     1      47.489   6.999  12.227  0.00  0.00    +0.000 A 
ATOM      8  C   UNL     1      46.148   6.675  12.521  0.00  0.00    +0.000 A 
ATOM      9  C   UNL     1      45.269   7.772  12.597  0.00  0.00    +0.000 A 
BRANCH   6  10
ATOM     10  C   UNL     1      49.377   8.605  11.764  0.00  0.00    +0.000 A 
ATOM     11  C   UNL     1      49.957   9.823  12.154  0.00  0.00    +0.000 A 
ATOM     12  C   UNL     1      51.300  10.059  11.896  0.00  0.00    +0.000 A 
ATOM     13  N   UNL     1      52.112   9.170  11.294  0.00  0.00    +0.000 NA
ATOM     14  C   UNL     1      51.547   8.002  10.935  0.00  0.00    +0.000 A 
ATOM     15 CL   UNL     1      52.619   6.891  10.188  0.00  0.00    +0.000 Cl
ATOM     16  C   UNL     1      50.216   7.675  11.136  0.00  0.00    +0.000 A 
ENDBRANCH   6  10
BRANCH   4  18
ATOM     17  C   UNL     1      44.423  10.861  11.397  0.00  0.00    +0.000 C 
ATOM     18  O   UNL     1      44.671  10.015  12.511  0.00  0.00    +0.000 OA
ENDBRANCH   4  18
ENDBRANCH   1   8
BRANCH   1  19
ATOM     19  C   UNL     1      46.607   4.336  13.626  0.00  0.00    +0.000 C 
BRANCH  19  20
ATOM     20  N   UNL     1      46.384   4.435  15.071  0.00  0.00    +0.000 N 
ATOM     21  H   UNL     1      45.635   3.828  15.399  0.00  0.00    +0.000 HD
BRANCH  20  22
ATOM     22  C   UNL     1      47.553   4.359  15.842  0.00  0.00    +0.000 A 
ATOM     23  C   UNL     1      48.344   5.459  16.151  0.00  0.00    +0.000 A 
ATOM     24  N   UNL     1      49.487   5.427  16.854  0.00  0.00    +0.000 NA
ATOM     25  C   UNL     1      49.828   4.212  17.334  0.00  0.00    +0.000 A 
ATOM     26  N   UNL     1      49.107   3.080  17.197  0.00  0.00    +0.000 NA
ATOM     27  C   UNL     1      47.971   3.197  16.472  0.00  0.00    +0.000 A 
BRANCH  25  28
ATOM     28  C   UNL     1      51.152   4.169  18.051  0.00  0.00    +0.000 C 
ATOM     29  N   UNL     1      51.069   4.064  19.421  0.00  0.00    +0.000 N 
ATOM     30  O   UNL     1      52.236   4.226  17.496  0.00  0.00    +0.000 OA
ATOM     31  H   UNL     1      50.159   4.008  19.866  0.00  0.00    +0.000 HD
ATOM     32  H   UNL     1      51.913   4.022  19.971  0.00  0.00    +0.000 HD
ENDBRANCH  25  28
ENDBRANCH  20  22
ENDBRANCH  19  20
ENDBRANCH   1  19
TORSDOF 7
ENDMDL
MODEL 7
REMARK VINA RESULT:    -6.186      4.339      8.162
REMARK INTER + INTRA:          -9.594
REMARK INTER:                  -8.775
REMARK INTRA:                  -0.818
REMARK UNBOUND:                -0.875
REMARK  Name = 
REMARK  8 active torsions:
REMARK  status: ('A' for Active; 'I' for Inactive)
REMARK    1  A    between atoms: C_1  and  O_2
REMARK    2  A    between atoms: O_2  and  C_3
REMARK    3  A    between atoms: C_5  and  C_6
REMARK    4  A    between atoms: C_14  and  C_15
REMARK    5  A    between atoms: C_15  and  C_16
REMARK    6  A    between atoms: C_16  and  N_17
REMARK    7  A    between atoms: N_17  and  C_18
REMARK    8  A    between atoms: C_21  and  C_22
REMARK                            x       y       z     vdW  Elec       q    Type
REMARK                         _______ _______ _______ _____ _____    ______ ____
ROOT
ATOM      1  C   UNL     1      46.799   6.849  12.206  0.00  0.00    +0.000 C 
ATOM      2  C   UNL     1      46.791   8.332  11.833  0.00  0.00    +0.000 C 
ATOM      3  C   UNL     1      47.995   7.492  11.523  0.00  0.00    +0.000 C 
ENDROOT
BRANCH   1   8
ATOM      4  C   UNL     1      43.544   5.137  10.917  0.00  0.00    +0.000 A 
ATOM      5  C   UNL     1      44.029   4.308   9.914  0.00  0.00    +0.000 A 
ATOM      6  C   UNL     1      45.400   4.272   9.606  0.00  0.00    +0.000 A 
ATOM      7  C   UNL     1      46.267   5.079  10.375  0.00  0.00    +0.000 A 
ATOM      8  C   UNL     1      45.829   5.930  11.411  0.00  0.00    +0.000 A 
ATOM      9  C   UNL     1      44.440   5.927  11.643  0.00  0.00    +0.000 A 
BRANCH   6  10
ATOM     10  C   UNL     1      45.909   3.437   8.496  0.00  0.00    +0.000 A 
ATOM     11  C   UNL     1      46.352   4.014   7.294  0.00  0.00    +0.000 A 
ATOM     12  C   UNL     1      46.821   3.200   6.272  0.00  0.00    +0.000 A 
ATOM     13  N   UNL     1      46.895   1.860   6.361  0.00  0.00    +0.000 NA
ATOM     14  C   UNL     1      46.478   1.319   7.521  0.00  0.00    +0.000 A 
ATOM     15 CL   UNL     1      46.607  -0.390   7.600  0.00  0.00    +0.000 Cl
ATOM     16  C   UNL     1      45.983   2.042   8.594  0.00  0.00    +0.000 A 
ENDBRANCH   6  10
BRANCH   4  18
ATOM     17  C   UNL     1      41.842   6.550  11.795  0.00  0.00    +0.000 C 
ATOM     18  O   UNL     1      42.237   5.283  11.289  0.00  0.00    +0.000 OA
ENDBRANCH   4  18
ENDBRANCH   1   8
BRANCH   1  19
ATOM     19  C   UNL     1      46.892   6.626  13.711  0.00  0.00    +0.000 C 
BRANCH  19  20
ATOM     20  N   UNL     1      46.974   5.214  14.096  0.00  0.00    +0.000 N 
ATOM     21  H   UNL     1      47.396   4.632  13.376  0.00  0.00    +0.000 HD
BRANCH  20  22
ATOM     22  C   UNL     1      47.495   4.996  15.380  0.00  0.00    +0.000 A 
ATOM     23  C   UNL     1      48.353   5.880  16.023  0.00  0.00    +0.000 A 
ATOM     24  N   UNL     1      48.902   5.695  17.234  0.00  0.00    +0.000 NA
ATOM     25  C   UNL     1      48.513   4.569  17.870  0.00  0.00    +0.000 A 
ATOM     26  N   UNL     1      47.615   3.674  17.411  0.00  0.00    +0.000 NA
ATOM     27  C   UNL     1      47.112   3.932  16.182  0.00  0.00    +0.000 A 
BRANCH  25  28
ATOM     28  C   UNL     1      49.195   4.328  19.191  0.00  0.00    +0.000 C 
ATOM     29  N   UNL     1      48.512   3.507  20.058  0.00  0.00    +0.000 N 
ATOM     30  O   UNL     1      50.270   4.811  19.508  0.00  0.00    +0.000 OA
ATOM     31  H   UNL     1      47.624   3.105  19.776  0.00  0.00    +0.000 HD
ATOM     32  H   UNL     1      48.908   3.291  20.960  0.00  0.00    +0.000 HD
ENDBRANCH  25  28
ENDBRANCH  20  22
ENDBRANCH  19  20
ENDBRANCH   1  19
TORSDOF 7
ENDMDL
MODEL 8
REMARK VINA RESULT:    -5.562      3.885      6.690
REMARK INTER + INTRA:          -8.714
REMARK INTER:                  -8.045
REMARK INTRA:                  -0.669
REMARK UNBOUND:                -0.875
REMARK  Name = 
REMARK  8 active torsions:
REMARK  status: ('A' for Active; 'I' for Inactive)
REMARK    1  A    between atoms: C_1  and  O_2
REMARK    2  A    between atoms: O_2  and  C_3
REMARK    3  A    between atoms: C_5  and  C_6
REMARK    4  A    between atoms: C_14  and  C_15
REMARK    5  A    between atoms: C_15  and  C_16
REMARK    6  A    between atoms: C_16  and  N_17
REMARK    7  A    between atoms: N_17  and  C_18
REMARK    8  A    between atoms: C_21  and  C_22
REMARK                            x       y       z     vdW  Elec       q    Type
REMARK                         _______ _______ _______ _____ _____    ______ ____
ROOT
ATOM      1  C   UNL     1      45.119   5.986  12.059  0.00  0.00    +0.000 C 
ATOM      2  C   UNL     1      45.137   5.219  10.735  0.00  0.00    +0.000 C 
ATOM      3  C   UNL     1      43.837   5.730  11.283  0.00  0.00    +0.000 C 
ENDROOT
BRANCH   1   8
ATOM      4  C   UNL     1      45.597   9.853  12.077  0.00  0.00    +0.000 A 
ATOM      5  C   UNL     1      46.980   9.975  12.122  0.00  0.00    +0.000 A 
ATOM      6  C   UNL     1      47.805   8.838  12.158  0.00  0.00    +0.000 A 
ATOM      7  C   UNL     1      47.181   7.571  12.112  0.00  0.00    +0.000 A 
ATOM      8  C   UNL     1      45.783   7.391  12.055  0.00  0.00    +0.000 A 
ATOM      9  C   UNL     1      45.025   8.578  12.046  0.00  0.00    +0.000 A 
BRANCH   6  10
ATOM     10  C   UNL     1      49.275   8.967  12.270  0.00  0.00    +0.000 A 
ATOM     11  C   UNL     1      50.024   9.642  11.292  0.00  0.00    +0.000 A 
ATOM     12  C   UNL     1      51.402   9.740  11.428  0.00  0.00    +0.000 A 
ATOM     13  N   UNL     1      52.087   9.232  12.468  0.00  0.00    +0.000 NA
ATOM     14  C   UNL     1      51.357   8.597  13.405  0.00  0.00    +0.000 A 
ATOM     15 CL   UNL     1      52.267   7.981  14.722  0.00  0.00    +0.000 Cl
ATOM     16  C   UNL     1      49.982   8.434  13.356  0.00  0.00    +0.000 A 
ENDBRANCH   6  10
BRANCH   4  18
ATOM     17  C   UNL     1      43.495  10.679  11.330  0.00  0.00    +0.000 C 
ATOM     18  O   UNL     1      44.692  10.877  12.068  0.00  0.00    +0.000 OA
ENDBRANCH   4  18
ENDBRANCH   1   8
BRANCH   1  19
ATOM     19  C   UNL     1      45.399   5.087  13.258  0.00  0.00    +0.000 C 
BRANCH  19  20
ATOM     20  N   UNL     1      46.813   4.730  13.411  0.00  0.00    +0.000 N 
ATOM     21  H   UNL     1      47.419   5.226  12.760  0.00  0.00    +0.000 HD
BRANCH  20  22
ATOM     22  C   UNL     1      47.271   4.747  14.737  0.00  0.00    +0.000 A 
ATOM     23  C   UNL     1      47.072   3.703  15.633  0.00  0.00    +0.000 A 
ATOM     24  N   UNL     1      47.462   3.691  16.918  0.00  0.00    +0.000 NA
ATOM     25  C   UNL     1      48.154   4.780  17.314  0.00  0.00    +0.000 A 
ATOM     26  N   UNL     1      48.506   5.819  16.529  0.00  0.00    +0.000 NA
ATOM     27  C   UNL     1      48.071   5.756  15.250  0.00  0.00    +0.000 A 
BRANCH  25  28
ATOM     28  C   UNL     1      48.517   4.795  18.776  0.00  0.00    +0.000 C 
ATOM     29  N   UNL     1      48.479   3.568  19.398  0.00  0.00    +0.000 N 
ATOM     30  O   UNL     1      48.821   5.799  19.397  0.00  0.00    +0.000 OA
ATOM     31  H   UNL     1      48.234   2.742  18.864  0.00  0.00    +0.000 HD
ATOM     32  H   UNL     1      48.717   3.496  20.376  0.00  0.00    +0.000 HD
ENDBRANCH  25  28
ENDBRANCH  20  22
ENDBRANCH  19  20
ENDBRANCH   1  19
TORSDOF 7
ENDMDL
