MODEL 1
REMARK VINA RESULT:    -8.905      0.000      0.000
REMARK INTER + INTRA:         -12.860
REMARK INTER:                 -12.028
REMARK INTRA:                  -0.831
REMARK UNBOUND:                -0.831
REMARK  Name = 
REMARK  7 active torsions:
REMARK  status: ('A' for Active; 'I' for Inactive)
REMARK    1  A    between atoms: C_1  and  O_2
REMARK    2  A    between atoms: O_2  and  C_3
REMARK    3  A    between atoms: C_6  and  C_7
REMARK    4  A    between atoms: C_11  and  C_12
REMARK    5  A    between atoms: C_12  and  O_13
REMARK    6  A    between atoms: O_13  and  C_14
REMARK    7  A    between atoms: C_17  and  C_18
REMARK                            x       y       z     vdW  Elec       q    Type
REMARK                         _______ _______ _______ _____ _____    ______ ____
ROOT
ATOM      1  C   UNL     1      46.548   6.296  12.244  0.00  0.00    +0.000 A 
ATOM      2  C   UNL     1      47.004   5.350  13.179  0.00  0.00    +0.000 A 
ATOM      3  C   UNL     1      46.338   4.137  13.375  0.00  0.00    +0.000 A 
ATOM      4  C   UNL     1      45.198   3.837  12.634  0.00  0.00    +0.000 A 
ATOM      5  C   UNL     1      44.709   4.751  11.698  0.00  0.00    +0.000 A 
ATOM      6  C   UNL     1      45.397   5.963  11.503  0.00  0.00    +0.000 A 
ENDROOT
BRANCH   1  10
ATOM      7  C   UNL     1      48.557  10.098  11.773  0.00  0.00    +0.000 A 
ATOM      8  C   UNL     1      47.194  10.052  12.051  0.00  0.00    +0.000 A 
ATOM      9  C   UNL     1      46.542   8.818  12.182  0.00  0.00    +0.000 A 
ATOM     10  C   UNL     1      47.231   7.599  12.059  0.00  0.00    +0.000 A 
ATOM     11  C   UNL     1      48.606   7.671  11.777  0.00  0.00    +0.000 A 
ATOM     12  C   UNL     1      49.257   8.903  11.632  0.00  0.00    +0.000 A 
BRANCH   7  14
ATOM     13  C   UNL     1      50.126  11.300  10.459  0.00  0.00    +0.000 C 
ATOM     14  O   UNL     1      49.310  11.229  11.621  0.00  0.00    +0.000 OA
ENDBRANCH   7  14
ENDBRANCH   1  10
BRANCH   5  15
ATOM     15  C   UNL     1      43.475   4.442  10.886  0.00  0.00    +0.000 C 
BRANCH  15  16
ATOM     16  O   UNL     1      43.644   3.158  10.292  0.00  0.00    +0.000 OA
BRANCH  16  17
ATOM     17  C   UNL     1      44.569   3.046   9.292  0.00  0.00    +0.000 A 
ATOM     18  C   UNL     1      44.987   4.063   8.435  0.00  0.00    +0.000 A 
ATOM     19  C   UNL     1      45.954   3.804   7.454  0.00  0.00    +0.000 A 
ATOM     20  C   UNL     1      46.512   2.526   7.317  0.00  0.00    +0.000 A 
ATOM     21  C   UNL     1      46.082   1.518   8.180  0.00  0.00    +0.000 A 
ATOM     22  F   UNL     1      46.581   0.273   8.098  0.00  0.00    +0.000 F 
ATOM     23  C   UNL     1      45.123   1.771   9.158  0.00  0.00    +0.000 A 
BRANCH  20  24
ATOM     24  C   UNL     1      47.533   2.308   6.261  0.00  0.00    +0.000 C 
ATOM     25  N   UNL     1      47.513   3.118   5.162  0.00  0.00    +0.000 N 
ATOM     26  O   UNL     1      48.378   1.425   6.365  0.00  0.00    +0.000 OA
ATOM     27  H   UNL     1      46.836   3.860   5.034  0.00  0.00    +0.000 HD
ATOM     28  H   UNL     1      48.209   2.967   4.445  0.00  0.00    +0.000 HD
ENDBRANCH  20  24
ENDBRANCH  16  17
ENDBRANCH  15  16
ENDBRANCH   5  15
TORSDOF 6
ENDMDL
MODEL 2
REMARK VINA RESULT:    -8.652      1.586      2.292
REMARK INTER + INTRA:         -12.518
REMARK INTER:                 -11.557
REMARK INTRA:                  -0.961
REMARK UNBOUND:                -0.831
REMARK  Name = 
REMARK  7 active torsions:
REMARK  status: ('A' for Active; 'I' for Inactive)
REMARK    1  A    between atoms: C_1  and  O_2
REMARK    2  A    between atoms: O_2  and  C_3
REMARK    3  A    between atoms: C_6  and  C_7
REMARK    4  A    between atoms: C_11  and  C_12
REMARK    5  A    between atoms: C_12  and  O_13
REMARK    6  A    between atoms: O_13  and  C_14
REMARK    7  A    between atoms: C_17  and  C_18
REMARK                            x       y       z     vdW  Elec       q    Type
REMARK                         _______ _______ _______ _____ _____    ______ ____
ROOT
ATOM      1  C   UNL     1      46.014   6.572  12.188  0.00  0.00    +0.000 A 
ATOM      2  C   UNL     1      45.032   7.522  11.858  0.00  0.00    +0.000 A 
ATOM      3  C   UNL     1      43.746   7.137  11.468  0.00  0.00    +0.000 A 
ATOM      4  C   UNL     1      43.408   5.788  11.402  0.00  0.00    +0.000 A 
ATOM      5  C   UNL     1      44.357   4.812  11.717  0.00  0.00    +0.000 A 
ATOM      6  C   UNL     1      45.643   5.215  12.120  0.00  0.00    +0.000 A 
ENDROOT
BRANCH   1  10
ATOM      7  C   UNL     1      50.003   7.811  13.314  0.00  0.00    +0.000 A 
ATOM      8  C   UNL     1      49.556   7.980  12.006  0.00  0.00    +0.000 A 
ATOM      9  C   UNL     1      48.271   7.558  11.640  0.00  0.00    +0.000 A 
ATOM     10  C   UNL     1      47.389   6.975  12.567  0.00  0.00    +0.000 A 
ATOM     11  C   UNL     1      47.864   6.814  13.880  0.00  0.00    +0.000 A 
ATOM     12  C   UNL     1      49.153   7.222  14.245  0.00  0.00    +0.000 A 
BRANCH   7  14
ATOM     13  C   UNL     1      51.534   7.769  15.127  0.00  0.00    +0.000 C 
ATOM     14  O   UNL     1      51.228   8.176  13.800  0.00  0.00    +0.000 OA
ENDBRANCH   7  14
ENDBRANCH   1  10
BRANCH   5  15
ATOM     15  C   UNL     1      44.008   3.345  11.651  0.00  0.00    +0.000 C 
BRANCH  15  16
ATOM     16  O   UNL     1      43.565   3.053  10.329  0.00  0.00    +0.000 OA
BRANCH  16  17
ATOM     17  C   UNL     1      44.516   2.983   9.350  0.00  0.00    +0.000 A 
ATOM     18  C   UNL     1      45.006   4.049   8.595  0.00  0.00    +0.000 A 
ATOM     19  C   UNL     1      45.992   3.829   7.624  0.00  0.00    +0.000 A 
ATOM     20  C   UNL     1      46.498   2.543   7.395  0.00  0.00    +0.000 A 
ATOM     21  C   UNL     1      45.998   1.486   8.156  0.00  0.00    +0.000 A 
ATOM     22  F   UNL     1      46.445   0.232   7.982  0.00  0.00    +0.000 F 
ATOM     23  C   UNL     1      45.019   1.700   9.123  0.00  0.00    +0.000 A 
BRANCH  20  24
ATOM     24  C   UNL     1      47.543   2.368   6.354  0.00  0.00    +0.000 C 
ATOM     25  N   UNL     1      47.372   2.992   5.151  0.00  0.00    +0.000 N 
ATOM     26  O   UNL     1      48.539   1.682   6.560  0.00  0.00    +0.000 OA
ATOM     27  H   UNL     1      46.567   3.568   4.937  0.00  0.00    +0.000 HD
ATOM     28  H   UNL     1      48.084   2.871   4.445  0.00  0.00    +0.000 HD
ENDBRANCH  20  24
ENDBRANCH  16  17
ENDBRANCH  15  16
ENDBRANCH   5  15
TORSDOF 6
ENDMDL
MODEL 3
REMARK VINA RESULT:    -8.532      3.061      4.604
REMARK INTER + INTRA:         -12.356
REMARK INTER:                 -11.607
REMARK INTRA:                  -0.749
REMARK UNBOUND:                -0.831
REMARK  Name = 
REMARK  7 active torsions:
REMARK  status: ('A' for Active; 'I' for Inactive)
REMARK    1  A    between atoms: C_1  and  O_2
REMARK    2  A    between atoms: O_2  and  C_3
REMARK    3  A    between atoms: C_6  and  C_7
REMARK    4  A    between atoms: C_11  and  C_12
REMARK    5  A    between atoms: C_12  and  O_13
REMARK    6  A    between atoms: O_13  and  C_14
REMARK    7  A    between atoms: C_17  and  C_18
REMARK                            x       y       z     vdW  Elec       q    Type
REMARK                         _______ _______ _______ _____ _____    ______ ____
ROOT
ATOM      1  C   UNL     1      46.657   5.541  13.656  0.00  0.00    +0.000 A 
ATOM      2  C   UNL     1      47.092   6.670  12.940  0.00  0.00    +0.000 A 
ATOM      3  C   UNL     1      46.450   7.083  11.769  0.00  0.00    +0.000 A 
ATOM      4  C   UNL     1      45.350   6.378  11.287  0.00  0.00    +0.000 A 
ATOM      5  C   UNL     1      44.889   5.248  11.966  0.00  0.00    +0.000 A 
ATOM      6  C   UNL     1      45.538   4.851  13.149  0.00  0.00    +0.000 A 
ENDROOT
BRANCH   1  10
ATOM      7  C   UNL     1      48.649   4.214  17.260  0.00  0.00    +0.000 A 
ATOM      8  C   UNL     1      48.900   5.482  16.743  0.00  0.00    +0.000 A 
ATOM      9  C   UNL     1      48.269   5.901  15.563  0.00  0.00    +0.000 A 
ATOM     10  C   UNL     1      47.358   5.078  14.878  0.00  0.00    +0.000 A 
ATOM     11  C   UNL     1      47.122   3.802  15.418  0.00  0.00    +0.000 A 
ATOM     12  C   UNL     1      47.762   3.376  16.588  0.00  0.00    +0.000 A 
BRANCH   7  14
ATOM     13  C   UNL     1      49.087   4.465  19.579  0.00  0.00    +0.000 C 
ATOM     14  O   UNL     1      49.196   3.685  18.396  0.00  0.00    +0.000 OA
ENDBRANCH   7  14
ENDBRANCH   1  10
BRANCH   5  15
ATOM     15  C   UNL     1      43.698   4.472  11.458  0.00  0.00    +0.000 C 
BRANCH  15  16
ATOM     16  O   UNL     1      43.685   4.560  10.036  0.00  0.00    +0.000 OA
BRANCH  16  17
ATOM     17  C   UNL     1      44.533   3.737   9.349  0.00  0.00    +0.000 A 
ATOM     18  C   UNL     1      44.714   2.370   9.564  0.00  0.00    +0.000 A 
ATOM     19  C   UNL     1      45.619   1.648   8.775  0.00  0.00    +0.000 A 
ATOM     20  C   UNL     1      46.353   2.282   7.763  0.00  0.00    +0.000 A 
ATOM     21  C   UNL     1      46.163   3.649   7.561  0.00  0.00    +0.000 A 
ATOM     22  F   UNL     1      46.838   4.310   6.607  0.00  0.00    +0.000 F 
ATOM     23  C   UNL     1      45.264   4.371   8.343  0.00  0.00    +0.000 A 
BRANCH  20  24
ATOM     24  C   UNL     1      47.297   1.467   6.956  0.00  0.00    +0.000 C 
ATOM     25  N   UNL     1      48.483   2.030   6.580  0.00  0.00    +0.000 N 
ATOM     26  O   UNL     1      47.027   0.315   6.631  0.00  0.00    +0.000 OA
ATOM     27  H   UNL     1      48.749   2.975   6.825  0.00  0.00    +0.000 HD
ATOM     28  H   UNL     1      49.122   1.473   6.030  0.00  0.00    +0.000 HD
ENDBRANCH  20  24
ENDBRANCH  16  17
ENDBRANCH  15  16
ENDBRANCH   5  15
TORSDOF 6
ENDMDL
MODEL 4
REMARK VINA RESULT:    -6.871      1.858      2.884
REMARK INTER + INTRA:         -10.113
REMARK INTER:                  -9.267
REMARK INTRA:                  -0.846
REMARK UNBOUND:                -0.831
REMARK  Name = 
REMARK  7 active torsions:
REMARK  status: ('A' for Active; 'I' for Inactive)
REMARK    1  A    between atoms: C_1  and  O_2
REMARK    2  A    between atoms: O_2  and  C_3
REMARK    3  A    between atoms: C_6  and  C_7
REMARK    4  A    between atoms: C_11  and  C_12
REMARK    5  A    between atoms: C_12  and  O_13
REMARK    6  A    between atoms: O_13  and  C_14
REMARK    7  A    between atoms: C_17  and  C_18
REMARK                            x       y       z     vdW  Elec       q    Type
REMARK                         _______ _______ _______ _____ _____    ______ ____
ROOT
ATOM      1  C   UNL     1      47.429   8.162  11.955  0.00  0.00    +0.000 A 
ATOM      2  C   UNL     1      46.486   9.152  12.285  0.00  0.00    +0.000 A 
ATOM      3  C   UNL     1      45.154   8.828  12.559  0.00  0.00    +0.000 A 
ATOM      4  C   UNL     1      44.733   7.501  12.517  0.00  0.00    +0.000 A 
ATOM      5  C   UNL     1      45.638   6.489  12.189  0.00  0.00    +0.000 A 
ATOM      6  C   UNL     1      46.977   6.829  11.927  0.00  0.00    +0.000 A 
ENDROOT
BRANCH   1  10
ATOM      7  C   UNL     1      51.512   9.161  10.932  0.00  0.00    +0.000 A 
ATOM      8  C   UNL     1      51.140   7.834  11.128  0.00  0.00    +0.000 A 
ATOM      9  C   UNL     1      49.821   7.515  11.480  0.00  0.00    +0.000 A 
ATOM     10  C   UNL     1      48.834   8.506  11.628  0.00  0.00    +0.000 A 
ATOM     11  C   UNL     1      49.234   9.838  11.427  0.00  0.00    +0.000 A 
ATOM     12  C   UNL     1      50.555  10.159  11.089  0.00  0.00    +0.000 A 
BRANCH   7  14
ATOM     13  C   UNL     1      53.397   8.940   9.506  0.00  0.00    +0.000 C 
ATOM     14  O   UNL     1      52.759   9.606  10.588  0.00  0.00    +0.000 OA
ENDBRANCH   7  14
ENDBRANCH   1  10
BRANCH   5  15
ATOM     15  C   UNL     1      45.198   5.046  12.138  0.00  0.00    +0.000 C 
BRANCH  15  16
ATOM     16  O   UNL     1      44.430   4.857  10.953  0.00  0.00    +0.000 OA
BRANCH  16  17
ATOM     17  C   UNL     1      44.959   4.051   9.984  0.00  0.00    +0.000 A 
ATOM     18  C   UNL     1      44.800   2.670   9.880  0.00  0.00    +0.000 A 
ATOM     19  C   UNL     1      45.398   1.970   8.824  0.00  0.00    +0.000 A 
ATOM     20  C   UNL     1      46.164   2.642   7.861  0.00  0.00    +0.000 A 
ATOM     21  C   UNL     1      46.316   4.024   7.980  0.00  0.00    +0.000 A 
ATOM     22  F   UNL     1      47.037   4.722   7.088  0.00  0.00    +0.000 F 
ATOM     23  C   UNL     1      45.722   4.724   9.027  0.00  0.00    +0.000 A 
BRANCH  20  24
ATOM     24  C   UNL     1      46.775   1.851   6.763  0.00  0.00    +0.000 C 
ATOM     25  N   UNL     1      46.778   2.382   5.505  0.00  0.00    +0.000 N 
ATOM     26  O   UNL     1      47.267   0.747   6.971  0.00  0.00    +0.000 OA
ATOM     27  H   UNL     1      46.385   3.289   5.286  0.00  0.00    +0.000 HD
ATOM     28  H   UNL     1      47.194   1.841   4.760  0.00  0.00    +0.000 HD
ENDBRANCH  20  24
ENDBRANCH  16  17
ENDBRANCH  15  16
ENDBRANCH   5  15
TORSDOF 6
ENDMDL
MODEL 5
REMARK VINA RESULT:    -6.827      5.849      8.689
REMARK INTER + INTRA:         -10.053
REMARK INTER:                  -9.023
REMARK INTRA:                  -1.030
REMARK UNBOUND:                -0.831
REMARK  Name = 
REMARK  7 active torsions:
REMARK  status: ('A' for Active; 'I' for Inactive)
REMARK    1  A    between atoms: C_1  and  O_2
REMARK    2  A    between atoms: O_2  and  C_3
REMARK    3  A    between atoms: C_6  and  C_7
REMARK    4  A    between atoms: C_11  and  C_12
REMARK    5  A    between atoms: C_12  and  O_13
REMARK    6  A    between atoms: O_13  and  C_14
REMARK    7  A    between atoms: C_17  and  C_18
REMARK                            x       y       z     vdW  Elec       q    Type
REMARK                         _______ _______ _______ _____ _____    ______ ____
ROOT
ATOM      1  C   UNL     1      48.025   6.426  13.422  0.00  0.00    +0.000 A 
ATOM      2  C   UNL     1      48.983   7.152  12.692  0.00  0.00    +0.000 A 
ATOM      3  C   UNL     1      50.066   7.770  13.323  0.00  0.00    +0.000 A 
ATOM      4  C   UNL     1      50.222   7.674  14.703  0.00  0.00    +0.000 A 
ATOM      5  C   UNL     1      49.290   6.966  15.465  0.00  0.00    +0.000 A 
ATOM      6  C   UNL     1      48.211   6.339  14.815  0.00  0.00    +0.000 A 
ENDROOT
BRANCH   1  10
ATOM      7  C   UNL     1      44.654   4.560  11.455  0.00  0.00    +0.000 A 
ATOM      8  C   UNL     1      45.187   5.748  10.963  0.00  0.00    +0.000 A 
ATOM      9  C   UNL     1      46.265   6.361  11.615  0.00  0.00    +0.000 A 
ATOM     10  C   UNL     1      46.855   5.799  12.761  0.00  0.00    +0.000 A 
ATOM     11  C   UNL     1      46.299   4.601  13.240  0.00  0.00    +0.000 A 
ATOM     12  C   UNL     1      45.212   3.994  12.598  0.00  0.00    +0.000 A 
BRANCH   7  14
ATOM     13  C   UNL     1      43.260   2.642  11.559  0.00  0.00    +0.000 C 
ATOM     14  O   UNL     1      43.608   3.862  10.918  0.00  0.00    +0.000 OA
ENDBRANCH   7  14
ENDBRANCH   1  10
BRANCH   5  15
ATOM     15  C   UNL     1      49.443   6.850  16.962  0.00  0.00    +0.000 C 
BRANCH  15  16
ATOM     16  O   UNL     1      48.774   5.666  17.387  0.00  0.00    +0.000 OA
BRANCH  16  17
ATOM     17  C   UNL     1      49.500   4.508  17.405  0.00  0.00    +0.000 A 
ATOM     18  C   UNL     1      49.049   3.243  17.028  0.00  0.00    +0.000 A 
ATOM     19  C   UNL     1      49.911   2.141  17.092  0.00  0.00    +0.000 A 
ATOM     20  C   UNL     1      51.232   2.288  17.536  0.00  0.00    +0.000 A 
ATOM     21  C   UNL     1      51.669   3.559  17.912  0.00  0.00    +0.000 A 
ATOM     22  F   UNL     1      52.924   3.762  18.344  0.00  0.00    +0.000 F 
ATOM     23  C   UNL     1      50.816   4.658  17.848  0.00  0.00    +0.000 A 
BRANCH  20  24
ATOM     24  C   UNL     1      52.102   1.085  17.583  0.00  0.00    +0.000 C 
ATOM     25  N   UNL     1      51.644  -0.022  18.237  0.00  0.00    +0.000 N 
ATOM     26  O   UNL     1      53.207   1.077  17.049  0.00  0.00    +0.000 OA
ATOM     27  H   UNL     1      50.739  -0.061  18.691  0.00  0.00    +0.000 HD
ATOM     28  H   UNL     1      52.238  -0.838  18.268  0.00  0.00    +0.000 HD
ENDBRANCH  20  24
ENDBRANCH  16  17
ENDBRANCH  15  16
ENDBRANCH   5  15
TORSDOF 6
ENDMDL
MODEL 6
REMARK VINA RESULT:    -6.813      2.473      3.381
REMARK INTER + INTRA:         -10.034
REMARK INTER:                  -8.970
REMARK INTRA:                  -1.064
REMARK UNBOUND:                -0.831
REMARK  Name = 
REMARK  7 active torsions:
REMARK  status: ('A' for Active; 'I' for Inactive)
REMARK    1  A    between atoms: C_1  and  O_2
REMARK    2  A    between atoms: O_2  and  C_3
REMARK    3  A    between atoms: C_6  and  C_7
REMARK    4  A    between atoms: C_11  and  C_12
REMARK    5  A    between atoms: C_12  and  O_13
REMARK    6  A    between atoms: O_13  and  C_14
REMARK    7  A    between atoms: C_17  and  C_18
REMARK                            x       y       z     vdW  Elec       q    Type
REMARK                         _______ _______ _______ _____ _____    ______ ____
ROOT
ATOM      1  C   UNL     1      45.280   5.159  13.033  0.00  0.00    +0.000 A 
ATOM      2  C   UNL     1      44.141   5.982  13.027  0.00  0.00    +0.000 A 
ATOM      3  C   UNL     1      42.964   5.595  12.380  0.00  0.00    +0.000 A 
ATOM      4  C   UNL     1      42.895   4.368  11.725  0.00  0.00    +0.000 A 
ATOM      5  C   UNL     1      44.007   3.523  11.703  0.00  0.00    +0.000 A 
ATOM      6  C   UNL     1      45.180   3.921  12.368  0.00  0.00    +0.000 A 
ENDROOT
BRANCH   1  10
ATOM      7  C   UNL     1      48.996   6.343  14.905  0.00  0.00    +0.000 A 
ATOM      8  C   UNL     1      48.168   5.405  15.515  0.00  0.00    +0.000 A 
ATOM      9  C   UNL     1      46.955   5.039  14.916  0.00  0.00    +0.000 A 
ATOM     10  C   UNL     1      46.542   5.581  13.686  0.00  0.00    +0.000 A 
ATOM     11  C   UNL     1      47.393   6.528  13.092  0.00  0.00    +0.000 A 
ATOM     12  C   UNL     1      48.599   6.906  13.695  0.00  0.00    +0.000 A 
BRANCH   7  14
ATOM     13  C   UNL     1      50.332   6.875  16.794  0.00  0.00    +0.000 C 
ATOM     14  O   UNL     1      50.199   6.786  15.381  0.00  0.00    +0.000 OA
ENDBRANCH   7  14
ENDBRANCH   1  10
BRANCH   5  15
ATOM     15  C   UNL     1      43.950   2.190  10.997  0.00  0.00    +0.000 C 
BRANCH  15  16
ATOM     16  O   UNL     1      43.738   2.431   9.609  0.00  0.00    +0.000 OA
BRANCH  16  17
ATOM     17  C   UNL     1      44.815   2.299   8.778  0.00  0.00    +0.000 A 
ATOM     18  C   UNL     1      45.569   1.144   8.578  0.00  0.00    +0.000 A 
ATOM     19  C   UNL     1      46.649   1.154   7.685  0.00  0.00    +0.000 A 
ATOM     20  C   UNL     1      46.988   2.318   6.983  0.00  0.00    +0.000 A 
ATOM     21  C   UNL     1      46.225   3.467   7.194  0.00  0.00    +0.000 A 
ATOM     22  F   UNL     1      46.502   4.612   6.549  0.00  0.00    +0.000 F 
ATOM     23  C   UNL     1      45.150   3.462   8.080  0.00  0.00    +0.000 A 
BRANCH  20  24
ATOM     24  C   UNL     1      48.141   2.272   6.048  0.00  0.00    +0.000 C 
ATOM     25  N   UNL     1      49.331   2.802   6.458  0.00  0.00    +0.000 N 
ATOM     26  O   UNL     1      48.037   1.771   4.933  0.00  0.00    +0.000 OA
ATOM     27  H   UNL     1      49.463   3.224   7.369  0.00  0.00    +0.000 HD
ATOM     28  H   UNL     1      50.113   2.769   5.820  0.00  0.00    +0.000 HD
ENDBRANCH  20  24
ENDBRANCH  16  17
ENDBRANCH  15  16
ENDBRANCH   5  15
TORSDOF 6
ENDMDL
MODEL 7
REMARK VINA RESULT:    -6.614      6.095      8.164
REMARK INTER + INTRA:          -9.766
REMARK INTER:                  -8.801
REMARK INTRA:                  -0.965
REMARK UNBOUND:                -0.831
REMARK  Name = 
REMARK  7 active torsions:
REMARK  status: ('A' for Active; 'I' for Inactive)
REMARK    1  A    between atoms: C_1  and  O_2
REMARK    2  A    between atoms: O_2  and  C_3
REMARK    3  A    between atoms: C_6  and  C_7
REMARK    4  A    between atoms: C_11  and  C_12
REMARK    5  A    between atoms: C_12  and  O_13
REMARK    6  A    between atoms: O_13  and  C_14
REMARK    7  A    between atoms: C_17  and  C_18
REMARK                            x       y       z     vdW  Elec       q    Type
REMARK                         _______ _______ _______ _____ _____    ______ ____
ROOT
ATOM      1  C   UNL     1      49.727   3.314  17.439  0.00  0.00    +0.000 A 
ATOM      2  C   UNL     1      48.566   2.723  17.968  0.00  0.00    +0.000 A 
ATOM      3  C   UNL     1      47.298   3.262  17.729  0.00  0.00    +0.000 A 
ATOM      4  C   UNL     1      47.160   4.407  16.948  0.00  0.00    +0.000 A 
ATOM      5  C   UNL     1      48.290   5.027  16.408  0.00  0.00    +0.000 A 
ATOM      6  C   UNL     1      49.557   4.466  16.648  0.00  0.00    +0.000 A 
ENDROOT
BRANCH   1  10
ATOM      7  C   UNL     1      53.639   1.692  18.323  0.00  0.00    +0.000 A 
ATOM      8  C   UNL     1      53.336   3.012  18.643  0.00  0.00    +0.000 A 
ATOM      9  C   UNL     1      52.074   3.540  18.336  0.00  0.00    +0.000 A 
ATOM     10  C   UNL     1      51.075   2.765  17.721  0.00  0.00    +0.000 A 
ATOM     11  C   UNL     1      51.406   1.436  17.406  0.00  0.00    +0.000 A 
ATOM     12  C   UNL     1      52.670   0.910  17.699  0.00  0.00    +0.000 A 
BRANCH   7  14
ATOM     13  C   UNL     1      54.760  -0.345  18.801  0.00  0.00    +0.000 C 
ATOM     14  O   UNL     1      54.825   1.056  18.566  0.00  0.00    +0.000 OA
ENDBRANCH   7  14
ENDBRANCH   1  10
BRANCH   5  15
ATOM     15  C   UNL     1      48.159   6.268  15.559  0.00  0.00    +0.000 C 
BRANCH  15  16
ATOM     16  O   UNL     1      48.225   5.879  14.190  0.00  0.00    +0.000 OA
BRANCH  16  17
ATOM     17  C   UNL     1      47.057   5.876  13.481  0.00  0.00    +0.000 A 
ATOM     18  C   UNL     1      46.429   6.986  12.917  0.00  0.00    +0.000 A 
ATOM     19  C   UNL     1      45.231   6.832  12.208  0.00  0.00    +0.000 A 
ATOM     20  C   UNL     1      44.645   5.567  12.055  0.00  0.00    +0.000 A 
ATOM     21  C   UNL     1      45.284   4.466  12.626  0.00  0.00    +0.000 A 
ATOM     22  F   UNL     1      44.771   3.230  12.512  0.00  0.00    +0.000 F 
ATOM     23  C   UNL     1      46.476   4.615  13.331  0.00  0.00    +0.000 A 
BRANCH  20  24
ATOM     24  C   UNL     1      43.375   5.462  11.292  0.00  0.00    +0.000 C 
ATOM     25  N   UNL     1      42.264   6.075  11.795  0.00  0.00    +0.000 N 
ATOM     26  O   UNL     1      43.317   4.842  10.235  0.00  0.00    +0.000 OA
ATOM     27  H   UNL     1      42.265   6.598  12.662  0.00  0.00    +0.000 HD
ATOM     28  H   UNL     1      41.401   6.001  11.273  0.00  0.00    +0.000 HD
ENDBRANCH  20  24
ENDBRANCH  16  17
ENDBRANCH  15  16
ENDBRANCH   5  15
TORSDOF 6
ENDMDL
MODEL 8
REMARK VINA RESULT:    -6.460      5.227      7.684
REMARK INTER + INTRA:          -9.557
REMARK INTER:                  -8.532
REMARK INTRA:                  -1.025
REMARK UNBOUND:                -0.831
REMARK  Name = 
REMARK  7 active torsions:
REMARK  status: ('A' for Active; 'I' for Inactive)
REMARK    1  A    between atoms: C_1  and  O_2
REMARK    2  A    between atoms: O_2  and  C_3
REMARK    3  A    between atoms: C_6  and  C_7
REMARK    4  A    between atoms: C_11  and  C_12
REMARK    5  A    between atoms: C_12  and  O_13
REMARK    6  A    between atoms: O_13  and  C_14
REMARK    7  A    between atoms: C_17  and  C_18
REMARK                            x       y       z     vdW  Elec       q    Type
REMARK                         _______ _______ _______ _____ _____    ______ ____
ROOT
ATOM      1  C   UNL     1      49.349   6.089  17.203  0.00  0.00    +0.000 A 
ATOM      2  C   UNL     1      49.153   6.881  18.348  0.00  0.00    +0.000 A 
ATOM      3  C   UNL     1      48.633   8.176  18.260  0.00  0.00    +0.000 A 
ATOM      4  C   UNL     1      48.291   8.710  17.021  0.00  0.00    +0.000 A 
ATOM      5  C   UNL     1      48.475   7.958  15.858  0.00  0.00    +0.000 A 
ATOM      6  C   UNL     1      48.988   6.653  15.964  0.00  0.00    +0.000 A 
ENDROOT
BRANCH   1  10
ATOM      7  C   UNL     1      51.037   2.119  17.519  0.00  0.00    +0.000 A 
ATOM      8  C   UNL     1      51.832   3.241  17.736  0.00  0.00    +0.000 A 
ATOM      9  C   UNL     1      51.287   4.526  17.612  0.00  0.00    +0.000 A 
ATOM     10  C   UNL     1      49.934   4.730  17.288  0.00  0.00    +0.000 A 
ATOM     11  C   UNL     1      49.153   3.582  17.072  0.00  0.00    +0.000 A 
ATOM     12  C   UNL     1      49.698   2.297  17.182  0.00  0.00    +0.000 A 
BRANCH   7  14
ATOM     13  C   UNL     1      52.842   0.588  17.707  0.00  0.00    +0.000 C 
ATOM     14  O   UNL     1      51.442   0.816  17.607  0.00  0.00    +0.000 OA
ENDBRANCH   7  14
ENDBRANCH   1  10
BRANCH   5  15
ATOM     15  C   UNL     1      48.109   8.523  14.507  0.00  0.00    +0.000 C 
BRANCH  15  16
ATOM     16  O   UNL     1      48.125   7.456  13.562  0.00  0.00    +0.000 OA
BRANCH  16  17
ATOM     17  C   UNL     1      46.937   7.121  12.974  0.00  0.00    +0.000 A 
ATOM     18  C   UNL     1      46.118   7.965  12.224  0.00  0.00    +0.000 A 
ATOM     19  C   UNL     1      44.925   7.481  11.674  0.00  0.00    +0.000 A 
ATOM     20  C   UNL     1      44.535   6.148  11.867  0.00  0.00    +0.000 A 
ATOM     21  C   UNL     1      45.363   5.317  12.621  0.00  0.00    +0.000 A 
ATOM     22  F   UNL     1      45.042   4.031  12.840  0.00  0.00    +0.000 F 
ATOM     23  C   UNL     1      46.551   5.794  13.170  0.00  0.00    +0.000 A 
BRANCH  20  24
ATOM     24  C   UNL     1      43.260   5.688  11.260  0.00  0.00    +0.000 C 
ATOM     25  N   UNL     1      42.087   6.156  11.779  0.00  0.00    +0.000 N 
ATOM     26  O   UNL     1      43.251   4.907  10.314  0.00  0.00    +0.000 OA
ATOM     27  H   UNL     1      42.046   6.802  12.558  0.00  0.00    +0.000 HD
ATOM     28  H   UNL     1      41.222   5.841  11.364  0.00  0.00    +0.000 HD
ENDBRANCH  20  24
ENDBRANCH  16  17
ENDBRANCH  15  16
ENDBRANCH   5  15
TORSDOF 6
ENDMDL
MODEL 9
REMARK VINA RESULT:    -6.316      6.087      8.389
REMARK INTER + INTRA:          -9.363
REMARK INTER:                  -8.335
REMARK INTRA:                  -1.028
REMARK UNBOUND:                -0.831
REMARK  Name = 
REMARK  7 active torsions:
REMARK  status: ('A' for Active; 'I' for Inactive)
REMARK    1  A    between atoms: C_1  and  O_2
REMARK    2  A    between atoms: O_2  and  C_3
REMARK    3  A    between atoms: C_6  and  C_7
REMARK    4  A    between atoms: C_11  and  C_12
REMARK    5  A    between atoms: C_12  and  O_13
REMARK    6  A    between atoms: O_13  and  C_14
REMARK    7  A    between atoms: C_17  and  C_18
REMARK                            x       y       z     vdW  Elec       q    Type
REMARK                         _______ _______ _______ _____ _____    ______ ____
ROOT
ATOM      1  C   UNL     1      50.168   5.000  17.800  0.00  0.00    +0.000 A 
ATOM      2  C   UNL     1      49.655   5.565  18.981  0.00  0.00    +0.000 A 
ATOM      3  C   UNL     1      48.911   6.748  18.960  0.00  0.00    +0.000 A 
ATOM      4  C   UNL     1      48.655   7.393  17.753  0.00  0.00    +0.000 A 
ATOM      5  C   UNL     1      49.151   6.866  16.558  0.00  0.00    +0.000 A 
ATOM      6  C   UNL     1      49.889   5.670  16.594  0.00  0.00    +0.000 A 
ENDROOT
BRANCH   1  10
ATOM      7  C   UNL     1      52.587   1.413  17.802  0.00  0.00    +0.000 A 
ATOM      8  C   UNL     1      51.263   1.369  17.376  0.00  0.00    +0.000 A 
ATOM      9  C   UNL     1      50.476   2.528  17.396  0.00  0.00    +0.000 A 
ATOM     10  C   UNL     1      50.990   3.765  17.823  0.00  0.00    +0.000 A 
ATOM     11  C   UNL     1      52.328   3.784  18.250  0.00  0.00    +0.000 A 
ATOM     12  C   UNL     1      53.113   2.624  18.244  0.00  0.00    +0.000 A 
BRANCH   7  14
ATOM     13  C   UNL     1      54.618   0.468  17.016  0.00  0.00    +0.000 C 
ATOM     14  O   UNL     1      53.459   0.360  17.833  0.00  0.00    +0.000 OA
ENDBRANCH   7  14
ENDBRANCH   1  10
BRANCH   5  15
ATOM     15  C   UNL     1      48.883   7.553  15.240  0.00  0.00    +0.000 C 
BRANCH  15  16
ATOM     16  O   UNL     1      48.825   6.556  14.224  0.00  0.00    +0.000 OA
BRANCH  16  17
ATOM     17  C   UNL     1      47.588   6.200  13.765  0.00  0.00    +0.000 A 
ATOM     18  C   UNL     1      46.893   5.032  14.080  0.00  0.00    +0.000 A 
ATOM     19  C   UNL     1      45.623   4.801  13.537  0.00  0.00    +0.000 A 
ATOM     20  C   UNL     1      45.033   5.732  12.671  0.00  0.00    +0.000 A 
ATOM     21  C   UNL     1      45.740   6.894  12.363  0.00  0.00    +0.000 A 
ATOM     22  F   UNL     1      45.226   7.823  11.540  0.00  0.00    +0.000 F 
ATOM     23  C   UNL     1      47.003   7.129  12.902  0.00  0.00    +0.000 A 
BRANCH  20  24
ATOM     24  C   UNL     1      43.683   5.436  12.125  0.00  0.00    +0.000 C 
ATOM     25  N   UNL     1      42.614   5.492  12.973  0.00  0.00    +0.000 N 
ATOM     26  O   UNL     1      43.524   5.148  10.944  0.00  0.00    +0.000 OA
ATOM     27  H   UNL     1      42.698   5.726  13.954  0.00  0.00    +0.000 HD
ATOM     28  H   UNL     1      41.698   5.290  12.598  0.00  0.00    +0.000 HD
ENDBRANCH  20  24
ENDBRANCH  16  17
ENDBRANCH  15  16
ENDBRANCH   5  15
TORSDOF 6
ENDMDL
