MODEL 1
REMARK VINA RESULT:    -9.542      0.000      0.000
REMARK INTER + INTRA:         -14.751
REMARK INTER:                 -13.446
REMARK INTRA:                  -1.305
REMARK UNBOUND:                -1.305
REMARK  Name = 
REMARK  7 active torsions:
REMARK  status: ('A' for Active; 'I' for Inactive)
REMARK    1  A    between atoms: C_2  and  C_4
REMARK    2  A    between atoms: C_7  and  O_8
REMARK    3  A    between atoms: O_8  and  C_9
REMARK    4  A    between atoms: C_9  and  C_10
REMARK    5  A    between atoms: C_10  and  C_13
REMARK    6  A    between atoms: C_17  and  C_18
REMARK    7  A    between atoms: C_22  and  C_23
REMARK                            x       y       z     vdW  Elec       q    Type
REMARK                         _______ _______ _______ _____ _____    ______ ____
ROOT
ATOM      1  C   UNL     1      45.182   5.325  12.391  0.00  0.00    +0.000 A 
ATOM      2  C   UNL     1      45.720   6.178  11.420  0.00  0.00    +0.000 A 
ATOM      3  C   UNL     1      46.958   6.790  11.624  0.00  0.00    +0.000 A 
ATOM      4  C   UNL     1      47.664   6.578  12.810  0.00  0.00    +0.000 A 
ATOM      5  C   UNL     1      47.155   5.737  13.812  0.00  0.00    +0.000 A 
ATOM      6  C   UNL     1      45.922   5.095  13.565  0.00  0.00    +0.000 A 
ENDROOT
BRANCH   5   7
ATOM      7  C   UNL     1      47.860   5.578  15.100  0.00  0.00    +0.000 A 
ATOM      8  C   UNL     1      48.949   6.378  15.452  0.00  0.00    +0.000 A 
ATOM      9  C   UNL     1      49.627   6.135  16.641  0.00  0.00    +0.000 A 
ATOM     10  C   UNL     1      49.203   5.101  17.463  0.00  0.00    +0.000 A 
ATOM     11  C   UNL     1      48.106   4.354  17.061  0.00  0.00    +0.000 A 
ATOM     12  N   UNL     1      47.421   4.570  15.901  0.00  0.00    +0.000 NA
BRANCH  11  13
ATOM     13  C   UNL     1      47.634   3.230  17.934  0.00  0.00    +0.000 C 
ATOM     14  N   UNL     1      48.293   3.077  19.126  0.00  0.00    +0.000 N 
ATOM     15  O   UNL     1      46.714   2.488  17.621  0.00  0.00    +0.000 OA
ATOM     16  H   UNL     1      49.031   3.728  19.377  0.00  0.00    +0.000 HD
ATOM     17  H   UNL     1      47.999   2.353  19.764  0.00  0.00    +0.000 HD
ENDBRANCH  11  13
ENDBRANCH   5   7
BRANCH   1  18
ATOM     18  C   UNL     1      43.793   4.704  12.228  0.00  0.00    +0.000 C 
ATOM     19  F   UNL     1      42.820   5.514  12.749  0.00  0.00    +0.000 F 
ATOM     20  F   UNL     1      43.682   3.522  12.899  0.00  0.00    +0.000 F 
BRANCH  18  21
ATOM     21  C   UNL     1      43.486   4.468  10.738  0.00  0.00    +0.000 C 
BRANCH  21  22
ATOM     22  O   UNL     1      43.596   3.078  10.341  0.00  0.00    +0.000 OA
BRANCH  22  26
ATOM     23  C   UNL     1      46.484   2.588   7.425  0.00  0.00    +0.000 A 
ATOM     24  C   UNL     1      45.907   3.847   7.605  0.00  0.00    +0.000 A 
ATOM     25  C   UNL     1      44.923   4.017   8.587  0.00  0.00    +0.000 A 
ATOM     26  C   UNL     1      44.557   2.918   9.355  0.00  0.00    +0.000 A 
ATOM     27  N   UNL     1      45.099   1.693   9.186  0.00  0.00    +0.000 NA
ATOM     28  C   UNL     1      46.037   1.548   8.223  0.00  0.00    +0.000 A 
BRANCH  23  30
ATOM     29  N   UNL     1      47.581   3.124   5.333  0.00  0.00    +0.000 N 
ATOM     30  C   UNL     1      47.532   2.304   6.426  0.00  0.00    +0.000 C 
ATOM     31  O   UNL     1      48.347   1.407   6.588  0.00  0.00    +0.000 OA
ATOM     32  H   UNL     1      48.372   2.996   4.712  0.00  0.00    +0.000 HD
ATOM     33  H   UNL     1      47.109   4.016   5.308  0.00  0.00    +0.000 HD
ENDBRANCH  23  30
ENDBRANCH  22  26
ENDBRANCH  21  22
ENDBRANCH  18  21
ENDBRANCH   1  18
TORSDOF 7
ENDMDL
MODEL 2
REMARK VINA RESULT:    -9.037      1.516      1.937
REMARK INTER + INTRA:         -14.040
REMARK INTER:                 -12.821
REMARK INTRA:                  -1.219
REMARK UNBOUND:                -1.305
REMARK  Name = 
REMARK  7 active torsions:
REMARK  status: ('A' for Active; 'I' for Inactive)
REMARK    1  A    between atoms: C_2  and  C_4
REMARK    2  A    between atoms: C_7  and  O_8
REMARK    3  A    between atoms: O_8  and  C_9
REMARK    4  A    between atoms: C_9  and  C_10
REMARK    5  A    between atoms: C_10  and  C_13
REMARK    6  A    between atoms: C_17  and  C_18
REMARK    7  A    between atoms: C_22  and  C_23
REMARK                            x       y       z     vdW  Elec       q    Type
REMARK                         _______ _______ _______ _____ _____    ______ ____
ROOT
ATOM      1  C   UNL     1      45.234   5.025  12.721  0.00  0.00    +0.000 A 
ATOM      2  C   UNL     1      45.886   5.940  11.886  0.00  0.00    +0.000 A 
ATOM      3  C   UNL     1      47.140   6.446  12.235  0.00  0.00    +0.000 A 
ATOM      4  C   UNL     1      47.749   6.063  13.431  0.00  0.00    +0.000 A 
ATOM      5  C   UNL     1      47.125   5.154  14.299  0.00  0.00    +0.000 A 
ATOM      6  C   UNL     1      45.877   4.623  13.906  0.00  0.00    +0.000 A 
ENDROOT
BRANCH   5   7
ATOM      7  C   UNL     1      47.729   4.812  15.604  0.00  0.00    +0.000 A 
ATOM      8  C   UNL     1      47.166   3.858  16.452  0.00  0.00    +0.000 A 
ATOM      9  C   UNL     1      47.729   3.630  17.703  0.00  0.00    +0.000 A 
ATOM     10  C   UNL     1      48.848   4.355  18.083  0.00  0.00    +0.000 A 
ATOM     11  C   UNL     1      49.365   5.278  17.187  0.00  0.00    +0.000 A 
ATOM     12  N   UNL     1      48.835   5.521  15.953  0.00  0.00    +0.000 NA
BRANCH  11  13
ATOM     13  C   UNL     1      50.573   6.075  17.580  0.00  0.00    +0.000 C 
ATOM     14  N   UNL     1      51.648   5.993  16.734  0.00  0.00    +0.000 N 
ATOM     15  O   UNL     1      50.614   6.766  18.588  0.00  0.00    +0.000 OA
ATOM     16  H   UNL     1      51.577   5.439  15.886  0.00  0.00    +0.000 HD
ATOM     17  H   UNL     1      52.479   6.529  16.936  0.00  0.00    +0.000 HD
ENDBRANCH  11  13
ENDBRANCH   5   7
BRANCH   1  18
ATOM     18  C   UNL     1      43.827   4.516  12.403  0.00  0.00    +0.000 C 
ATOM     19  F   UNL     1      42.870   5.281  13.014  0.00  0.00    +0.000 F 
ATOM     20  F   UNL     1      43.628   3.248  12.863  0.00  0.00    +0.000 F 
BRANCH  18  21
ATOM     21  C   UNL     1      43.579   4.546  10.884  0.00  0.00    +0.000 C 
BRANCH  21  22
ATOM     22  O   UNL     1      43.504   3.227  10.287  0.00  0.00    +0.000 OA
BRANCH  22  26
ATOM     23  C   UNL     1      46.511   2.688   7.502  0.00  0.00    +0.000 A 
ATOM     24  C   UNL     1      45.968   3.962   7.677  0.00  0.00    +0.000 A 
ATOM     25  C   UNL     1      44.944   4.149   8.615  0.00  0.00    +0.000 A 
ATOM     26  C   UNL     1      44.505   3.051   9.345  0.00  0.00    +0.000 A 
ATOM     27  N   UNL     1      45.015   1.811   9.180  0.00  0.00    +0.000 NA
ATOM     28  C   UNL     1      45.993   1.651   8.260  0.00  0.00    +0.000 A 
BRANCH  23  30
ATOM     29  N   UNL     1      47.610   3.100   5.383  0.00  0.00    +0.000 N 
ATOM     30  C   UNL     1      47.595   2.385   6.548  0.00  0.00    +0.000 C 
ATOM     31  O   UNL     1      48.467   1.568   6.806  0.00  0.00    +0.000 OA
ATOM     32  H   UNL     1      48.419   2.970   4.788  0.00  0.00    +0.000 HD
ATOM     33  H   UNL     1      47.078   3.951   5.267  0.00  0.00    +0.000 HD
ENDBRANCH  23  30
ENDBRANCH  22  26
ENDBRANCH  21  22
ENDBRANCH  18  21
ENDBRANCH   1  18
TORSDOF 7
ENDMDL
MODEL 3
REMARK VINA RESULT:    -8.586      3.265      4.751
REMARK INTER + INTRA:         -13.404
REMARK INTER:                 -12.265
REMARK INTRA:                  -1.139
REMARK UNBOUND:                -1.305
REMARK  Name = 
REMARK  7 active torsions:
REMARK  status: ('A' for Active; 'I' for Inactive)
REMARK    1  A    between atoms: C_2  and  C_4
REMARK    2  A    between atoms: C_7  and  O_8
REMARK    3  A    between atoms: O_8  and  C_9
REMARK    4  A    between atoms: C_9  and  C_10
REMARK    5  A    between atoms: C_10  and  C_13
REMARK    6  A    between atoms: C_17  and  C_18
REMARK    7  A    between atoms: C_22  and  C_23
REMARK                            x       y       z     vdW  Elec       q    Type
REMARK                         _______ _______ _______ _____ _____    ______ ____
ROOT
ATOM      1  C   UNL     1      44.807   5.155  12.825  0.00  0.00    +0.000 A 
ATOM      2  C   UNL     1      45.886   4.427  13.340  0.00  0.00    +0.000 A 
ATOM      3  C   UNL     1      47.103   5.058  13.605  0.00  0.00    +0.000 A 
ATOM      4  C   UNL     1      47.265   6.419  13.339  0.00  0.00    +0.000 A 
ATOM      5  C   UNL     1      46.210   7.182  12.815  0.00  0.00    +0.000 A 
ATOM      6  C   UNL     1      44.977   6.531  12.595  0.00  0.00    +0.000 A 
ENDROOT
BRANCH   5   7
ATOM      7  C   UNL     1      46.406   8.602  12.454  0.00  0.00    +0.000 A 
ATOM      8  C   UNL     1      45.332   9.471  12.260  0.00  0.00    +0.000 A 
ATOM      9  C   UNL     1      45.568  10.776  11.845  0.00  0.00    +0.000 A 
ATOM     10  C   UNL     1      46.874  11.194  11.634  0.00  0.00    +0.000 A 
ATOM     11  C   UNL     1      47.896  10.284  11.858  0.00  0.00    +0.000 A 
ATOM     12  N   UNL     1      47.694   8.998  12.268  0.00  0.00    +0.000 NA
BRANCH  11  13
ATOM     13  C   UNL     1      49.314  10.715  11.634  0.00  0.00    +0.000 C 
ATOM     14  N   UNL     1      49.582  11.290  10.419  0.00  0.00    +0.000 N 
ATOM     15  O   UNL     1      50.191  10.574  12.473  0.00  0.00    +0.000 OA
ATOM     16  H   UNL     1      48.829  11.426   9.752  0.00  0.00    +0.000 HD
ATOM     17  H   UNL     1      50.515  11.622  10.224  0.00  0.00    +0.000 HD
ENDBRANCH  11  13
ENDBRANCH   5   7
BRANCH   1  18
ATOM     18  C   UNL     1      43.489   4.473  12.451  0.00  0.00    +0.000 C 
ATOM     19  F   UNL     1      42.412   5.197  12.885  0.00  0.00    +0.000 F 
ATOM     20  F   UNL     1      43.365   3.248  13.038  0.00  0.00    +0.000 F 
BRANCH  18  21
ATOM     21  C   UNL     1      43.386   4.313  10.923  0.00  0.00    +0.000 C 
BRANCH  21  22
ATOM     22  O   UNL     1      43.534   2.941  10.477  0.00  0.00    +0.000 OA
BRANCH  22  26
ATOM     23  C   UNL     1      46.412   2.638   7.527  0.00  0.00    +0.000 A 
ATOM     24  C   UNL     1      45.821   3.879   7.773  0.00  0.00    +0.000 A 
ATOM     25  C   UNL     1      44.840   3.985   8.768  0.00  0.00    +0.000 A 
ATOM     26  C   UNL     1      44.491   2.844   9.480  0.00  0.00    +0.000 A 
ATOM     27  N   UNL     1      45.047   1.636   9.246  0.00  0.00    +0.000 NA
ATOM     28  C   UNL     1      45.982   1.553   8.272  0.00  0.00    +0.000 A 
BRANCH  23  30
ATOM     29  N   UNL     1      47.462   3.266   5.436  0.00  0.00    +0.000 N 
ATOM     30  C   UNL     1      47.458   2.419   6.509  0.00  0.00    +0.000 C 
ATOM     31  O   UNL     1      48.309   1.551   6.640  0.00  0.00    +0.000 OA
ATOM     32  H   UNL     1      48.249   3.184   4.803  0.00  0.00    +0.000 HD
ATOM     33  H   UNL     1      46.956   4.139   5.438  0.00  0.00    +0.000 HD
ENDBRANCH  23  30
ENDBRANCH  22  26
ENDBRANCH  21  22
ENDBRANCH  18  21
ENDBRANCH   1  18
TORSDOF 7
ENDMDL
MODEL 4
REMARK VINA RESULT:    -8.115      2.615      3.268
REMARK INTER + INTRA:         -12.741
REMARK INTER:                 -11.658
REMARK INTRA:                  -1.083
REMARK UNBOUND:                -1.305
REMARK  Name = 
REMARK  7 active torsions:
REMARK  status: ('A' for Active; 'I' for Inactive)
REMARK    1  A    between atoms: C_2  and  C_4
REMARK    2  A    between atoms: C_7  and  O_8
REMARK    3  A    between atoms: O_8  and  C_9
REMARK    4  A    between atoms: C_9  and  C_10
REMARK    5  A    between atoms: C_10  and  C_13
REMARK    6  A    between atoms: C_17  and  C_18
REMARK    7  A    between atoms: C_22  and  C_23
REMARK                            x       y       z     vdW  Elec       q    Type
REMARK                         _______ _______ _______ _____ _____    ______ ____
ROOT
ATOM      1  C   UNL     1      45.350   5.879  12.460  0.00  0.00    +0.000 A 
ATOM      2  C   UNL     1      44.908   7.092  11.919  0.00  0.00    +0.000 A 
ATOM      3  C   UNL     1      45.657   8.257  12.090  0.00  0.00    +0.000 A 
ATOM      4  C   UNL     1      46.845   8.232  12.822  0.00  0.00    +0.000 A 
ATOM      5  C   UNL     1      47.319   7.038  13.388  0.00  0.00    +0.000 A 
ATOM      6  C   UNL     1      46.566   5.864  13.166  0.00  0.00    +0.000 A 
ENDROOT
BRANCH   5   7
ATOM      7  C   UNL     1      48.531   7.026  14.233  0.00  0.00    +0.000 A 
ATOM      8  C   UNL     1      48.550   6.418  15.490  0.00  0.00    +0.000 A 
ATOM      9  C   UNL     1      49.692   6.504  16.278  0.00  0.00    +0.000 A 
ATOM     10  C   UNL     1      50.798   7.189  15.797  0.00  0.00    +0.000 A 
ATOM     11  C   UNL     1      50.716   7.758  14.535  0.00  0.00    +0.000 A 
ATOM     12  N   UNL     1      49.610   7.688  13.738  0.00  0.00    +0.000 NA
BRANCH  11  13
ATOM     13  C   UNL     1      51.899   8.506  13.997  0.00  0.00    +0.000 C 
ATOM     14  N   UNL     1      52.284   8.185  12.722  0.00  0.00    +0.000 N 
ATOM     15  O   UNL     1      52.494   9.358  14.641  0.00  0.00    +0.000 OA
ATOM     16  H   UNL     1      51.752   7.497  12.196  0.00  0.00    +0.000 HD
ATOM     17  H   UNL     1      53.058   8.676  12.300  0.00  0.00    +0.000 HD
ENDBRANCH  11  13
ENDBRANCH   5   7
BRANCH   1  18
ATOM     18  C   UNL     1      44.510   4.605  12.356  0.00  0.00    +0.000 C 
ATOM     19  F   UNL     1      43.599   4.522  13.374  0.00  0.00    +0.000 F 
ATOM     20  F   UNL     1      45.275   3.480  12.459  0.00  0.00    +0.000 F 
BRANCH  18  21
ATOM     21  C   UNL     1      43.749   4.575  11.017  0.00  0.00    +0.000 C 
BRANCH  21  22
ATOM     22  O   UNL     1      43.644   3.247  10.444  0.00  0.00    +0.000 OA
BRANCH  22  26
ATOM     23  C   UNL     1      46.499   2.668   7.512  0.00  0.00    +0.000 A 
ATOM     24  C   UNL     1      46.006   3.955   7.734  0.00  0.00    +0.000 A 
ATOM     25  C   UNL     1      45.033   4.156   8.723  0.00  0.00    +0.000 A 
ATOM     26  C   UNL     1      44.594   3.058   9.453  0.00  0.00    +0.000 A 
ATOM     27  N   UNL     1      45.054   1.806   9.242  0.00  0.00    +0.000 NA
ATOM     28  C   UNL     1      45.983   1.633   8.274  0.00  0.00    +0.000 A 
BRANCH  23  30
ATOM     29  N   UNL     1      47.465   3.034   5.321  0.00  0.00    +0.000 N 
ATOM     30  C   UNL     1      47.527   2.350   6.502  0.00  0.00    +0.000 C 
ATOM     31  O   UNL     1      48.420   1.546   6.728  0.00  0.00    +0.000 OA
ATOM     32  H   UNL     1      48.238   2.896   4.681  0.00  0.00    +0.000 HD
ATOM     33  H   UNL     1      46.919   3.877   5.215  0.00  0.00    +0.000 HD
ENDBRANCH  23  30
ENDBRANCH  22  26
ENDBRANCH  21  22
ENDBRANCH  18  21
ENDBRANCH   1  18
TORSDOF 7
ENDMDL
MODEL 5
REMARK VINA RESULT:    -7.932      2.669      3.467
REMARK INTER + INTRA:         -12.483
REMARK INTER:                 -11.610
REMARK INTRA:                  -0.874
REMARK UNBOUND:                -1.305
REMARK  Name = 
REMARK  7 active torsions:
REMARK  status: ('A' for Active; 'I' for Inactive)
REMARK    1  A    between atoms: C_2  and  C_4
REMARK    2  A    between atoms: C_7  and  O_8
REMARK    3  A    between atoms: O_8  and  C_9
REMARK    4  A    between atoms: C_9  and  C_10
REMARK    5  A    between atoms: C_10  and  C_13
REMARK    6  A    between atoms: C_17  and  C_18
REMARK    7  A    between atoms: C_22  and  C_23
REMARK                            x       y       z     vdW  Elec       q    Type
REMARK                         _______ _______ _______ _____ _____    ______ ____
ROOT
ATOM      1  C   UNL     1      44.777   5.422  12.386  0.00  0.00    +0.000 A 
ATOM      2  C   UNL     1      44.966   4.200  13.043  0.00  0.00    +0.000 A 
ATOM      3  C   UNL     1      46.188   3.907  13.651  0.00  0.00    +0.000 A 
ATOM      4  C   UNL     1      47.244   4.818  13.591  0.00  0.00    +0.000 A 
ATOM      5  C   UNL     1      47.097   6.051  12.934  0.00  0.00    +0.000 A 
ATOM      6  C   UNL     1      45.839   6.343  12.364  0.00  0.00    +0.000 A 
ENDROOT
BRANCH   5   7
ATOM      7  C   UNL     1      48.238   6.979  12.798  0.00  0.00    +0.000 A 
ATOM      8  C   UNL     1      48.541   7.606  11.588  0.00  0.00    +0.000 A 
ATOM      9  C   UNL     1      49.671   8.409  11.492  0.00  0.00    +0.000 A 
ATOM     10  C   UNL     1      50.478   8.578  12.608  0.00  0.00    +0.000 A 
ATOM     11  C   UNL     1      50.113   7.938  13.783  0.00  0.00    +0.000 A 
ATOM     12  N   UNL     1      49.008   7.145  13.906  0.00  0.00    +0.000 NA
BRANCH  11  13
ATOM     13  C   UNL     1      50.973   8.105  14.999  0.00  0.00    +0.000 C 
ATOM     14  N   UNL     1      51.501   6.954  15.524  0.00  0.00    +0.000 N 
ATOM     15  O   UNL     1      51.205   9.194  15.504  0.00  0.00    +0.000 OA
ATOM     16  H   UNL     1      51.321   6.066  15.066  0.00  0.00    +0.000 HD
ATOM     17  H   UNL     1      52.109   7.011  16.327  0.00  0.00    +0.000 HD
ENDBRANCH  11  13
ENDBRANCH   5   7
BRANCH   1  18
ATOM     18  C   UNL     1      43.476   5.736  11.644  0.00  0.00    +0.000 C 
ATOM     19  F   UNL     1      43.337   7.080  11.427  0.00  0.00    +0.000 F 
ATOM     20  F   UNL     1      42.377   5.367  12.363  0.00  0.00    +0.000 F 
BRANCH  18  21
ATOM     21  C   UNL     1      43.451   5.017  10.283  0.00  0.00    +0.000 C 
BRANCH  21  22
ATOM     22  O   UNL     1      43.779   3.607  10.370  0.00  0.00    +0.000 OA
BRANCH  22  26
ATOM     23  C   UNL     1      46.512   2.565   7.449  0.00  0.00    +0.000 A 
ATOM     24  C   UNL     1      45.965   1.564   8.255  0.00  0.00    +0.000 A 
ATOM     25  C   UNL     1      45.043   1.914   9.251  0.00  0.00    +0.000 A 
ATOM     26  C   UNL     1      44.702   3.253   9.399  0.00  0.00    +0.000 A 
ATOM     27  N   UNL     1      45.231   4.232   8.633  0.00  0.00    +0.000 NA
ATOM     28  C   UNL     1      46.129   3.874   7.688  0.00  0.00    +0.000 A 
BRANCH  23  30
ATOM     29  N   UNL     1      47.470   3.164   5.307  0.00  0.00    +0.000 N 
ATOM     30  C   UNL     1      47.483   2.304   6.369  0.00  0.00    +0.000 C 
ATOM     31  O   UNL     1      48.293   1.391   6.442  0.00  0.00    +0.000 OA
ATOM     32  H   UNL     1      48.213   3.049   4.627  0.00  0.00    +0.000 HD
ATOM     33  H   UNL     1      47.012   4.063   5.347  0.00  0.00    +0.000 HD
ENDBRANCH  23  30
ENDBRANCH  22  26
ENDBRANCH  21  22
ENDBRANCH  18  21
ENDBRANCH   1  18
TORSDOF 7
ENDMDL
MODEL 6
REMARK VINA RESULT:    -7.645      3.275      7.948
REMARK INTER + INTRA:         -12.078
REMARK INTER:                 -10.810
REMARK INTRA:                  -1.268
REMARK UNBOUND:                -1.305
REMARK  Name = 
REMARK  7 active torsions:
REMARK  status: ('A' for Active; 'I' for Inactive)
REMARK    1  A    between atoms: C_2  and  C_4
REMARK    2  A    between atoms: C_7  and  O_8
REMARK    3  A    between atoms: O_8  and  C_9
REMARK    4  A    between atoms: C_9  and  C_10
REMARK    5  A    between atoms: C_10  and  C_13
REMARK    6  A    between atoms: C_17  and  C_18
REMARK    7  A    between atoms: C_22  and  C_23
REMARK                            x       y       z     vdW  Elec       q    Type
REMARK                         _______ _______ _______ _____ _____    ______ ____
ROOT
ATOM      1  C   UNL     1      48.024   8.260  12.295  0.00  0.00    +0.000 A 
ATOM      2  C   UNL     1      47.139   9.314  12.553  0.00  0.00    +0.000 A 
ATOM      3  C   UNL     1      45.775   9.171  12.290  0.00  0.00    +0.000 A 
ATOM      4  C   UNL     1      45.280   7.985  11.746  0.00  0.00    +0.000 A 
ATOM      5  C   UNL     1      46.136   6.908  11.465  0.00  0.00    +0.000 A 
ATOM      6  C   UNL     1      47.504   7.060  11.779  0.00  0.00    +0.000 A 
ENDROOT
BRANCH   5   7
ATOM      7  C   UNL     1      45.628   5.684  10.811  0.00  0.00    +0.000 A 
ATOM      8  C   UNL     1      45.837   5.429   9.455  0.00  0.00    +0.000 A 
ATOM      9  C   UNL     1      45.270   4.302   8.872  0.00  0.00    +0.000 A 
ATOM     10  C   UNL     1      44.509   3.445   9.653  0.00  0.00    +0.000 A 
ATOM     11  C   UNL     1      44.352   3.750  10.997  0.00  0.00    +0.000 A 
ATOM     12  N   UNL     1      44.898   4.848  11.597  0.00  0.00    +0.000 NA
BRANCH  11  13
ATOM     13  C   UNL     1      43.530   2.838  11.858  0.00  0.00    +0.000 C 
ATOM     14  N   UNL     1      43.561   3.094  13.204  0.00  0.00    +0.000 N 
ATOM     15  O   UNL     1      42.862   1.921  11.405  0.00  0.00    +0.000 OA
ATOM     16  H   UNL     1      44.098   3.884  13.552  0.00  0.00    +0.000 HD
ATOM     17  H   UNL     1      43.006   2.528  13.828  0.00  0.00    +0.000 HD
ENDBRANCH  11  13
ENDBRANCH   5   7
BRANCH   1  18
ATOM     18  C   UNL     1      49.532   8.416  12.499  0.00  0.00    +0.000 C 
ATOM     19  F   UNL     1      49.880   9.729  12.667  0.00  0.00    +0.000 F 
ATOM     20  F   UNL     1      50.240   7.988  11.414  0.00  0.00    +0.000 F 
BRANCH  18  21
ATOM     21  C   UNL     1      49.988   7.627  13.740  0.00  0.00    +0.000 C 
BRANCH  21  22
ATOM     22  O   UNL     1      49.319   8.035  14.959  0.00  0.00    +0.000 OA
BRANCH  22  26
ATOM     23  C   UNL     1      48.098   4.755  17.158  0.00  0.00    +0.000 A 
ATOM     24  C   UNL     1      48.859   5.745  17.782  0.00  0.00    +0.000 A 
ATOM     25  C   UNL     1      49.281   6.856  17.039  0.00  0.00    +0.000 A 
ATOM     26  C   UNL     1      48.921   6.933  15.700  0.00  0.00    +0.000 A 
ATOM     27  N   UNL     1      48.194   5.978  15.080  0.00  0.00    +0.000 NA
ATOM     28  C   UNL     1      47.809   4.908  15.813  0.00  0.00    +0.000 A 
BRANCH  23  30
ATOM     29  N   UNL     1      48.236   3.194  19.005  0.00  0.00    +0.000 N 
ATOM     30  C   UNL     1      47.598   3.551  17.850  0.00  0.00    +0.000 C 
ATOM     31  O   UNL     1      46.631   2.929  17.436  0.00  0.00    +0.000 OA
ATOM     32  H   UNL     1      47.816   2.438  19.533  0.00  0.00    +0.000 HD
ATOM     33  H   UNL     1      48.844   3.828  19.503  0.00  0.00    +0.000 HD
ENDBRANCH  23  30
ENDBRANCH  22  26
ENDBRANCH  21  22
ENDBRANCH  18  21
ENDBRANCH   1  18
TORSDOF 7
ENDMDL
MODEL 7
REMARK VINA RESULT:    -7.610      2.774      7.999
REMARK INTER + INTRA:         -12.029
REMARK INTER:                 -10.903
REMARK INTRA:                  -1.126
REMARK UNBOUND:                -1.305
REMARK  Name = 
REMARK  7 active torsions:
REMARK  status: ('A' for Active; 'I' for Inactive)
REMARK    1  A    between atoms: C_2  and  C_4
REMARK    2  A    between atoms: C_7  and  O_8
REMARK    3  A    between atoms: O_8  and  C_9
REMARK    4  A    between atoms: C_9  and  C_10
REMARK    5  A    between atoms: C_10  and  C_13
REMARK    6  A    between atoms: C_17  and  C_18
REMARK    7  A    between atoms: C_22  and  C_23
REMARK                            x       y       z     vdW  Elec       q    Type
REMARK                         _______ _______ _______ _____ _____    ______ ____
ROOT
ATOM      1  C   UNL     1      47.604   7.976  12.119  0.00  0.00    +0.000 A 
ATOM      2  C   UNL     1      46.847   9.153  12.170  0.00  0.00    +0.000 A 
ATOM      3  C   UNL     1      45.453   9.101  12.110  0.00  0.00    +0.000 A 
ATOM      4  C   UNL     1      44.798   7.876  11.974  0.00  0.00    +0.000 A 
ATOM      5  C   UNL     1      45.521   6.674  11.911  0.00  0.00    +0.000 A 
ATOM      6  C   UNL     1      46.926   6.748  12.017  0.00  0.00    +0.000 A 
ENDROOT
BRANCH   5   7
ATOM      7  C   UNL     1      44.834   5.386  11.684  0.00  0.00    +0.000 A 
ATOM      8  C   UNL     1      43.996   4.814  12.644  0.00  0.00    +0.000 A 
ATOM      9  C   UNL     1      43.437   3.563  12.413  0.00  0.00    +0.000 A 
ATOM     10  C   UNL     1      43.718   2.905  11.224  0.00  0.00    +0.000 A 
ATOM     11  C   UNL     1      44.547   3.534  10.308  0.00  0.00    +0.000 A 
ATOM     12  N   UNL     1      45.108   4.762  10.507  0.00  0.00    +0.000 NA
BRANCH  11  13
ATOM     13  C   UNL     1      44.866   2.838   9.019  0.00  0.00    +0.000 C 
ATOM     14  N   UNL     1      44.423   3.454   7.878  0.00  0.00    +0.000 N 
ATOM     15  O   UNL     1      45.487   1.787   8.969  0.00  0.00    +0.000 OA
ATOM     16  H   UNL     1      43.939   4.345   7.945  0.00  0.00    +0.000 HD
ATOM     17  H   UNL     1      44.632   3.043   6.981  0.00  0.00    +0.000 HD
ENDBRANCH  11  13
ENDBRANCH   5   7
BRANCH   1  18
ATOM     18  C   UNL     1      49.133   8.010  12.103  0.00  0.00    +0.000 C 
ATOM     19  F   UNL     1      49.604   9.294  12.037  0.00  0.00    +0.000 F 
ATOM     20  F   UNL     1      49.646   7.378  11.009  0.00  0.00    +0.000 F 
BRANCH  18  21
ATOM     21  C   UNL     1      49.695   7.350  13.376  0.00  0.00    +0.000 C 
BRANCH  21  22
ATOM     22  O   UNL     1      49.054   7.807  14.593  0.00  0.00    +0.000 OA
BRANCH  22  26
ATOM     23  C   UNL     1      48.000   4.620  17.004  0.00  0.00    +0.000 A 
ATOM     24  C   UNL     1      48.688   5.697  17.566  0.00  0.00    +0.000 A 
ATOM     25  C   UNL     1      49.053   6.777  16.751  0.00  0.00    +0.000 A 
ATOM     26  C   UNL     1      48.712   6.737  15.405  0.00  0.00    +0.000 A 
ATOM     27  N   UNL     1      48.055   5.697  14.846  0.00  0.00    +0.000 NA
ATOM     28  C   UNL     1      47.724   4.659  15.648  0.00  0.00    +0.000 A 
BRANCH  23  30
ATOM     29  N   UNL     1      48.316   3.099  18.863  0.00  0.00    +0.000 N 
ATOM     30  C   UNL     1      47.563   3.439  17.774  0.00  0.00    +0.000 C 
ATOM     31  O   UNL     1      46.550   2.821  17.481  0.00  0.00    +0.000 OA
ATOM     32  H   UNL     1      47.946   2.361  19.451  0.00  0.00    +0.000 HD
ATOM     33  H   UNL     1      48.981   3.735  19.278  0.00  0.00    +0.000 HD
ENDBRANCH  23  30
ENDBRANCH  22  26
ENDBRANCH  21  22
ENDBRANCH  18  21
ENDBRANCH   1  18
TORSDOF 7
ENDMDL
MODEL 8
REMARK VINA RESULT:    -7.385      3.690      4.774
REMARK INTER + INTRA:         -11.712
REMARK INTER:                 -10.718
REMARK INTRA:                  -0.993
REMARK UNBOUND:                -1.305
REMARK  Name = 
REMARK  7 active torsions:
REMARK  status: ('A' for Active; 'I' for Inactive)
REMARK    1  A    between atoms: C_2  and  C_4
REMARK    2  A    between atoms: C_7  and  O_8
REMARK    3  A    between atoms: O_8  and  C_9
REMARK    4  A    between atoms: C_9  and  C_10
REMARK    5  A    between atoms: C_10  and  C_13
REMARK    6  A    between atoms: C_17  and  C_18
REMARK    7  A    between atoms: C_22  and  C_23
REMARK                            x       y       z     vdW  Elec       q    Type
REMARK                         _______ _______ _______ _____ _____    ______ ____
ROOT
ATOM      1  C   UNL     1      46.058   7.194  12.062  0.00  0.00    +0.000 A 
ATOM      2  C   UNL     1      45.390   8.395  12.327  0.00  0.00    +0.000 A 
ATOM      3  C   UNL     1      46.111   9.566  12.572  0.00  0.00    +0.000 A 
ATOM      4  C   UNL     1      47.507   9.548  12.578  0.00  0.00    +0.000 A 
ATOM      5  C   UNL     1      48.214   8.362  12.325  0.00  0.00    +0.000 A 
ATOM      6  C   UNL     1      47.464   7.200  12.039  0.00  0.00    +0.000 A 
ENDROOT
BRANCH   5   7
ATOM      7  C   UNL     1      49.688   8.323  12.414  0.00  0.00    +0.000 A 
ATOM      8  C   UNL     1      50.369   8.688  13.576  0.00  0.00    +0.000 A 
ATOM      9  C   UNL     1      51.759   8.710  13.582  0.00  0.00    +0.000 A 
ATOM     10  C   UNL     1      52.447   8.361  12.429  0.00  0.00    +0.000 A 
ATOM     11  C   UNL     1      51.710   7.995  11.313  0.00  0.00    +0.000 A 
ATOM     12  N   UNL     1      50.345   7.963  11.279  0.00  0.00    +0.000 NA
BRANCH  11  13
ATOM     13  C   UNL     1      52.434   7.617  10.056  0.00  0.00    +0.000 C 
ATOM     14  N   UNL     1      52.815   8.656   9.247  0.00  0.00    +0.000 N 
ATOM     15  O   UNL     1      52.683   6.459   9.756  0.00  0.00    +0.000 OA
ATOM     16  H   UNL     1      52.626   9.611   9.535  0.00  0.00    +0.000 HD
ATOM     17  H   UNL     1      53.328   8.461   8.401  0.00  0.00    +0.000 HD
ENDBRANCH  11  13
ENDBRANCH   5   7
BRANCH   1  18
ATOM     18  C   UNL     1      45.296   5.882  11.870  0.00  0.00    +0.000 C 
ATOM     19  F   UNL     1      44.409   5.665  12.890  0.00  0.00    +0.000 F 
ATOM     20  F   UNL     1      46.129   4.802  11.877  0.00  0.00    +0.000 F 
BRANCH  18  21
ATOM     21  C   UNL     1      44.516   5.907  10.542  0.00  0.00    +0.000 C 
BRANCH  21  22
ATOM     22  O   UNL     1      43.918   4.632  10.201  0.00  0.00    +0.000 OA
BRANCH  22  26
ATOM     23  C   UNL     1      46.428   2.426   7.767  0.00  0.00    +0.000 A 
ATOM     24  C   UNL     1      45.640   1.762   8.710  0.00  0.00    +0.000 A 
ATOM     25  C   UNL     1      44.793   2.506   9.542  0.00  0.00    +0.000 A 
ATOM     26  C   UNL     1      44.765   3.887   9.395  0.00  0.00    +0.000 A 
ATOM     27  N   UNL     1      45.527   4.544   8.494  0.00  0.00    +0.000 NA
ATOM     28  C   UNL     1      46.348   3.808   7.711  0.00  0.00    +0.000 A 
BRANCH  23  30
ATOM     29  N   UNL     1      48.412   2.460   6.378  0.00  0.00    +0.000 N 
ATOM     30  C   UNL     1      47.346   1.738   6.839  0.00  0.00    +0.000 C 
ATOM     31  O   UNL     1      47.189   0.565   6.533  0.00  0.00    +0.000 OA
ATOM     32  H   UNL     1      49.098   1.948   5.836  0.00  0.00    +0.000 HD
ATOM     33  H   UNL     1      48.711   3.318   6.817  0.00  0.00    +0.000 HD
ENDBRANCH  23  30
ENDBRANCH  22  26
ENDBRANCH  21  22
ENDBRANCH  18  21
ENDBRANCH   1  18
TORSDOF 7
ENDMDL
MODEL 9
REMARK VINA RESULT:    -7.100      3.193      4.650
REMARK INTER + INTRA:         -11.311
REMARK INTER:                  -9.842
REMARK INTRA:                  -1.469
REMARK UNBOUND:                -1.305
REMARK  Name = 
REMARK  7 active torsions:
REMARK  status: ('A' for Active; 'I' for Inactive)
REMARK    1  A    between atoms: C_2  and  C_4
REMARK    2  A    between atoms: C_7  and  O_8
REMARK    3  A    between atoms: O_8  and  C_9
REMARK    4  A    between atoms: C_9  and  C_10
REMARK    5  A    between atoms: C_10  and  C_13
REMARK    6  A    between atoms: C_17  and  C_18
REMARK    7  A    between atoms: C_22  and  C_23
REMARK                            x       y       z     vdW  Elec       q    Type
REMARK                         _______ _______ _______ _____ _____    ______ ____
ROOT
ATOM      1  C   UNL     1      48.565   8.491  13.554  0.00  0.00    +0.000 A 
ATOM      2  C   UNL     1      48.678   9.781  14.087  0.00  0.00    +0.000 A 
ATOM      3  C   UNL     1      49.100   9.967  15.405  0.00  0.00    +0.000 A 
ATOM      4  C   UNL     1      49.393   8.868  16.215  0.00  0.00    +0.000 A 
ATOM      5  C   UNL     1      49.285   7.559  15.721  0.00  0.00    +0.000 A 
ATOM      6  C   UNL     1      48.897   7.397  14.373  0.00  0.00    +0.000 A 
ENDROOT
BRANCH   5   7
ATOM      7  C   UNL     1      49.514   6.394  16.600  0.00  0.00    +0.000 A 
ATOM      8  C   UNL     1      50.475   6.409  17.612  0.00  0.00    +0.000 A 
ATOM      9  C   UNL     1      50.705   5.260  18.360  0.00  0.00    +0.000 A 
ATOM     10  C   UNL     1      49.968   4.116  18.089  0.00  0.00    +0.000 A 
ATOM     11  C   UNL     1      49.020   4.173  17.078  0.00  0.00    +0.000 A 
ATOM     12  N   UNL     1      48.771   5.287  16.330  0.00  0.00    +0.000 NA
BRANCH  11  13
ATOM     13  C   UNL     1      48.215   2.947  16.767  0.00  0.00    +0.000 C 
ATOM     14  N   UNL     1      47.104   2.745  17.543  0.00  0.00    +0.000 N 
ATOM     15  O   UNL     1      48.513   2.166  15.875  0.00  0.00    +0.000 OA
ATOM     16  H   UNL     1      46.860   3.426  18.256  0.00  0.00    +0.000 HD
ATOM     17  H   UNL     1      46.511   1.949  17.361  0.00  0.00    +0.000 HD
ENDBRANCH  11  13
ENDBRANCH   5   7
BRANCH   1  18
ATOM     18  C   UNL     1      48.029   8.255  12.141  0.00  0.00    +0.000 C 
ATOM     19  F   UNL     1      48.242   6.966  11.735  0.00  0.00    +0.000 F 
ATOM     20  F   UNL     1      48.662   9.036  11.219  0.00  0.00    +0.000 F 
BRANCH  18  21
ATOM     21  C   UNL     1      46.517   8.541  12.089  0.00  0.00    +0.000 C 
BRANCH  21  22
ATOM     22  O   UNL     1      45.762   7.833  13.105  0.00  0.00    +0.000 OA
BRANCH  22  26
ATOM     23  C   UNL     1      44.457   4.168  11.709  0.00  0.00    +0.000 A 
ATOM     24  C   UNL     1      45.220   4.217  12.877  0.00  0.00    +0.000 A 
ATOM     25  C   UNL     1      45.671   5.456  13.351  0.00  0.00    +0.000 A 
ATOM     26  C   UNL     1      45.336   6.600  12.637  0.00  0.00    +0.000 A 
ATOM     27  N   UNL     1      44.606   6.567  11.500  0.00  0.00    +0.000 NA
ATOM     28  C   UNL     1      44.194   5.359  11.054  0.00  0.00    +0.000 A 
BRANCH  23  30
ATOM     29  N   UNL     1      44.636   2.368  10.098  0.00  0.00    +0.000 N 
ATOM     30  C   UNL     1      43.928   2.918  11.130  0.00  0.00    +0.000 C 
ATOM     31  O   UNL     1      42.930   2.374  11.581  0.00  0.00    +0.000 OA
ATOM     32  H   UNL     1      44.332   1.453   9.784  0.00  0.00    +0.000 HD
ATOM     33  H   UNL     1      45.586   2.639   9.892  0.00  0.00    +0.000 HD
ENDBRANCH  23  30
ENDBRANCH  22  26
ENDBRANCH  21  22
ENDBRANCH  18  21
ENDBRANCH   1  18
TORSDOF 7
ENDMDL
