MODEL 1
REMARK VINA RESULT:    -8.865      0.000      0.000
REMARK INTER + INTRA:         -11.447
REMARK INTER:                 -11.456
REMARK INTRA:                   0.009
REMARK UNBOUND:                 0.009
REMARK  Name = 
REMARK  5 active torsions:
REMARK  status: ('A' for Active; 'I' for Inactive)
REMARK    1  A    between atoms: C_2  and  C_3
REMARK    2  A    between atoms: C_6  and  N_7
REMARK    3  A    between atoms: N_7  and  C_8
REMARK    4  A    between atoms: C_8  and  C_9
REMARK    5  A    between atoms: C_13  and  C_14
REMARK                            x       y       z     vdW  Elec       q    Type
REMARK                         _______ _______ _______ _____ _____    ______ ____
ROOT
ATOM      1  C   UNL     1      44.033   4.905  11.624  0.00  0.00    +0.000 C 
ATOM      2  C   UNL     1      43.369   3.723  12.321  0.00  0.00    +0.000 C 
ATOM      3  C   UNL     1      42.863   5.106  12.560  0.00  0.00    +0.000 C 
ENDROOT
BRANCH   1   4
ATOM      4  C   UNL     1      45.440   5.308  12.050  0.00  0.00    +0.000 A 
ATOM      5  C   UNL     1      46.175   6.242  11.304  0.00  0.00    +0.000 A 
ATOM      6  C   UNL     1      47.328   6.828  11.817  0.00  0.00    +0.000 A 
ATOM      7  C   UNL     1      47.787   6.467  13.084  0.00  0.00    +0.000 A 
ATOM      8  C   UNL     1      47.129   5.486  13.846  0.00  0.00    +0.000 A 
ATOM      9  C   UNL     1      45.961   4.919  13.299  0.00  0.00    +0.000 A 
BRANCH   8  10
ATOM     10  C   UNL     1      47.617   5.095  15.189  0.00  0.00    +0.000 A 
ATOM     11  C   UNL     1      48.580   5.864  15.873  0.00  0.00    +0.000 A 
ATOM     12  C   UNL     1      49.052   5.490  17.137  0.00  0.00    +0.000 A 
ATOM     13  C   UNL     1      48.564   4.340  17.749  0.00  0.00    +0.000 A 
ATOM     14  C   UNL     1      47.608   3.579  17.092  0.00  0.00    +0.000 A 
ATOM     15  F   UNL     1      47.127   2.475  17.679  0.00  0.00    +0.000 F 
ATOM     16  C   UNL     1      47.142   3.942  15.830  0.00  0.00    +0.000 A 
ENDBRANCH   8  10
ENDBRANCH   1   4
BRANCH   1  17
ATOM     17  N   UNL     1      43.921   4.868  10.160  0.00  0.00    +0.000 N 
ATOM     18  H   UNL     1      42.969   4.892   9.797  0.00  0.00    +0.000 HD
BRANCH  17  22
ATOM     19  C   UNL     1      46.341   2.550   7.816  0.00  0.00    +0.000 A 
ATOM     20  C   UNL     1      46.201   3.911   7.625  0.00  0.00    +0.000 A 
ATOM     21  N   UNL     1      45.345   4.665   8.357  0.00  0.00    +0.000 NA
ATOM     22  C   UNL     1      44.620   4.023   9.302  0.00  0.00    +0.000 A 
ATOM     23  C   UNL     1      44.729   2.641   9.444  0.00  0.00    +0.000 A 
ATOM     24  N   UNL     1      45.587   1.874   8.717  0.00  0.00    +0.000 NA
BRANCH  19  26
ATOM     25  N   UNL     1      48.164   1.270   6.490  0.00  0.00    +0.000 NA
ATOM     26  C   UNL     1      47.342   1.814   7.110  0.00  0.00    +0.000 C 
ENDBRANCH  19  26
ENDBRANCH  17  22
ENDBRANCH   1  17
TORSDOF 5
ENDMDL
MODEL 2
REMARK VINA RESULT:    -8.445      2.726      3.690
REMARK INTER + INTRA:         -10.904
REMARK INTER:                  -9.976
REMARK INTRA:                  -0.927
REMARK UNBOUND:                 0.009
REMARK  Name = 
REMARK  5 active torsions:
REMARK  status: ('A' for Active; 'I' for Inactive)
REMARK    1  A    between atoms: C_2  and  C_3
REMARK    2  A    between atoms: C_6  and  N_7
REMARK    3  A    between atoms: N_7  and  C_8
REMARK    4  A    between atoms: C_8  and  C_9
REMARK    5  A    between atoms: C_13  and  C_14
REMARK                            x       y       z     vdW  Elec       q    Type
REMARK                         _______ _______ _______ _____ _____    ______ ____
ROOT
ATOM      1  C   UNL     1      43.759   5.032  11.213  0.00  0.00    +0.000 C 
ATOM      2  C   UNL     1      42.382   5.300  11.809  0.00  0.00    +0.000 C 
ATOM      3  C   UNL     1      43.053   6.351  10.991  0.00  0.00    +0.000 C 
ENDROOT
BRANCH   1   4
ATOM      4  C   UNL     1      44.957   4.946  12.151  0.00  0.00    +0.000 A 
ATOM      5  C   UNL     1      45.266   3.745  12.809  0.00  0.00    +0.000 A 
ATOM      6  C   UNL     1      46.494   3.564  13.439  0.00  0.00    +0.000 A 
ATOM      7  C   UNL     1      47.431   4.597  13.446  0.00  0.00    +0.000 A 
ATOM      8  C   UNL     1      47.147   5.844  12.863  0.00  0.00    +0.000 A 
ATOM      9  C   UNL     1      45.897   5.991  12.228  0.00  0.00    +0.000 A 
BRANCH   8  10
ATOM     10  C   UNL     1      48.137   6.946  12.874  0.00  0.00    +0.000 A 
ATOM     11  C   UNL     1      49.132   7.029  13.869  0.00  0.00    +0.000 A 
ATOM     12  C   UNL     1      50.061   8.076  13.890  0.00  0.00    +0.000 A 
ATOM     13  C   UNL     1      50.020   9.061  12.908  0.00  0.00    +0.000 A 
ATOM     14  C   UNL     1      49.053   8.986  11.915  0.00  0.00    +0.000 A 
ATOM     15  F   UNL     1      49.014   9.926  10.963  0.00  0.00    +0.000 F 
ATOM     16  C   UNL     1      48.121   7.951  11.896  0.00  0.00    +0.000 A 
ENDBRANCH   8  10
ENDBRANCH   1   4
BRANCH   1  17
ATOM     17  N   UNL     1      43.779   3.934  10.237  0.00  0.00    +0.000 N 
ATOM     18  H   UNL     1      43.399   3.050  10.573  0.00  0.00    +0.000 HD
BRANCH  17  22
ATOM     19  C   UNL     1      46.610   2.709   7.554  0.00  0.00    +0.000 A 
ATOM     20  C   UNL     1      45.987   1.839   8.428  0.00  0.00    +0.000 A 
ATOM     21  N   UNL     1      45.101   2.258   9.364  0.00  0.00    +0.000 NA
ATOM     22  C   UNL     1      44.843   3.586   9.410  0.00  0.00    +0.000 A 
ATOM     23  C   UNL     1      45.522   4.458   8.562  0.00  0.00    +0.000 A 
ATOM     24  N   UNL     1      46.412   4.048   7.616  0.00  0.00    +0.000 NA
BRANCH  19  26
ATOM     25  N   UNL     1      48.168   1.791   5.696  0.00  0.00    +0.000 NA
ATOM     26  C   UNL     1      47.442   2.214   6.503  0.00  0.00    +0.000 C 
ENDBRANCH  19  26
ENDBRANCH  17  22
ENDBRANCH   1  17
TORSDOF 5
ENDMDL
MODEL 3
REMARK VINA RESULT:    -8.404      3.627      7.458
REMARK INTER + INTRA:         -10.851
REMARK INTER:                 -10.134
REMARK INTRA:                  -0.717
REMARK UNBOUND:                 0.009
REMARK  Name = 
REMARK  5 active torsions:
REMARK  status: ('A' for Active; 'I' for Inactive)
REMARK    1  A    between atoms: C_2  and  C_3
REMARK    2  A    between atoms: C_6  and  N_7
REMARK    3  A    between atoms: N_7  and  C_8
REMARK    4  A    between atoms: C_8  and  C_9
REMARK    5  A    between atoms: C_13  and  C_14
REMARK                            x       y       z     vdW  Elec       q    Type
REMARK                         _______ _______ _______ _____ _____    ______ ____
ROOT
ATOM      1  C   UNL     1      46.063   7.177  12.355  0.00  0.00    +0.000 C 
ATOM      2  C   UNL     1      46.132   8.546  11.688  0.00  0.00    +0.000 C 
ATOM      3  C   UNL     1      45.382   8.381  12.967  0.00  0.00    +0.000 C 
ENDROOT
BRANCH   1   4
ATOM      4  C   UNL     1      45.241   6.081  11.690  0.00  0.00    +0.000 A 
ATOM      5  C   UNL     1      43.853   6.008  11.883  0.00  0.00    +0.000 A 
ATOM      6  C   UNL     1      43.053   5.203  11.076  0.00  0.00    +0.000 A 
ATOM      7  C   UNL     1      43.636   4.428  10.074  0.00  0.00    +0.000 A 
ATOM      8  C   UNL     1      45.028   4.408   9.882  0.00  0.00    +0.000 A 
ATOM      9  C   UNL     1      45.806   5.241  10.711  0.00  0.00    +0.000 A 
BRANCH   8  10
ATOM     10  C   UNL     1      45.650   3.581   8.822  0.00  0.00    +0.000 A 
ATOM     11  C   UNL     1      46.232   4.166   7.680  0.00  0.00    +0.000 A 
ATOM     12  C   UNL     1      46.810   3.386   6.671  0.00  0.00    +0.000 A 
ATOM     13  C   UNL     1      46.827   2.000   6.788  0.00  0.00    +0.000 A 
ATOM     14  C   UNL     1      46.268   1.410   7.913  0.00  0.00    +0.000 A 
ATOM     15  F   UNL     1      46.288   0.076   8.036  0.00  0.00    +0.000 F 
ATOM     16  C   UNL     1      45.683   2.182   8.915  0.00  0.00    +0.000 A 
ENDBRANCH   8  10
ENDBRANCH   1   4
BRANCH   1  17
ATOM     17  N   UNL     1      47.370   6.662  12.785  0.00  0.00    +0.000 N 
ATOM     18  H   UNL     1      47.931   6.235  12.049  0.00  0.00    +0.000 HD
BRANCH  17  22
ATOM     19  C   UNL     1      47.929   4.765  16.365  0.00  0.00    +0.000 A 
ATOM     20  C   UNL     1      48.672   5.864  15.980  0.00  0.00    +0.000 A 
ATOM     21  N   UNL     1      48.535   6.448  14.765  0.00  0.00    +0.000 NA
ATOM     22  C   UNL     1      47.622   5.905  13.926  0.00  0.00    +0.000 A 
ATOM     23  C   UNL     1      46.921   4.762  14.305  0.00  0.00    +0.000 A 
ATOM     24  N   UNL     1      47.049   4.168  15.524  0.00  0.00    +0.000 NA
BRANCH  19  26
ATOM     25  N   UNL     1      48.124   3.787  18.757  0.00  0.00    +0.000 NA
ATOM     26  C   UNL     1      48.015   4.257  17.697  0.00  0.00    +0.000 C 
ENDBRANCH  19  26
ENDBRANCH  17  22
ENDBRANCH   1  17
TORSDOF 5
ENDMDL
MODEL 4
REMARK VINA RESULT:    -7.661      4.119      7.683
REMARK INTER + INTRA:          -9.891
REMARK INTER:                  -9.118
REMARK INTRA:                  -0.773
REMARK UNBOUND:                 0.009
REMARK  Name = 
REMARK  5 active torsions:
REMARK  status: ('A' for Active; 'I' for Inactive)
REMARK    1  A    between atoms: C_2  and  C_3
REMARK    2  A    between atoms: C_6  and  N_7
REMARK    3  A    between atoms: N_7  and  C_8
REMARK    4  A    between atoms: C_8  and  C_9
REMARK    5  A    between atoms: C_13  and  C_14
REMARK                            x       y       z     vdW  Elec       q    Type
REMARK                         _______ _______ _______ _____ _____    ______ ____
ROOT
ATOM      1  C   UNL     1      45.921   7.645  11.983  0.00  0.00    +0.000 C 
ATOM      2  C   UNL     1      45.492   9.007  11.451  0.00  0.00    +0.000 C 
ATOM      3  C   UNL     1      45.285   8.673  12.890  0.00  0.00    +0.000 C 
ENDROOT
BRANCH   1   4
ATOM      4  C   UNL     1      45.140   6.411  11.547  0.00  0.00    +0.000 A 
ATOM      5  C   UNL     1      43.795   6.249  11.913  0.00  0.00    +0.000 A 
ATOM      6  C   UNL     1      42.992   5.289  11.303  0.00  0.00    +0.000 A 
ATOM      7  C   UNL     1      43.532   4.448  10.330  0.00  0.00    +0.000 A 
ATOM      8  C   UNL     1      44.890   4.520   9.975  0.00  0.00    +0.000 A 
ATOM      9  C   UNL     1      45.672   5.508  10.606  0.00  0.00    +0.000 A 
BRANCH   8  10
ATOM     10  C   UNL     1      45.468   3.624   8.946  0.00  0.00    +0.000 A 
ATOM     11  C   UNL     1      45.541   2.231   9.143  0.00  0.00    +0.000 A 
ATOM     12  C   UNL     1      46.098   1.383   8.178  0.00  0.00    +0.000 A 
ATOM     13  C   UNL     1      46.588   1.912   6.988  0.00  0.00    +0.000 A 
ATOM     14  C   UNL     1      46.513   3.281   6.775  0.00  0.00    +0.000 A 
ATOM     15  F   UNL     1      46.975   3.795   5.628  0.00  0.00    +0.000 F 
ATOM     16  C   UNL     1      45.967   4.129   7.737  0.00  0.00    +0.000 A 
ENDBRANCH   8  10
ENDBRANCH   1   4
BRANCH   1  17
ATOM     17  N   UNL     1      47.368   7.405  11.895  0.00  0.00    +0.000 N 
ATOM     18  H   UNL     1      47.659   6.781  11.143  0.00  0.00    +0.000 HD
BRANCH  17  22
ATOM     19  C   UNL     1      49.777   6.973  15.171  0.00  0.00    +0.000 A 
ATOM     20  C   UNL     1      50.098   7.804  14.115  0.00  0.00    +0.000 A 
ATOM     21  N   UNL     1      49.334   7.891  12.998  0.00  0.00    +0.000 NA
ATOM     22  C   UNL     1      48.222   7.121  12.958  0.00  0.00    +0.000 A 
ATOM     23  C   UNL     1      47.941   6.246  14.005  0.00  0.00    +0.000 A 
ATOM     24  N   UNL     1      48.700   6.151  15.132  0.00  0.00    +0.000 NA
BRANCH  19  26
ATOM     25  N   UNL     1      51.178   6.956  17.352  0.00  0.00    +0.000 NA
ATOM     26  C   UNL     1      50.541   7.002  16.378  0.00  0.00    +0.000 C 
ENDBRANCH  19  26
ENDBRANCH  17  22
ENDBRANCH   1  17
TORSDOF 5
ENDMDL
MODEL 5
REMARK VINA RESULT:    -7.497      4.294      8.003
REMARK INTER + INTRA:          -9.679
REMARK INTER:                  -8.796
REMARK INTRA:                  -0.883
REMARK UNBOUND:                 0.009
REMARK  Name = 
REMARK  5 active torsions:
REMARK  status: ('A' for Active; 'I' for Inactive)
REMARK    1  A    between atoms: C_2  and  C_3
REMARK    2  A    between atoms: C_6  and  N_7
REMARK    3  A    between atoms: N_7  and  C_8
REMARK    4  A    between atoms: C_8  and  C_9
REMARK    5  A    between atoms: C_13  and  C_14
REMARK                            x       y       z     vdW  Elec       q    Type
REMARK                         _______ _______ _______ _____ _____    ______ ____
ROOT
ATOM      1  C   UNL     1      48.641   7.988  12.742  0.00  0.00    +0.000 C 
ATOM      2  C   UNL     1      49.562   8.406  11.602  0.00  0.00    +0.000 C 
ATOM      3  C   UNL     1      49.156   9.406  12.632  0.00  0.00    +0.000 C 
ENDROOT
BRANCH   1   4
ATOM      4  C   UNL     1      47.185   7.670  12.425  0.00  0.00    +0.000 A 
ATOM      5  C   UNL     1      46.178   8.623  12.644  0.00  0.00    +0.000 A 
ATOM      6  C   UNL     1      44.904   8.463  12.108  0.00  0.00    +0.000 A 
ATOM      7  C   UNL     1      44.602   7.323  11.363  0.00  0.00    +0.000 A 
ATOM      8  C   UNL     1      45.550   6.304  11.171  0.00  0.00    +0.000 A 
ATOM      9  C   UNL     1      46.833   6.502  11.720  0.00  0.00    +0.000 A 
BRANCH   8  10
ATOM     10  C   UNL     1      45.231   5.089  10.385  0.00  0.00    +0.000 A 
ATOM     11  C   UNL     1      44.514   4.016  10.952  0.00  0.00    +0.000 A 
ATOM     12  C   UNL     1      44.222   2.862  10.215  0.00  0.00    +0.000 A 
ATOM     13  C   UNL     1      44.634   2.759   8.890  0.00  0.00    +0.000 A 
ATOM     14  C   UNL     1      45.331   3.813   8.316  0.00  0.00    +0.000 A 
ATOM     15  F   UNL     1      45.722   3.724   7.038  0.00  0.00    +0.000 F 
ATOM     16  C   UNL     1      45.631   4.960   9.047  0.00  0.00    +0.000 A 
ENDBRANCH   8  10
ENDBRANCH   1   4
BRANCH   1  17
ATOM     17  N   UNL     1      49.218   6.967  13.627  0.00  0.00    +0.000 N 
ATOM     18  H   UNL     1      49.340   6.047  13.205  0.00  0.00    +0.000 HD
BRANCH  17  22
ATOM     19  C   UNL     1      48.469   5.944  17.514  0.00  0.00    +0.000 A 
ATOM     20  C   UNL     1      48.159   5.116  16.453  0.00  0.00    +0.000 A 
ATOM     21  N   UNL     1      48.343   5.486  15.162  0.00  0.00    +0.000 NA
ATOM     22  C   UNL     1      48.854   6.721  14.948  0.00  0.00    +0.000 A 
ATOM     23  C   UNL     1      49.107   7.567  16.025  0.00  0.00    +0.000 A 
ATOM     24  N   UNL     1      48.929   7.206  17.326  0.00  0.00    +0.000 NA
BRANCH  19  26
ATOM     25  N   UNL     1      48.371   5.067  19.952  0.00  0.00    +0.000 NA
ATOM     26  C   UNL     1      48.377   5.471  18.859  0.00  0.00    +0.000 C 
ENDBRANCH  19  26
ENDBRANCH  17  22
ENDBRANCH   1  17
TORSDOF 5
ENDMDL
MODEL 6
REMARK VINA RESULT:    -7.286      1.715      2.202
REMARK INTER + INTRA:          -9.406
REMARK INTER:                  -8.738
REMARK INTRA:                  -0.669
REMARK UNBOUND:                 0.009
REMARK  Name = 
REMARK  5 active torsions:
REMARK  status: ('A' for Active; 'I' for Inactive)
REMARK    1  A    between atoms: C_2  and  C_3
REMARK    2  A    between atoms: C_6  and  N_7
REMARK    3  A    between atoms: N_7  and  C_8
REMARK    4  A    between atoms: C_8  and  C_9
REMARK    5  A    between atoms: C_13  and  C_14
REMARK                            x       y       z     vdW  Elec       q    Type
REMARK                         _______ _______ _______ _____ _____    ______ ____
ROOT
ATOM      1  C   UNL     1      44.025   5.238  11.892  0.00  0.00    +0.000 C 
ATOM      2  C   UNL     1      43.040   4.965  13.023  0.00  0.00    +0.000 C 
ATOM      3  C   UNL     1      42.543   5.477  11.713  0.00  0.00    +0.000 C 
ENDROOT
BRANCH   1   4
ATOM      4  C   UNL     1      44.986   6.413  12.028  0.00  0.00    +0.000 A 
ATOM      5  C   UNL     1      44.630   7.687  11.560  0.00  0.00    +0.000 A 
ATOM      6  C   UNL     1      45.359   8.817  11.919  0.00  0.00    +0.000 A 
ATOM      7  C   UNL     1      46.483   8.688  12.735  0.00  0.00    +0.000 A 
ATOM      8  C   UNL     1      46.926   7.429  13.174  0.00  0.00    +0.000 A 
ATOM      9  C   UNL     1      46.160   6.307  12.798  0.00  0.00    +0.000 A 
BRANCH   8  10
ATOM     10  C   UNL     1      48.123   7.287  14.035  0.00  0.00    +0.000 A 
ATOM     11  C   UNL     1      49.275   8.072  13.825  0.00  0.00    +0.000 A 
ATOM     12  C   UNL     1      50.412   7.932  14.630  0.00  0.00    +0.000 A 
ATOM     13  C   UNL     1      50.420   7.007  15.669  0.00  0.00    +0.000 A 
ATOM     14  C   UNL     1      49.288   6.235  15.895  0.00  0.00    +0.000 A 
ATOM     15  F   UNL     1      49.286   5.350  16.899  0.00  0.00    +0.000 F 
ATOM     16  C   UNL     1      48.158   6.365  15.091  0.00  0.00    +0.000 A 
ENDBRANCH   8  10
ENDBRANCH   1   4
BRANCH   1  17
ATOM     17  N   UNL     1      44.730   4.039  11.419  0.00  0.00    +0.000 N 
ATOM     18  H   UNL     1      45.570   3.795  11.942  0.00  0.00    +0.000 HD
BRANCH  17  22
ATOM     19  C   UNL     1      45.991   3.213   7.618  0.00  0.00    +0.000 A 
ATOM     20  C   UNL     1      45.894   4.502   8.107  0.00  0.00    +0.000 A 
ATOM     21  N   UNL     1      45.408   4.777   9.342  0.00  0.00    +0.000 NA
ATOM     22  C   UNL     1      45.017   3.722  10.094  0.00  0.00    +0.000 A 
ATOM     23  C   UNL     1      45.067   2.434   9.566  0.00  0.00    +0.000 A 
ATOM     24  N   UNL     1      45.554   2.144   8.328  0.00  0.00    +0.000 NA
BRANCH  19  26
ATOM     25  N   UNL     1      47.076   2.771   5.305  0.00  0.00    +0.000 NA
ATOM     26  C   UNL     1      46.621   2.957   6.362  0.00  0.00    +0.000 C 
ENDBRANCH  19  26
ENDBRANCH  17  22
ENDBRANCH   1  17
TORSDOF 5
ENDMDL
MODEL 7
REMARK VINA RESULT:    -7.052      2.613      4.486
REMARK INTER + INTRA:          -9.104
REMARK INTER:                  -8.391
REMARK INTRA:                  -0.713
REMARK UNBOUND:                 0.009
REMARK  Name = 
REMARK  5 active torsions:
REMARK  status: ('A' for Active; 'I' for Inactive)
REMARK    1  A    between atoms: C_2  and  C_3
REMARK    2  A    between atoms: C_6  and  N_7
REMARK    3  A    between atoms: N_7  and  C_8
REMARK    4  A    between atoms: C_8  and  C_9
REMARK    5  A    between atoms: C_13  and  C_14
REMARK                            x       y       z     vdW  Elec       q    Type
REMARK                         _______ _______ _______ _____ _____    ______ ____
ROOT
ATOM      1  C   UNL     1      48.129   8.088  12.552  0.00  0.00    +0.000 C 
ATOM      2  C   UNL     1      48.659   9.239  11.705  0.00  0.00    +0.000 C 
ATOM      3  C   UNL     1      49.187   7.859  11.496  0.00  0.00    +0.000 C 
ENDROOT
BRANCH   1   4
ATOM      4  C   UNL     1      48.492   8.041  14.031  0.00  0.00    +0.000 A 
ATOM      5  C   UNL     1      48.404   9.194  14.827  0.00  0.00    +0.000 A 
ATOM      6  C   UNL     1      48.457   9.117  16.216  0.00  0.00    +0.000 A 
ATOM      7  C   UNL     1      48.629   7.880  16.837  0.00  0.00    +0.000 A 
ATOM      8  C   UNL     1      48.792   6.703  16.088  0.00  0.00    +0.000 A 
ATOM      9  C   UNL     1      48.726   6.816  14.684  0.00  0.00    +0.000 A 
BRANCH   8  10
ATOM     10  C   UNL     1      48.981   5.389  16.744  0.00  0.00    +0.000 A 
ATOM     11  C   UNL     1      50.236   4.996  17.253  0.00  0.00    +0.000 A 
ATOM     12  C   UNL     1      50.420   3.749  17.863  0.00  0.00    +0.000 A 
ATOM     13  C   UNL     1      49.349   2.870  17.986  0.00  0.00    +0.000 A 
ATOM     14  C   UNL     1      48.105   3.247  17.500  0.00  0.00    +0.000 A 
ATOM     15  F   UNL     1      47.069   2.409  17.623  0.00  0.00    +0.000 F 
ATOM     16  C   UNL     1      47.919   4.483  16.884  0.00  0.00    +0.000 A 
ENDBRANCH   8  10
ENDBRANCH   1   4
BRANCH   1  17
ATOM     17  N   UNL     1      46.697   7.820  12.356  0.00  0.00    +0.000 N 
ATOM     18  H   UNL     1      46.075   8.288  13.014  0.00  0.00    +0.000 HD
BRANCH  17  22
ATOM     19  C   UNL     1      44.613   4.346  11.803  0.00  0.00    +0.000 A 
ATOM     20  C   UNL     1      44.919   4.839  13.057  0.00  0.00    +0.000 A 
ATOM     21  N   UNL     1      45.671   5.953  13.238  0.00  0.00    +0.000 NA
ATOM     22  C   UNL     1      46.117   6.577  12.123  0.00  0.00    +0.000 A 
ATOM     23  C   UNL     1      45.849   6.035  10.867  0.00  0.00    +0.000 A 
ATOM     24  N   UNL     1      45.094   4.919  10.673  0.00  0.00    +0.000 NA
BRANCH  19  26
ATOM     25  N   UNL     1      43.006   2.323  11.597  0.00  0.00    +0.000 NA
ATOM     26  C   UNL     1      43.718   3.243  11.653  0.00  0.00    +0.000 C 
ENDBRANCH  19  26
ENDBRANCH  17  22
ENDBRANCH   1  17
TORSDOF 5
ENDMDL
MODEL 8
REMARK VINA RESULT:    -6.936      4.939      7.947
REMARK INTER + INTRA:          -8.954
REMARK INTER:                  -8.540
REMARK INTRA:                  -0.415
REMARK UNBOUND:                 0.009
REMARK  Name = 
REMARK  5 active torsions:
REMARK  status: ('A' for Active; 'I' for Inactive)
REMARK    1  A    between atoms: C_2  and  C_3
REMARK    2  A    between atoms: C_6  and  N_7
REMARK    3  A    between atoms: N_7  and  C_8
REMARK    4  A    between atoms: C_8  and  C_9
REMARK    5  A    between atoms: C_13  and  C_14
REMARK                            x       y       z     vdW  Elec       q    Type
REMARK                         _______ _______ _______ _____ _____    ______ ____
ROOT
ATOM      1  C   UNL     1      48.125   4.706  16.838  0.00  0.00    +0.000 C 
ATOM      2  C   UNL     1      47.173   4.903  18.012  0.00  0.00    +0.000 C 
ATOM      3  C   UNL     1      47.221   3.589  17.308  0.00  0.00    +0.000 C 
ENDROOT
BRANCH   1   4
ATOM      4  C   UNL     1      47.836   5.436  15.533  0.00  0.00    +0.000 A 
ATOM      5  C   UNL     1      48.656   6.491  15.104  0.00  0.00    +0.000 A 
ATOM      6  C   UNL     1      48.582   6.979  13.803  0.00  0.00    +0.000 A 
ATOM      7  C   UNL     1      47.659   6.436  12.908  0.00  0.00    +0.000 A 
ATOM      8  C   UNL     1      46.766   5.427  13.304  0.00  0.00    +0.000 A 
ATOM      9  C   UNL     1      46.873   4.951  14.626  0.00  0.00    +0.000 A 
BRANCH   8  10
ATOM     10  C   UNL     1      45.780   4.853  12.359  0.00  0.00    +0.000 A 
ATOM     11  C   UNL     1      45.619   5.374  11.059  0.00  0.00    +0.000 A 
ATOM     12  C   UNL     1      44.680   4.842  10.168  0.00  0.00    +0.000 A 
ATOM     13  C   UNL     1      43.884   3.768  10.556  0.00  0.00    +0.000 A 
ATOM     14  C   UNL     1      44.039   3.237  11.829  0.00  0.00    +0.000 A 
ATOM     15  F   UNL     1      43.283   2.198  12.205  0.00  0.00    +0.000 F 
ATOM     16  C   UNL     1      44.967   3.770  12.722  0.00  0.00    +0.000 A 
ENDBRANCH   8  10
ENDBRANCH   1   4
BRANCH   1  17
ATOM     17  N   UNL     1      49.544   4.826  17.200  0.00  0.00    +0.000 N 
ATOM     18  H   UNL     1      50.091   5.450  16.609  0.00  0.00    +0.000 HD
BRANCH  17  22
ATOM     19  C   UNL     1      52.189   1.751  17.721  0.00  0.00    +0.000 A 
ATOM     20  C   UNL     1      50.995   1.599  17.044  0.00  0.00    +0.000 A 
ATOM     21  N   UNL     1      50.087   2.600  16.934  0.00  0.00    +0.000 NA
ATOM     22  C   UNL     1      50.403   3.778  17.521  0.00  0.00    +0.000 A 
ATOM     23  C   UNL     1      51.584   3.899  18.250  0.00  0.00    +0.000 A 
ATOM     24  N   UNL     1      52.504   2.901  18.366  0.00  0.00    +0.000 NA
BRANCH  19  26
ATOM     25  N   UNL     1      54.021  -0.083  17.698  0.00  0.00    +0.000 NA
ATOM     26  C   UNL     1      53.171   0.713  17.709  0.00  0.00    +0.000 C 
ENDBRANCH  19  26
ENDBRANCH  17  22
ENDBRANCH   1  17
TORSDOF 5
ENDMDL
MODEL 9
REMARK VINA RESULT:    -6.525      3.965      7.340
REMARK INTER + INTRA:          -8.423
REMARK INTER:                  -8.374
REMARK INTRA:                  -0.049
REMARK UNBOUND:                 0.009
REMARK  Name = 
REMARK  5 active torsions:
REMARK  status: ('A' for Active; 'I' for Inactive)
REMARK    1  A    between atoms: C_2  and  C_3
REMARK    2  A    between atoms: C_6  and  N_7
REMARK    3  A    between atoms: N_7  and  C_8
REMARK    4  A    between atoms: C_8  and  C_9
REMARK    5  A    between atoms: C_13  and  C_14
REMARK                            x       y       z     vdW  Elec       q    Type
REMARK                         _______ _______ _______ _____ _____    ______ ____
ROOT
ATOM      1  C   UNL     1      48.311   7.732  13.868  0.00  0.00    +0.000 C 
ATOM      2  C   UNL     1      49.511   7.058  13.212  0.00  0.00    +0.000 C 
ATOM      3  C   UNL     1      49.439   8.547  13.276  0.00  0.00    +0.000 C 
ENDROOT
BRANCH   1   4
ATOM      4  C   UNL     1      46.960   7.659  13.167  0.00  0.00    +0.000 A 
ATOM      5  C   UNL     1      46.166   8.807  13.021  0.00  0.00    +0.000 A 
ATOM      6  C   UNL     1      45.078   8.826  12.153  0.00  0.00    +0.000 A 
ATOM      7  C   UNL     1      44.744   7.679  11.433  0.00  0.00    +0.000 A 
ATOM      8  C   UNL     1      45.462   6.482  11.592  0.00  0.00    +0.000 A 
ATOM      9  C   UNL     1      46.562   6.500  12.473  0.00  0.00    +0.000 A 
BRANCH   8  10
ATOM     10  C   UNL     1      45.106   5.260  10.833  0.00  0.00    +0.000 A 
ATOM     11  C   UNL     1      45.533   5.071   9.503  0.00  0.00    +0.000 A 
ATOM     12  C   UNL     1      45.188   3.924   8.780  0.00  0.00    +0.000 A 
ATOM     13  C   UNL     1      44.414   2.933   9.376  0.00  0.00    +0.000 A 
ATOM     14  C   UNL     1      43.996   3.100  10.688  0.00  0.00    +0.000 A 
ATOM     15  F   UNL     1      43.258   2.146  11.270  0.00  0.00    +0.000 F 
ATOM     16  C   UNL     1      44.329   4.244  11.409  0.00  0.00    +0.000 A 
ENDBRANCH   8  10
ENDBRANCH   1   4
BRANCH   1  17
ATOM     17  N   UNL     1      48.174   7.432  15.300  0.00  0.00    +0.000 N 
ATOM     18  H   UNL     1      48.426   8.194  15.928  0.00  0.00    +0.000 HD
BRANCH  17  22
ATOM     19  C   UNL     1      49.488   3.857  16.787  0.00  0.00    +0.000 A 
ATOM     20  C   UNL     1      48.267   3.997  16.155  0.00  0.00    +0.000 A 
ATOM     21  N   UNL     1      47.803   5.197  15.727  0.00  0.00    +0.000 NA
ATOM     22  C   UNL     1      48.596   6.271  15.942  0.00  0.00    +0.000 A 
ATOM     23  C   UNL     1      49.798   6.124  16.632  0.00  0.00    +0.000 A 
ATOM     24  N   UNL     1      50.276   4.924  17.065  0.00  0.00    +0.000 NA
BRANCH  19  26
ATOM     25  N   UNL     1      50.443   1.505  17.314  0.00  0.00    +0.000 NA
ATOM     26  C   UNL     1      49.995   2.562  17.112  0.00  0.00    +0.000 C 
ENDBRANCH  19  26
ENDBRANCH  17  22
ENDBRANCH   1  17
TORSDOF 5
ENDMDL
