MODEL 1
REMARK VINA RESULT:    -7.830      0.000      0.000
REMARK INTER + INTRA:          -9.094
REMARK INTER:                  -9.203
REMARK INTRA:                   0.110
REMARK UNBOUND:                 0.110
REMARK  Name = 
REMARK  4 active torsions:
REMARK  status: ('A' for Active; 'I' for Inactive)
REMARK    1  A    between atoms: C_1  and  N_2
REMARK    2  A    between atoms: C_4  and  N_5
REMARK    3  A    between atoms: C_4  and  C_15
REMARK    4  A    between atoms: C_9  and  C_10
REMARK                            x       y       z     vdW  Elec       q    Type
REMARK                         _______ _______ _______ _____ _____    ______ ____
ROOT
ATOM      1  N   UNL     1      44.865   5.520   9.689  0.00  0.00    +0.000 N 
ATOM      2  C   UNL     1      45.394   4.412   9.046  0.00  0.00    +0.000 A 
ATOM      3  N   UNL     1      45.088   3.184   9.479  0.00  0.00    +0.000 NA
ATOM      4  C   UNL     1      45.646   2.132   8.840  0.00  0.00    +0.000 A 
ATOM      5  C   UNL     1      46.490   2.267   7.771  0.00  0.00    +0.000 A 
ATOM      6  C   UNL     1      46.754   3.561   7.396  0.00  0.00    +0.000 A 
ATOM      7  N   UNL     1      46.210   4.640   8.008  0.00  0.00    +0.000 NA
ATOM      8  H   UNL     1      45.299   6.360   9.317  0.00  0.00    +0.000 HD
ENDROOT
BRANCH   1  12
ATOM      9  C   UNL     1      43.400   3.317  13.224  0.00  0.00    +0.000 C 
ATOM     10  N   UNL     1      43.867   4.630  12.806  0.00  0.00    +0.000 NA
ATOM     11  C   UNL     1      43.183   5.074  11.549  0.00  0.00    +0.000 C 
ATOM     12  C   UNL     1      44.563   5.668  11.100  0.00  0.00    +0.000 C 
ATOM     13  C   UNL     1      45.136   4.534  12.023  0.00  0.00    +0.000 C 
BRANCH  12  14
ATOM     14  C   UNL     1      44.882   7.186  11.541  0.00  0.00    +0.000 A 
ATOM     15  C   UNL     1      45.892   7.558  12.433  0.00  0.00    +0.000 A 
ATOM     16  C   UNL     1      46.075   8.895  12.765  0.00  0.00    +0.000 A 
ATOM     17  C   UNL     1      45.243   9.850  12.200  0.00  0.00    +0.000 A 
ATOM     18  C   UNL     1      44.266   9.422  11.318  0.00  0.00    +0.000 A 
ATOM     19  N   UNL     1      44.072   8.128  10.971  0.00  0.00    +0.000 NA
ENDBRANCH  12  14
ENDBRANCH   1  12
BRANCH   5  20
ATOM     20  C   UNL     1      47.065   1.075   7.131  0.00  0.00    +0.000 C 
ATOM     21  N   UNL     1      46.725  -0.150   7.626  0.00  0.00    +0.000 N 
ATOM     22  O   UNL     1      47.851   1.186   6.197  0.00  0.00    +0.000 OA
ATOM     23  H   UNL     1      46.178  -0.308   8.460  0.00  0.00    +0.000 HD
ATOM     24  H   UNL     1      47.196  -0.950   7.217  0.00  0.00    +0.000 HD
ENDBRANCH   5  20
TORSDOF 3
ENDMDL
MODEL 2
REMARK VINA RESULT:    -6.695      1.537      2.008
REMARK INTER + INTRA:          -7.760
REMARK INTER:                  -7.909
REMARK INTRA:                   0.149
REMARK UNBOUND:                 0.110
REMARK  Name = 
REMARK  4 active torsions:
REMARK  status: ('A' for Active; 'I' for Inactive)
REMARK    1  A    between atoms: C_1  and  N_2
REMARK    2  A    between atoms: C_4  and  N_5
REMARK    3  A    between atoms: C_4  and  C_15
REMARK    4  A    between atoms: C_9  and  C_10
REMARK                            x       y       z     vdW  Elec       q    Type
REMARK                         _______ _______ _______ _____ _____    ______ ____
ROOT
ATOM      1  N   UNL     1      45.189   5.550   9.906  0.00  0.00    +0.000 N 
ATOM      2  C   UNL     1      45.673   4.513   9.125  0.00  0.00    +0.000 A 
ATOM      3  N   UNL     1      45.538   3.248   9.542  0.00  0.00    +0.000 NA
ATOM      4  C   UNL     1      46.048   2.269   8.764  0.00  0.00    +0.000 A 
ATOM      5  C   UNL     1      46.677   2.510   7.572  0.00  0.00    +0.000 A 
ATOM      6  C   UNL     1      46.776   3.834   7.222  0.00  0.00    +0.000 A 
ATOM      7  N   UNL     1      46.273   4.843   7.973  0.00  0.00    +0.000 NA
ATOM      8  H   UNL     1      45.488   6.435   9.506  0.00  0.00    +0.000 HD
ENDROOT
BRANCH   1  12
ATOM      9  C   UNL     1      42.865   4.197  13.408  0.00  0.00    +0.000 C 
ATOM     10  N   UNL     1      44.036   4.981  13.044  0.00  0.00    +0.000 NA
ATOM     11  C   UNL     1      43.719   5.952  11.947  0.00  0.00    +0.000 C 
ATOM     12  C   UNL     1      45.132   5.622  11.354  0.00  0.00    +0.000 C 
ATOM     13  C   UNL     1      44.905   4.246  12.076  0.00  0.00    +0.000 C 
BRANCH  12  14
ATOM     14  C   UNL     1      46.369   6.514  11.876  0.00  0.00    +0.000 A 
ATOM     15  C   UNL     1      46.495   7.892  11.675  0.00  0.00    +0.000 A 
ATOM     16  C   UNL     1      47.613   8.568  12.149  0.00  0.00    +0.000 A 
ATOM     17  C   UNL     1      48.597   7.859  12.821  0.00  0.00    +0.000 A 
ATOM     18  C   UNL     1      48.413   6.498  12.996  0.00  0.00    +0.000 A 
ATOM     19  N   UNL     1      47.331   5.816  12.553  0.00  0.00    +0.000 NA
ENDBRANCH  12  14
ENDBRANCH   1  12
BRANCH   5  20
ATOM     20  C   UNL     1      47.213   1.393   6.782  0.00  0.00    +0.000 C 
ATOM     21  N   UNL     1      48.128   1.672   5.810  0.00  0.00    +0.000 N 
ATOM     22  O   UNL     1      46.823   0.247   6.975  0.00  0.00    +0.000 OA
ATOM     23  H   UNL     1      48.405   2.600   5.522  0.00  0.00    +0.000 HD
ATOM     24  H   UNL     1      48.423   0.895   5.228  0.00  0.00    +0.000 HD
ENDBRANCH   5  20
TORSDOF 3
ENDMDL
MODEL 3
REMARK VINA RESULT:    -6.355      3.670      6.472
REMARK INTER + INTRA:          -7.360
REMARK INTER:                  -7.323
REMARK INTRA:                  -0.037
REMARK UNBOUND:                 0.110
REMARK  Name = 
REMARK  4 active torsions:
REMARK  status: ('A' for Active; 'I' for Inactive)
REMARK    1  A    between atoms: C_1  and  N_2
REMARK    2  A    between atoms: C_4  and  N_5
REMARK    3  A    between atoms: C_4  and  C_15
REMARK    4  A    between atoms: C_9  and  C_10
REMARK                            x       y       z     vdW  Elec       q    Type
REMARK                         _______ _______ _______ _____ _____    ______ ____
ROOT
ATOM      1  N   UNL     1      46.293   5.692  11.553  0.00  0.00    +0.000 N 
ATOM      2  C   UNL     1      46.801   5.476  12.824  0.00  0.00    +0.000 A 
ATOM      3  N   UNL     1      46.574   4.310  13.441  0.00  0.00    +0.000 NA
ATOM      4  C   UNL     1      47.064   4.151  14.690  0.00  0.00    +0.000 A 
ATOM      5  C   UNL     1      47.789   5.114  15.338  0.00  0.00    +0.000 A 
ATOM      6  C   UNL     1      47.971   6.280  14.636  0.00  0.00    +0.000 A 
ATOM      7  N   UNL     1      47.499   6.475  13.381  0.00  0.00    +0.000 NA
ATOM      8  H   UNL     1      46.447   6.662  11.293  0.00  0.00    +0.000 HD
ENDROOT
BRANCH   1  12
ATOM      9  C   UNL     1      41.904   5.876  12.008  0.00  0.00    +0.000 C 
ATOM     10  N   UNL     1      42.947   5.270  11.194  0.00  0.00    +0.000 NA
ATOM     11  C   UNL     1      44.017   4.660  12.049  0.00  0.00    +0.000 C 
ATOM     12  C   UNL     1      45.050   5.191  10.996  0.00  0.00    +0.000 C 
ATOM     13  C   UNL     1      43.949   6.282  10.747  0.00  0.00    +0.000 C 
BRANCH  12  14
ATOM     14  C   UNL     1      45.394   4.219   9.757  0.00  0.00    +0.000 A 
ATOM     15  C   UNL     1      45.197   2.834   9.755  0.00  0.00    +0.000 A 
ATOM     16  C   UNL     1      45.545   2.080   8.641  0.00  0.00    +0.000 A 
ATOM     17  C   UNL     1      46.088   2.718   7.536  0.00  0.00    +0.000 A 
ATOM     18  C   UNL     1      46.252   4.091   7.594  0.00  0.00    +0.000 A 
ATOM     19  N   UNL     1      45.914   4.852   8.662  0.00  0.00    +0.000 NA
ENDBRANCH  12  14
ENDBRANCH   1  12
BRANCH   5  20
ATOM     20  C   UNL     1      48.285   4.872  16.701  0.00  0.00    +0.000 C 
ATOM     21  N   UNL     1      47.729   5.582  17.725  0.00  0.00    +0.000 N 
ATOM     22  O   UNL     1      49.194   4.075  16.902  0.00  0.00    +0.000 OA
ATOM     23  H   UNL     1      47.063   6.332  17.616  0.00  0.00    +0.000 HD
ATOM     24  H   UNL     1      48.143   5.453  18.642  0.00  0.00    +0.000 HD
ENDBRANCH   5  20
TORSDOF 3
ENDMDL
MODEL 4
REMARK VINA RESULT:    -6.342      4.539      7.073
REMARK INTER + INTRA:          -7.345
REMARK INTER:                  -7.600
REMARK INTRA:                   0.255
REMARK UNBOUND:                 0.110
REMARK  Name = 
REMARK  4 active torsions:
REMARK  status: ('A' for Active; 'I' for Inactive)
REMARK    1  A    between atoms: C_1  and  N_2
REMARK    2  A    between atoms: C_4  and  N_5
REMARK    3  A    between atoms: C_4  and  C_15
REMARK    4  A    between atoms: C_9  and  C_10
REMARK                            x       y       z     vdW  Elec       q    Type
REMARK                         _______ _______ _______ _____ _____    ______ ____
ROOT
ATOM      1  N   UNL     1      46.063   3.978  13.337  0.00  0.00    +0.000 N 
ATOM      2  C   UNL     1      46.850   4.003  14.477  0.00  0.00    +0.000 A 
ATOM      3  N   UNL     1      46.933   5.126  15.201  0.00  0.00    +0.000 NA
ATOM      4  C   UNL     1      47.732   5.116  16.290  0.00  0.00    +0.000 A 
ATOM      5  C   UNL     1      48.441   4.014  16.690  0.00  0.00    +0.000 A 
ATOM      6  C   UNL     1      48.301   2.908  15.889  0.00  0.00    +0.000 A 
ATOM      7  N   UNL     1      47.506   2.879  14.792  0.00  0.00    +0.000 NA
ATOM      8  H   UNL     1      46.216   3.101  12.846  0.00  0.00    +0.000 HD
ENDROOT
BRANCH   1  12
ATOM      9  C   UNL     1      45.978   8.380  13.001  0.00  0.00    +0.000 C 
ATOM     10  N   UNL     1      45.769   7.168  12.223  0.00  0.00    +0.000 NA
ATOM     11  C   UNL     1      44.884   6.202  12.951  0.00  0.00    +0.000 C 
ATOM     12  C   UNL     1      45.811   5.062  12.406  0.00  0.00    +0.000 C 
ATOM     13  C   UNL     1      46.892   6.200  12.407  0.00  0.00    +0.000 C 
BRANCH  12  14
ATOM     14  C   UNL     1      45.429   4.433  10.972  0.00  0.00    +0.000 A 
ATOM     15  C   UNL     1      45.630   5.074   9.745  0.00  0.00    +0.000 A 
ATOM     16  C   UNL     1      45.247   4.454   8.561  0.00  0.00    +0.000 A 
ATOM     17  C   UNL     1      44.665   3.196   8.615  0.00  0.00    +0.000 A 
ATOM     18  C   UNL     1      44.498   2.610   9.858  0.00  0.00    +0.000 A 
ATOM     19  N   UNL     1      44.870   3.187  11.025  0.00  0.00    +0.000 NA
ENDBRANCH  12  14
ENDBRANCH   1  12
BRANCH   5  20
ATOM     20  C   UNL     1      49.296   4.081  17.884  0.00  0.00    +0.000 C 
ATOM     21  N   UNL     1      49.030   3.227  18.915  0.00  0.00    +0.000 N 
ATOM     22  O   UNL     1      50.202   4.903  17.958  0.00  0.00    +0.000 OA
ATOM     23  H   UNL     1      48.234   2.609  18.967  0.00  0.00    +0.000 HD
ATOM     24  H   UNL     1      49.585   3.347  19.756  0.00  0.00    +0.000 HD
ENDBRANCH   5  20
TORSDOF 3
ENDMDL
MODEL 5
REMARK VINA RESULT:    -6.188      4.097      6.131
REMARK INTER + INTRA:          -7.163
REMARK INTER:                  -6.865
REMARK INTRA:                  -0.298
REMARK UNBOUND:                 0.110
REMARK  Name = 
REMARK  4 active torsions:
REMARK  status: ('A' for Active; 'I' for Inactive)
REMARK    1  A    between atoms: C_1  and  N_2
REMARK    2  A    between atoms: C_4  and  N_5
REMARK    3  A    between atoms: C_4  and  C_15
REMARK    4  A    between atoms: C_9  and  C_10
REMARK                            x       y       z     vdW  Elec       q    Type
REMARK                         _______ _______ _______ _____ _____    ______ ____
ROOT
ATOM      1  N   UNL     1      46.825   7.615  13.642  0.00  0.00    +0.000 N 
ATOM      2  C   UNL     1      46.075   6.549  13.172  0.00  0.00    +0.000 A 
ATOM      3  N   UNL     1      46.476   5.295  13.416  0.00  0.00    +0.000 NA
ATOM      4  C   UNL     1      45.730   4.286  12.918  0.00  0.00    +0.000 A 
ATOM      5  C   UNL     1      44.584   4.486  12.195  0.00  0.00    +0.000 A 
ATOM      6  C   UNL     1      44.248   5.801  11.988  0.00  0.00    +0.000 A 
ATOM      7  N   UNL     1      44.968   6.840  12.476  0.00  0.00    +0.000 NA
ATOM      8  H   UNL     1      46.451   8.479  13.261  0.00  0.00    +0.000 HD
ENDROOT
BRANCH   1  12
ATOM      9  C   UNL     1      50.560   8.400  11.421  0.00  0.00    +0.000 C 
ATOM     10  N   UNL     1      50.065   8.066  12.748  0.00  0.00    +0.000 NA
ATOM     11  C   UNL     1      49.088   6.931  12.694  0.00  0.00    +0.000 C 
ATOM     12  C   UNL     1      48.266   7.689  13.792  0.00  0.00    +0.000 C 
ATOM     13  C   UNL     1      48.935   8.956  13.149  0.00  0.00    +0.000 C 
BRANCH  12  14
ATOM     14  C   UNL     1      48.642   7.379  15.329  0.00  0.00    +0.000 A 
ATOM     15  C   UNL     1      48.631   8.328  16.357  0.00  0.00    +0.000 A 
ATOM     16  C   UNL     1      48.992   7.964  17.648  0.00  0.00    +0.000 A 
ATOM     17  C   UNL     1      49.361   6.651  17.902  0.00  0.00    +0.000 A 
ATOM     18  C   UNL     1      49.344   5.756  16.846  0.00  0.00    +0.000 A 
ATOM     19  N   UNL     1      48.990   6.081  15.581  0.00  0.00    +0.000 NA
ENDBRANCH  12  14
ENDBRANCH   1  12
BRANCH   5  20
ATOM     20  C   UNL     1      43.827   3.337  11.678  0.00  0.00    +0.000 C 
ATOM     21  N   UNL     1      43.685   2.245  12.484  0.00  0.00    +0.000 N 
ATOM     22  O   UNL     1      43.364   3.353  10.544  0.00  0.00    +0.000 OA
ATOM     23  H   UNL     1      44.136   2.120  13.378  0.00  0.00    +0.000 HD
ATOM     24  H   UNL     1      43.227   1.437  12.074  0.00  0.00    +0.000 HD
ENDBRANCH   5  20
TORSDOF 3
ENDMDL
MODEL 6
REMARK VINA RESULT:    -5.924      5.041      6.922
REMARK INTER + INTRA:          -6.853
REMARK INTER:                  -6.689
REMARK INTRA:                  -0.164
REMARK UNBOUND:                 0.110
REMARK  Name = 
REMARK  4 active torsions:
REMARK  status: ('A' for Active; 'I' for Inactive)
REMARK    1  A    between atoms: C_1  and  N_2
REMARK    2  A    between atoms: C_4  and  N_5
REMARK    3  A    between atoms: C_4  and  C_15
REMARK    4  A    between atoms: C_9  and  C_10
REMARK                            x       y       z     vdW  Elec       q    Type
REMARK                         _______ _______ _______ _____ _____    ______ ____
ROOT
ATOM      1  N   UNL     1      46.571   3.652  13.690  0.00  0.00    +0.000 N 
ATOM      2  C   UNL     1      47.108   3.671  14.967  0.00  0.00    +0.000 A 
ATOM      3  N   UNL     1      46.596   4.492  15.891  0.00  0.00    +0.000 NA
ATOM      4  C   UNL     1      47.166   4.498  17.116  0.00  0.00    +0.000 A 
ATOM      5  C   UNL     1      48.224   3.697  17.454  0.00  0.00    +0.000 A 
ATOM      6  C   UNL     1      48.690   2.890  16.446  0.00  0.00    +0.000 A 
ATOM      7  N   UNL     1      48.142   2.852  15.208  0.00  0.00    +0.000 NA
ATOM      8  H   UNL     1      47.155   3.075  13.091  0.00  0.00    +0.000 HD
ENDROOT
BRANCH   1  12
ATOM      9  C   UNL     1      43.057   4.842  11.296  0.00  0.00    +0.000 C 
ATOM     10  N   UNL     1      44.321   5.352  11.806  0.00  0.00    +0.000 NA
ATOM     11  C   UNL     1      45.441   4.395  11.531  0.00  0.00    +0.000 C 
ATOM     12  C   UNL     1      45.997   4.761  12.951  0.00  0.00    +0.000 C 
ATOM     13  C   UNL     1      44.485   5.050  13.259  0.00  0.00    +0.000 C 
BRANCH  12  14
ATOM     14  C   UNL     1      47.003   6.017  13.040  0.00  0.00    +0.000 A 
ATOM     15  C   UNL     1      48.373   5.959  12.763  0.00  0.00    +0.000 A 
ATOM     16  C   UNL     1      49.160   7.097  12.888  0.00  0.00    +0.000 A 
ATOM     17  C   UNL     1      48.570   8.286  13.289  0.00  0.00    +0.000 A 
ATOM     18  C   UNL     1      47.209   8.283  13.542  0.00  0.00    +0.000 A 
ATOM     19  N   UNL     1      46.417   7.192  13.420  0.00  0.00    +0.000 NA
ENDBRANCH  12  14
ENDBRANCH   1  12
BRANCH   5  20
ATOM     20  C   UNL     1      48.798   3.764  18.805  0.00  0.00    +0.000 C 
ATOM     21  N   UNL     1      48.268   2.957  19.770  0.00  0.00    +0.000 N 
ATOM     22  O   UNL     1      49.706   4.546  19.061  0.00  0.00    +0.000 OA
ATOM     23  H   UNL     1      47.449   2.377  19.657  0.00  0.00    +0.000 HD
ATOM     24  H   UNL     1      48.629   3.079  20.711  0.00  0.00    +0.000 HD
ENDBRANCH   5  20
TORSDOF 3
ENDMDL
MODEL 7
REMARK VINA RESULT:    -5.711      3.988      5.733
REMARK INTER + INTRA:          -6.604
REMARK INTER:                  -6.396
REMARK INTRA:                  -0.208
REMARK UNBOUND:                 0.110
REMARK  Name = 
REMARK  4 active torsions:
REMARK  status: ('A' for Active; 'I' for Inactive)
REMARK    1  A    between atoms: C_1  and  N_2
REMARK    2  A    between atoms: C_4  and  N_5
REMARK    3  A    between atoms: C_4  and  C_15
REMARK    4  A    between atoms: C_9  and  C_10
REMARK                            x       y       z     vdW  Elec       q    Type
REMARK                         _______ _______ _______ _____ _____    ______ ____
ROOT
ATOM      1  N   UNL     1      46.812   8.040  13.858  0.00  0.00    +0.000 N 
ATOM      2  C   UNL     1      46.091   7.181  13.044  0.00  0.00    +0.000 A 
ATOM      3  N   UNL     1      46.308   5.862  13.112  0.00  0.00    +0.000 NA
ATOM      4  C   UNL     1      45.602   5.063  12.283  0.00  0.00    +0.000 A 
ATOM      5  C   UNL     1      44.673   5.537  11.396  0.00  0.00    +0.000 A 
ATOM      6  C   UNL     1      44.516   6.901  11.389  0.00  0.00    +0.000 A 
ATOM      7  N   UNL     1      45.201   7.734  12.208  0.00  0.00    +0.000 NA
ATOM      8  H   UNL     1      46.616   8.999  13.587  0.00  0.00    +0.000 HD
ENDROOT
BRANCH   1  12
ATOM      9  C   UNL     1      49.263   6.970  17.372  0.00  0.00    +0.000 C 
ATOM     10  N   UNL     1      49.374   7.380  15.980  0.00  0.00    +0.000 NA
ATOM     11  C   UNL     1      48.500   8.563  15.692  0.00  0.00    +0.000 C 
ATOM     12  C   UNL     1      48.183   7.893  14.311  0.00  0.00    +0.000 C 
ATOM     13  C   UNL     1      48.482   6.569  15.099  0.00  0.00    +0.000 C 
BRANCH  12  14
ATOM     14  C   UNL     1      49.172   8.242  13.086  0.00  0.00    +0.000 A 
ATOM     15  C   UNL     1      49.674   7.304  12.179  0.00  0.00    +0.000 A 
ATOM     16  C   UNL     1      50.538   7.703  11.167  0.00  0.00    +0.000 A 
ATOM     17  C   UNL     1      50.893   9.041  11.070  0.00  0.00    +0.000 A 
ATOM     18  C   UNL     1      50.358   9.923  11.992  0.00  0.00    +0.000 A 
ATOM     19  N   UNL     1      49.508   9.563  12.982  0.00  0.00    +0.000 NA
ENDBRANCH  12  14
ENDBRANCH   1  12
BRANCH   5  20
ATOM     20  C   UNL     1      43.948   4.606  10.519  0.00  0.00    +0.000 C 
ATOM     21  N   UNL     1      44.268   4.590   9.193  0.00  0.00    +0.000 N 
ATOM     22  O   UNL     1      43.061   3.888  10.967  0.00  0.00    +0.000 OA
ATOM     23  H   UNL     1      44.902   5.231   8.740  0.00  0.00    +0.000 HD
ATOM     24  H   UNL     1      43.699   3.996   8.598  0.00  0.00    +0.000 HD
ENDBRANCH   5  20
TORSDOF 3
ENDMDL
MODEL 8
REMARK VINA RESULT:    -5.704      3.587      6.393
REMARK INTER + INTRA:          -6.594
REMARK INTER:                  -6.700
REMARK INTRA:                   0.106
REMARK UNBOUND:                 0.110
REMARK  Name = 
REMARK  4 active torsions:
REMARK  status: ('A' for Active; 'I' for Inactive)
REMARK    1  A    between atoms: C_1  and  N_2
REMARK    2  A    between atoms: C_4  and  N_5
REMARK    3  A    between atoms: C_4  and  C_15
REMARK    4  A    between atoms: C_9  and  C_10
REMARK                            x       y       z     vdW  Elec       q    Type
REMARK                         _______ _______ _______ _____ _____    ______ ____
ROOT
ATOM      1  N   UNL     1      45.587   6.607  10.931  0.00  0.00    +0.000 N 
ATOM      2  C   UNL     1      46.653   7.071  11.683  0.00  0.00    +0.000 A 
ATOM      3  N   UNL     1      47.570   6.210  12.139  0.00  0.00    +0.000 NA
ATOM      4  C   UNL     1      48.579   6.701  12.891  0.00  0.00    +0.000 A 
ATOM      5  C   UNL     1      48.712   8.030  13.191  0.00  0.00    +0.000 A 
ATOM      6  C   UNL     1      47.726   8.843  12.689  0.00  0.00    +0.000 A 
ATOM      7  N   UNL     1      46.702   8.388  11.927  0.00  0.00    +0.000 NA
ATOM      8  H   UNL     1      44.928   7.366  10.781  0.00  0.00    +0.000 HD
ENDROOT
BRANCH   1  12
ATOM      9  C   UNL     1      42.865   4.315  13.546  0.00  0.00    +0.000 C 
ATOM     10  N   UNL     1      43.593   4.223  12.290  0.00  0.00    +0.000 NA
ATOM     11  C   UNL     1      45.021   4.648  12.458  0.00  0.00    +0.000 C 
ATOM     12  C   UNL     1      44.899   5.335  11.054  0.00  0.00    +0.000 C 
ATOM     13  C   UNL     1      43.382   5.437  11.446  0.00  0.00    +0.000 C 
BRANCH  12  14
ATOM     14  C   UNL     1      45.251   4.431   9.766  0.00  0.00    +0.000 A 
ATOM     15  C   UNL     1      44.896   3.086   9.619  0.00  0.00    +0.000 A 
ATOM     16  C   UNL     1      45.264   2.386   8.477  0.00  0.00    +0.000 A 
ATOM     17  C   UNL     1      45.986   3.040   7.488  0.00  0.00    +0.000 A 
ATOM     18  C   UNL     1      46.300   4.373   7.686  0.00  0.00    +0.000 A 
ATOM     19  N   UNL     1      45.948   5.080   8.785  0.00  0.00    +0.000 NA
ENDBRANCH  12  14
ENDBRANCH   1  12
BRANCH   5  20
ATOM     20  C   UNL     1      49.833   8.490  14.022  0.00  0.00    +0.000 C 
ATOM     21  N   UNL     1      50.848   7.614  14.278  0.00  0.00    +0.000 N 
ATOM     22  O   UNL     1      49.838   9.621  14.495  0.00  0.00    +0.000 OA
ATOM     23  H   UNL     1      50.852   6.638  14.018  0.00  0.00    +0.000 HD
ATOM     24  H   UNL     1      51.569   7.931  14.917  0.00  0.00    +0.000 HD
ENDBRANCH   5  20
TORSDOF 3
ENDMDL
MODEL 9
REMARK VINA RESULT:    -5.604      4.409      6.769
REMARK INTER + INTRA:          -6.478
REMARK INTER:                  -6.164
REMARK INTRA:                  -0.313
REMARK UNBOUND:                 0.110
REMARK  Name = 
REMARK  4 active torsions:
REMARK  status: ('A' for Active; 'I' for Inactive)
REMARK    1  A    between atoms: C_1  and  N_2
REMARK    2  A    between atoms: C_4  and  N_5
REMARK    3  A    between atoms: C_4  and  C_15
REMARK    4  A    between atoms: C_9  and  C_10
REMARK                            x       y       z     vdW  Elec       q    Type
REMARK                         _______ _______ _______ _____ _____    ______ ____
ROOT
ATOM      1  N   UNL     1      48.527   6.680  12.499  0.00  0.00    +0.000 N 
ATOM      2  C   UNL     1      47.175   6.381  12.530  0.00  0.00    +0.000 A 
ATOM      3  N   UNL     1      46.275   7.365  12.418  0.00  0.00    +0.000 NA
ATOM      4  C   UNL     1      44.966   7.034  12.479  0.00  0.00    +0.000 A 
ATOM      5  C   UNL     1      44.526   5.747  12.634  0.00  0.00    +0.000 A 
ATOM      6  C   UNL     1      45.515   4.801  12.745  0.00  0.00    +0.000 A 
ATOM      7  N   UNL     1      46.835   5.094  12.683  0.00  0.00    +0.000 NA
ATOM      8  H   UNL     1      49.058   5.843  12.724  0.00  0.00    +0.000 HD
ENDROOT
BRANCH   1  12
ATOM      9  C   UNL     1      50.776  10.261  11.228  0.00  0.00    +0.000 C 
ATOM     10  N   UNL     1      50.261   9.593  12.414  0.00  0.00    +0.000 NA
ATOM     11  C   UNL     1      50.615   8.137  12.413  0.00  0.00    +0.000 C 
ATOM     12  C   UNL     1      49.187   7.870  13.002  0.00  0.00    +0.000 C 
ATOM     13  C   UNL     1      48.832   9.196  12.240  0.00  0.00    +0.000 C 
BRANCH  12  14
ATOM     14  C   UNL     1      49.042   7.901  14.607  0.00  0.00    +0.000 A 
ATOM     15  C   UNL     1      48.421   8.926  15.329  0.00  0.00    +0.000 A 
ATOM     16  C   UNL     1      48.365   8.870  16.716  0.00  0.00    +0.000 A 
ATOM     17  C   UNL     1      48.932   7.786  17.371  0.00  0.00    +0.000 A 
ATOM     18  C   UNL     1      49.525   6.800  16.603  0.00  0.00    +0.000 A 
ATOM     19  N   UNL     1      49.586   6.825  15.251  0.00  0.00    +0.000 NA
ENDBRANCH  12  14
ENDBRANCH   1  12
BRANCH   5  20
ATOM     20  C   UNL     1      43.085   5.464  12.700  0.00  0.00    +0.000 C 
ATOM     21  N   UNL     1      42.273   6.035  11.763  0.00  0.00    +0.000 N 
ATOM     22  O   UNL     1      42.627   4.758  13.591  0.00  0.00    +0.000 OA
ATOM     23  H   UNL     1      42.566   6.714  11.077  0.00  0.00    +0.000 HD
ATOM     24  H   UNL     1      41.276   5.886  11.878  0.00  0.00    +0.000 HD
ENDBRANCH   5  20
TORSDOF 3
ENDMDL
