MODEL 1
REMARK VINA RESULT:    -7.729      0.000      0.000
REMARK INTER + INTRA:         -13.841
REMARK INTER:                 -12.247
REMARK INTRA:                  -1.594
REMARK UNBOUND:                -1.594
REMARK  Name = 
REMARK  11 active torsions:
REMARK  status: ('A' for Active; 'I' for Inactive)
REMARK    1  A    between atoms: N_1  and  C_2
REMARK    2  A    between atoms: C_2  and  C_3
REMARK    3  A    between atoms: C_3  and  N_4
REMARK    4  A    between atoms: C_3  and  C_20
REMARK    5  A    between atoms: C_5  and  C_7
REMARK    6  A    between atoms: N_13  and  C_14
REMARK    7  A    between atoms: C_14  and  C_15
REMARK    8  A    between atoms: C_15  and  O_16
REMARK    9  A    between atoms: C_23  and  O_24
REMARK   10  A    between atoms: O_24  and  C_25
REMARK   11  A    between atoms: C_25  and  C_26
REMARK                            x       y       z     vdW  Elec       q    Type
REMARK                         _______ _______ _______ _____ _____    ______ ____
ROOT
ATOM      1  C   UNL     1      47.730   7.993  13.416  0.00  0.00    +0.000 C 
ENDROOT
BRANCH   1   2
ATOM      2  C   UNL     1      46.793   6.934  12.847  0.00  0.00    +0.000 A 
ATOM      3  C   UNL     1      45.885   7.278  11.834  0.00  0.00    +0.000 A 
ATOM      4  C   UNL     1      45.008   6.322  11.313  0.00  0.00    +0.000 A 
ATOM      5  C   UNL     1      45.027   5.014  11.796  0.00  0.00    +0.000 A 
ATOM      6  C   UNL     1      45.871   4.688  12.855  0.00  0.00    +0.000 A 
ATOM      7  C   UNL     1      46.749   5.638  13.373  0.00  0.00    +0.000 A 
BRANCH   5   8
ATOM      8  O   UNL     1      44.190   4.131  11.168  0.00  0.00    +0.000 OA
BRANCH   8   9
ATOM      9  C   UNL     1      44.017   4.383   9.768  0.00  0.00    +0.000 C 
BRANCH   9  10
ATOM     10  C   UNL     1      45.043   3.635   8.956  0.00  0.00    +0.000 A 
ATOM     11  C   UNL     1      45.197   2.260   9.122  0.00  0.00    +0.000 A 
ATOM     12  C   UNL     1      46.078   1.579   8.289  0.00  0.00    +0.000 A 
ATOM     13  C   UNL     1      46.781   2.284   7.322  0.00  0.00    +0.000 A 
ATOM     14  C   UNL     1      46.573   3.649   7.222  0.00  0.00    +0.000 A 
ATOM     15  N   UNL     1      45.719   4.337   8.010  0.00  0.00    +0.000 NA
ENDBRANCH   9  10
ENDBRANCH   8   9
ENDBRANCH   5   8
ENDBRANCH   1   2
BRANCH   1  16
ATOM     16  N   UNL     1      47.874   7.734  14.839  0.00  0.00    +0.000 N 
ATOM     17  C   UNL     1      48.269   8.684  15.736  0.00  0.00    +0.000 C 
ATOM     18  O   UNL     1      48.570   9.822  15.386  0.00  0.00    +0.000 OA
ATOM     19  H   UNL     1      47.544   6.832  15.169  0.00  0.00    +0.000 HD
BRANCH  17  20
ATOM     20  C   UNL     1      48.361   8.262  17.141  0.00  0.00    +0.000 A 
ATOM     21  C   UNL     1      47.931   9.126  18.139  0.00  0.00    +0.000 A 
ATOM     22  S   UNL     1      48.085   8.486  19.711  0.00  0.00    +0.000 S 
ATOM     23  C   UNL     1      48.702   7.020  19.113  0.00  0.00    +0.000 A 
ATOM     24  N   UNL     1      49.007   5.999  19.956  0.00  0.00    +0.000 NA
ATOM     25  C   UNL     1      49.413   4.920  19.369  0.00  0.00    +0.000 A 
ATOM     26  N   UNL     1      49.578   4.764  18.009  0.00  0.00    +0.000 N 
ATOM     27  C   UNL     1      49.373   5.822  17.129  0.00  0.00    +0.000 A 
ATOM     28  O   UNL     1      49.677   5.766  15.943  0.00  0.00    +0.000 OA
ATOM     29  C   UNL     1      48.828   7.027  17.737  0.00  0.00    +0.000 A 
BRANCH  26  30
ATOM     30  C   UNL     1      50.092   3.505  17.474  0.00  0.00    +0.000 C 
BRANCH  30  31
ATOM     31  C   UNL     1      48.971   2.559  17.038  0.00  0.00    +0.000 C 
BRANCH  31  32
ATOM     32  O   UNL     1      49.386   1.783  15.917  0.00  0.00    +0.000 OA
ATOM     33  H   UNL     1      48.642   1.205  15.669  0.00  0.00    +0.000 HD
ENDBRANCH  31  32
ENDBRANCH  30  31
ENDBRANCH  26  30
ENDBRANCH  17  20
ENDBRANCH   1  16
BRANCH   1  34
ATOM     34  C   UNL     1      49.123   8.068  12.716  0.00  0.00    +0.000 C 
BRANCH  34  35
ATOM     35  N   UNL     1      50.072   7.028  13.136  0.00  0.00    +0.000 NA
ATOM     36  H   UNL     1      49.936   6.829  14.126  0.00  0.00    +0.000 HD
ATOM     37  H   UNL     1      51.022   7.388  13.047  0.00  0.00    +0.000 HD
ENDBRANCH  34  35
ENDBRANCH   1  34
TORSDOF 11
ENDMDL
MODEL 2
REMARK VINA RESULT:    -7.609      1.879      2.475
REMARK INTER + INTRA:         -13.651
REMARK INTER:                 -12.161
REMARK INTRA:                  -1.490
REMARK UNBOUND:                -1.594
REMARK  Name = 
REMARK  11 active torsions:
REMARK  status: ('A' for Active; 'I' for Inactive)
REMARK    1  A    between atoms: N_1  and  C_2
REMARK    2  A    between atoms: C_2  and  C_3
REMARK    3  A    between atoms: C_3  and  N_4
REMARK    4  A    between atoms: C_3  and  C_20
REMARK    5  A    between atoms: C_5  and  C_7
REMARK    6  A    between atoms: N_13  and  C_14
REMARK    7  A    between atoms: C_14  and  C_15
REMARK    8  A    between atoms: C_15  and  O_16
REMARK    9  A    between atoms: C_23  and  O_24
REMARK   10  A    between atoms: O_24  and  C_25
REMARK   11  A    between atoms: C_25  and  C_26
REMARK                            x       y       z     vdW  Elec       q    Type
REMARK                         _______ _______ _______ _____ _____    ______ ____
ROOT
ATOM      1  C   UNL     1      46.756   7.918  13.281  0.00  0.00    +0.000 C 
ENDROOT
BRANCH   1   2
ATOM      2  C   UNL     1      46.242   6.641  12.629  0.00  0.00    +0.000 A 
ATOM      3  C   UNL     1      46.435   5.406  13.268  0.00  0.00    +0.000 A 
ATOM      4  C   UNL     1      45.984   4.223  12.675  0.00  0.00    +0.000 A 
ATOM      5  C   UNL     1      45.336   4.258  11.440  0.00  0.00    +0.000 A 
ATOM      6  C   UNL     1      45.213   5.471  10.767  0.00  0.00    +0.000 A 
ATOM      7  C   UNL     1      45.658   6.652  11.358  0.00  0.00    +0.000 A 
BRANCH   5   8
ATOM      8  O   UNL     1      44.858   3.061  10.979  0.00  0.00    +0.000 OA
BRANCH   8   9
ATOM      9  C   UNL     1      44.285   3.127   9.667  0.00  0.00    +0.000 C 
BRANCH   9  10
ATOM     10  C   UNL     1      45.279   2.688   8.623  0.00  0.00    +0.000 A 
ATOM     11  C   UNL     1      45.786   3.612   7.711  0.00  0.00    +0.000 A 
ATOM     12  C   UNL     1      46.777   3.202   6.825  0.00  0.00    +0.000 A 
ATOM     13  C   UNL     1      47.229   1.891   6.869  0.00  0.00    +0.000 A 
ATOM     14  C   UNL     1      46.672   1.035   7.803  0.00  0.00    +0.000 A 
ATOM     15  N   UNL     1      45.716   1.403   8.682  0.00  0.00    +0.000 NA
ENDBRANCH   9  10
ENDBRANCH   8   9
ENDBRANCH   5   8
ENDBRANCH   1   2
BRANCH   1  16
ATOM     16  N   UNL     1      48.044   7.617  13.884  0.00  0.00    +0.000 N 
ATOM     17  C   UNL     1      48.521   8.258  14.991  0.00  0.00    +0.000 C 
ATOM     18  O   UNL     1      47.898   9.169  15.532  0.00  0.00    +0.000 OA
ATOM     19  H   UNL     1      48.536   6.809  13.516  0.00  0.00    +0.000 HD
BRANCH  17  20
ATOM     20  C   UNL     1      49.840   7.833  15.479  0.00  0.00    +0.000 A 
ATOM     21  C   UNL     1      50.927   8.682  15.326  0.00  0.00    +0.000 A 
ATOM     22  S   UNL     1      52.380   8.055  15.957  0.00  0.00    +0.000 S 
ATOM     23  C   UNL     1      51.603   6.639  16.486  0.00  0.00    +0.000 A 
ATOM     24  N   UNL     1      52.290   5.680  17.160  0.00  0.00    +0.000 NA
ATOM     25  C   UNL     1      51.570   4.681  17.557  0.00  0.00    +0.000 A 
ATOM     26  N   UNL     1      50.221   4.524  17.317  0.00  0.00    +0.000 N 
ATOM     27  C   UNL     1      49.512   5.437  16.543  0.00  0.00    +0.000 A 
ATOM     28  O   UNL     1      48.362   5.237  16.170  0.00  0.00    +0.000 OA
ATOM     29  C   UNL     1      50.262   6.623  16.154  0.00  0.00    +0.000 A 
BRANCH  26  30
ATOM     30  C   UNL     1      49.531   3.321  17.779  0.00  0.00    +0.000 C 
BRANCH  30  31
ATOM     31  C   UNL     1      50.117   2.046  17.170  0.00  0.00    +0.000 C 
BRANCH  31  32
ATOM     32  O   UNL     1      49.473   1.746  15.934  0.00  0.00    +0.000 OA
ATOM     33  H   UNL     1      50.058   1.147  15.437  0.00  0.00    +0.000 HD
ENDBRANCH  31  32
ENDBRANCH  30  31
ENDBRANCH  26  30
ENDBRANCH  17  20
ENDBRANCH   1  16
BRANCH   1  34
ATOM     34  C   UNL     1      46.859   9.141  12.317  0.00  0.00    +0.000 C 
BRANCH  34  35
ATOM     35  N   UNL     1      45.843  10.178  12.539  0.00  0.00    +0.000 NA
ATOM     36  H   UNL     1      46.131  10.772  13.315  0.00  0.00    +0.000 HD
ATOM     37  H   UNL     1      44.971   9.734  12.830  0.00  0.00    +0.000 HD
ENDBRANCH  34  35
ENDBRANCH   1  34
TORSDOF 11
ENDMDL
MODEL 3
REMARK VINA RESULT:    -6.864      4.710      8.211
REMARK INTER + INTRA:         -12.470
REMARK INTER:                 -11.177
REMARK INTRA:                  -1.293
REMARK UNBOUND:                -1.594
REMARK  Name = 
REMARK  11 active torsions:
REMARK  status: ('A' for Active; 'I' for Inactive)
REMARK    1  A    between atoms: N_1  and  C_2
REMARK    2  A    between atoms: C_2  and  C_3
REMARK    3  A    between atoms: C_3  and  N_4
REMARK    4  A    between atoms: C_3  and  C_20
REMARK    5  A    between atoms: C_5  and  C_7
REMARK    6  A    between atoms: N_13  and  C_14
REMARK    7  A    between atoms: C_14  and  C_15
REMARK    8  A    between atoms: C_15  and  O_16
REMARK    9  A    between atoms: C_23  and  O_24
REMARK   10  A    between atoms: O_24  and  C_25
REMARK   11  A    between atoms: C_25  and  C_26
REMARK                            x       y       z     vdW  Elec       q    Type
REMARK                         _______ _______ _______ _____ _____    ______ ____
ROOT
ATOM      1  C   UNL     1      46.318   8.382  11.910  0.00  0.00    +0.000 C 
ENDROOT
BRANCH   1   2
ATOM      2  C   UNL     1      47.828   8.472  11.733  0.00  0.00    +0.000 A 
ATOM      3  C   UNL     1      48.613   7.313  11.840  0.00  0.00    +0.000 A 
ATOM      4  C   UNL     1      50.002   7.381  11.696  0.00  0.00    +0.000 A 
ATOM      5  C   UNL     1      50.624   8.604  11.444  0.00  0.00    +0.000 A 
ATOM      6  C   UNL     1      49.857   9.768  11.415  0.00  0.00    +0.000 A 
ATOM      7  C   UNL     1      48.472   9.701  11.554  0.00  0.00    +0.000 A 
BRANCH   5   8
ATOM      8  O   UNL     1      51.975   8.559  11.236  0.00  0.00    +0.000 OA
BRANCH   8   9
ATOM      9  C   UNL     1      52.379   8.963   9.922  0.00  0.00    +0.000 C 
BRANCH   9  10
ATOM     10  C   UNL     1      52.965   7.801   9.159  0.00  0.00    +0.000 A 
ATOM     11  C   UNL     1      53.233   6.601   9.814  0.00  0.00    +0.000 A 
ATOM     12  C   UNL     1      53.677   5.516   9.067  0.00  0.00    +0.000 A 
ATOM     13  C   UNL     1      53.847   5.657   7.697  0.00  0.00    +0.000 A 
ATOM     14  C   UNL     1      53.561   6.884   7.123  0.00  0.00    +0.000 A 
ATOM     15  N   UNL     1      53.120   7.953   7.818  0.00  0.00    +0.000 NA
ENDBRANCH   9  10
ENDBRANCH   8   9
ENDBRANCH   5   8
ENDBRANCH   1   2
BRANCH   1  16
ATOM     16  N   UNL     1      45.931   6.998  11.688  0.00  0.00    +0.000 N 
ATOM     17  C   UNL     1      44.670   6.624  11.321  0.00  0.00    +0.000 C 
ATOM     18  O   UNL     1      43.762   7.440  11.191  0.00  0.00    +0.000 OA
ATOM     19  H   UNL     1      46.680   6.314  11.697  0.00  0.00    +0.000 HD
BRANCH  17  20
ATOM     20  C   UNL     1      44.443   5.184  11.132  0.00  0.00    +0.000 A 
ATOM     21  C   UNL     1      43.671   4.491  12.055  0.00  0.00    +0.000 A 
ATOM     22  S   UNL     1      43.486   2.838  11.688  0.00  0.00    +0.000 S 
ATOM     23  C   UNL     1      44.402   2.995  10.265  0.00  0.00    +0.000 A 
ATOM     24  N   UNL     1      44.594   1.931   9.442  0.00  0.00    +0.000 NA
ATOM     25  C   UNL     1      45.261   2.197   8.365  0.00  0.00    +0.000 A 
ATOM     26  N   UNL     1      45.790   3.428   8.038  0.00  0.00    +0.000 N 
ATOM     27  C   UNL     1      45.699   4.510   8.908  0.00  0.00    +0.000 A 
ATOM     28  O   UNL     1      46.304   5.560   8.725  0.00  0.00    +0.000 OA
ATOM     29  C   UNL     1      44.879   4.279  10.089  0.00  0.00    +0.000 A 
BRANCH  26  30
ATOM     30  C   UNL     1      46.567   3.586   6.811  0.00  0.00    +0.000 C 
BRANCH  30  31
ATOM     31  C   UNL     1      47.786   2.662   6.771  0.00  0.00    +0.000 C 
BRANCH  31  32
ATOM     32  O   UNL     1      48.274   2.541   5.438  0.00  0.00    +0.000 OA
ATOM     33  H   UNL     1      47.821   3.212   4.898  0.00  0.00    +0.000 HD
ENDBRANCH  31  32
ENDBRANCH  30  31
ENDBRANCH  26  30
ENDBRANCH  17  20
ENDBRANCH   1  16
BRANCH   1  34
ATOM     34  C   UNL     1      45.795   8.897  13.287  0.00  0.00    +0.000 C 
BRANCH  34  35
ATOM     35  N   UNL     1      46.789   8.854  14.369  0.00  0.00    +0.000 NA
ATOM     36  H   UNL     1      46.671   7.992  14.900  0.00  0.00    +0.000 HD
ATOM     37  H   UNL     1      46.606   9.617  15.021  0.00  0.00    +0.000 HD
ENDBRANCH  34  35
ENDBRANCH   1  34
TORSDOF 11
ENDMDL
MODEL 4
REMARK VINA RESULT:    -6.853      2.345      4.513
REMARK INTER + INTRA:         -12.453
REMARK INTER:                 -10.797
REMARK INTRA:                  -1.656
REMARK UNBOUND:                -1.594
REMARK  Name = 
REMARK  11 active torsions:
REMARK  status: ('A' for Active; 'I' for Inactive)
REMARK    1  A    between atoms: N_1  and  C_2
REMARK    2  A    between atoms: C_2  and  C_3
REMARK    3  A    between atoms: C_3  and  N_4
REMARK    4  A    between atoms: C_3  and  C_20
REMARK    5  A    between atoms: C_5  and  C_7
REMARK    6  A    between atoms: N_13  and  C_14
REMARK    7  A    between atoms: C_14  and  C_15
REMARK    8  A    between atoms: C_15  and  O_16
REMARK    9  A    between atoms: C_23  and  O_24
REMARK   10  A    between atoms: O_24  and  C_25
REMARK   11  A    between atoms: C_25  and  C_26
REMARK                            x       y       z     vdW  Elec       q    Type
REMARK                         _______ _______ _______ _____ _____    ______ ____
ROOT
ATOM      1  C   UNL     1      47.558   4.706  15.350  0.00  0.00    +0.000 C 
ENDROOT
BRANCH   1   2
ATOM      2  C   UNL     1      46.752   4.622  14.060  0.00  0.00    +0.000 A 
ATOM      3  C   UNL     1      46.348   3.371  13.570  0.00  0.00    +0.000 A 
ATOM      4  C   UNL     1      45.622   3.276  12.379  0.00  0.00    +0.000 A 
ATOM      5  C   UNL     1      45.290   4.427  11.664  0.00  0.00    +0.000 A 
ATOM      6  C   UNL     1      45.757   5.664  12.105  0.00  0.00    +0.000 A 
ATOM      7  C   UNL     1      46.477   5.761  13.295  0.00  0.00    +0.000 A 
BRANCH   5   8
ATOM      8  O   UNL     1      44.509   4.241  10.556  0.00  0.00    +0.000 OA
BRANCH   8   9
ATOM      9  C   UNL     1      44.442   2.881  10.109  0.00  0.00    +0.000 C 
BRANCH   9  10
ATOM     10  C   UNL     1      45.278   2.680   8.871  0.00  0.00    +0.000 A 
ATOM     11  C   UNL     1      45.518   3.749   8.010  0.00  0.00    +0.000 A 
ATOM     12  C   UNL     1      46.375   3.560   6.932  0.00  0.00    +0.000 A 
ATOM     13  C   UNL     1      46.963   2.318   6.740  0.00  0.00    +0.000 A 
ATOM     14  C   UNL     1      46.672   1.307   7.640  0.00  0.00    +0.000 A 
ATOM     15  N   UNL     1      45.851   1.460   8.700  0.00  0.00    +0.000 NA
ENDBRANCH   9  10
ENDBRANCH   8   9
ENDBRANCH   5   8
ENDBRANCH   1   2
BRANCH   1  16
ATOM     16  N   UNL     1      48.127   6.041  15.428  0.00  0.00    +0.000 N 
ATOM     17  C   UNL     1      49.312   6.315  16.048  0.00  0.00    +0.000 C 
ATOM     18  O   UNL     1      49.961   5.443  16.620  0.00  0.00    +0.000 OA
ATOM     19  H   UNL     1      47.661   6.762  14.886  0.00  0.00    +0.000 HD
BRANCH  17  20
ATOM     20  C   UNL     1      49.752   7.717  16.034  0.00  0.00    +0.000 A 
ATOM     21  C   UNL     1      49.870   8.403  17.235  0.00  0.00    +0.000 A 
ATOM     22  S   UNL     1      50.406  10.011  17.054  0.00  0.00    +0.000 S 
ATOM     23  C   UNL     1      50.530   9.838  15.368  0.00  0.00    +0.000 A 
ATOM     24  N   UNL     1      50.985  10.859  14.597  0.00  0.00    +0.000 NA
ATOM     25  C   UNL     1      51.085  10.579  13.337  0.00  0.00    +0.000 A 
ATOM     26  N   UNL     1      50.742   9.376  12.758  0.00  0.00    +0.000 N 
ATOM     27  C   UNL     1      50.178   8.347  13.504  0.00  0.00    +0.000 A 
ATOM     28  O   UNL     1      49.705   7.339  12.992  0.00  0.00    +0.000 OA
ATOM     29  C   UNL     1      50.131   8.586  14.940  0.00  0.00    +0.000 A 
BRANCH  26  30
ATOM     30  C   UNL     1      50.857   9.203  11.311  0.00  0.00    +0.000 C 
BRANCH  30  31
ATOM     31  C   UNL     1      52.074   8.360  10.922  0.00  0.00    +0.000 C 
BRANCH  31  32
ATOM     32  O   UNL     1      51.681   7.019  10.644  0.00  0.00    +0.000 OA
ATOM     33  H   UNL     1      50.754   7.041  10.348  0.00  0.00    +0.000 HD
ENDBRANCH  31  32
ENDBRANCH  30  31
ENDBRANCH  26  30
ENDBRANCH  17  20
ENDBRANCH   1  16
BRANCH   1  34
ATOM     34  C   UNL     1      46.750   4.364  16.642  0.00  0.00    +0.000 C 
BRANCH  34  35
ATOM     35  N   UNL     1      46.995   3.017  17.173  0.00  0.00    +0.000 NA
ATOM     36  H   UNL     1      46.928   2.339  16.416  0.00  0.00    +0.000 HD
ATOM     37  H   UNL     1      46.255   2.779  17.833  0.00  0.00    +0.000 HD
ENDBRANCH  34  35
ENDBRANCH   1  34
TORSDOF 11
ENDMDL
MODEL 5
REMARK VINA RESULT:    -6.368      4.063      9.103
REMARK INTER + INTRA:         -11.685
REMARK INTER:                 -10.112
REMARK INTRA:                  -1.572
REMARK UNBOUND:                -1.594
REMARK  Name = 
REMARK  11 active torsions:
REMARK  status: ('A' for Active; 'I' for Inactive)
REMARK    1  A    between atoms: N_1  and  C_2
REMARK    2  A    between atoms: C_2  and  C_3
REMARK    3  A    between atoms: C_3  and  N_4
REMARK    4  A    between atoms: C_3  and  C_20
REMARK    5  A    between atoms: C_5  and  C_7
REMARK    6  A    between atoms: N_13  and  C_14
REMARK    7  A    between atoms: C_14  and  C_15
REMARK    8  A    between atoms: C_15  and  O_16
REMARK    9  A    between atoms: C_23  and  O_24
REMARK   10  A    between atoms: O_24  and  C_25
REMARK   11  A    between atoms: C_25  and  C_26
REMARK                            x       y       z     vdW  Elec       q    Type
REMARK                         _______ _______ _______ _____ _____    ______ ____
ROOT
ATOM      1  C   UNL     1      48.923   3.863  17.700  0.00  0.00    +0.000 C 
ENDROOT
BRANCH   1   2
ATOM      2  C   UNL     1      50.338   3.298  17.684  0.00  0.00    +0.000 A 
ATOM      3  C   UNL     1      51.432   4.151  17.899  0.00  0.00    +0.000 A 
ATOM      4  C   UNL     1      52.737   3.652  17.872  0.00  0.00    +0.000 A 
ATOM      5  C   UNL     1      52.967   2.297  17.631  0.00  0.00    +0.000 A 
ATOM      6  C   UNL     1      51.890   1.462  17.339  0.00  0.00    +0.000 A 
ATOM      7  C   UNL     1      50.587   1.958  17.369  0.00  0.00    +0.000 A 
BRANCH   5   8
ATOM      8  O   UNL     1      54.270   1.887  17.705  0.00  0.00    +0.000 OA
BRANCH   8   9
ATOM      9  C   UNL     1      54.561   1.067  18.844  0.00  0.00    +0.000 C 
BRANCH   9  10
ATOM     10  C   UNL     1      54.584  -0.392  18.465  0.00  0.00    +0.000 A 
ATOM     11  C   UNL     1      55.299  -0.810  17.345  0.00  0.00    +0.000 A 
ATOM     12  C   UNL     1      55.386  -2.172  17.077  0.00  0.00    +0.000 A 
ATOM     13  C   UNL     1      54.759  -3.074  17.925  0.00  0.00    +0.000 A 
ATOM     14  C   UNL     1      54.067  -2.577  19.016  0.00  0.00    +0.000 A 
ATOM     15  N   UNL     1      53.970  -1.262  19.308  0.00  0.00    +0.000 NA
ENDBRANCH   9  10
ENDBRANCH   8   9
ENDBRANCH   5   8
ENDBRANCH   1   2
BRANCH   1  16
ATOM     16  N   UNL     1      48.699   4.523  16.424  0.00  0.00    +0.000 N 
ATOM     17  C   UNL     1      48.553   5.874  16.297  0.00  0.00    +0.000 C 
ATOM     18  O   UNL     1      48.564   6.623  17.270  0.00  0.00    +0.000 OA
ATOM     19  H   UNL     1      48.778   3.942  15.596  0.00  0.00    +0.000 HD
BRANCH  17  20
ATOM     20  C   UNL     1      48.337   6.386  14.936  0.00  0.00    +0.000 A 
ATOM     21  C   UNL     1      49.088   7.464  14.488  0.00  0.00    +0.000 A 
ATOM     22  S   UNL     1      48.734   7.926  12.886  0.00  0.00    +0.000 S 
ATOM     23  C   UNL     1      47.588   6.682  12.723  0.00  0.00    +0.000 A 
ATOM     24  N   UNL     1      46.933   6.492  11.548  0.00  0.00    +0.000 NA
ATOM     25  C   UNL     1      46.130   5.477  11.538  0.00  0.00    +0.000 A 
ATOM     26  N   UNL     1      45.888   4.640  12.607  0.00  0.00    +0.000 N 
ATOM     27  C   UNL     1      46.465   4.870  13.851  0.00  0.00    +0.000 A 
ATOM     28  O   UNL     1      46.137   4.252  14.858  0.00  0.00    +0.000 OA
ATOM     29  C   UNL     1      47.445   5.946  13.883  0.00  0.00    +0.000 A 
BRANCH  26  30
ATOM     30  C   UNL     1      44.918   3.554  12.480  0.00  0.00    +0.000 C 
BRANCH  30  31
ATOM     31  C   UNL     1      43.474   4.052  12.567  0.00  0.00    +0.000 C 
BRANCH  31  32
ATOM     32  O   UNL     1      42.758   3.709  11.384  0.00  0.00    +0.000 OA
ATOM     33  H   UNL     1      43.384   3.754  10.639  0.00  0.00    +0.000 HD
ENDBRANCH  31  32
ENDBRANCH  30  31
ENDBRANCH  26  30
ENDBRANCH  17  20
ENDBRANCH   1  16
BRANCH   1  34
ATOM     34  C   UNL     1      47.809   2.809  17.990  0.00  0.00    +0.000 C 
BRANCH  34  35
ATOM     35  N   UNL     1      46.488   3.157  17.448  0.00  0.00    +0.000 NA
ATOM     36  H   UNL     1      46.157   2.398  16.854  0.00  0.00    +0.000 HD
ATOM     37  H   UNL     1      46.580   3.972  16.842  0.00  0.00    +0.000 HD
ENDBRANCH  34  35
ENDBRANCH   1  34
TORSDOF 11
ENDMDL
MODEL 6
REMARK VINA RESULT:    -6.022      1.589      2.222
REMARK INTER + INTRA:         -11.136
REMARK INTER:                  -9.651
REMARK INTRA:                  -1.485
REMARK UNBOUND:                -1.594
REMARK  Name = 
REMARK  11 active torsions:
REMARK  status: ('A' for Active; 'I' for Inactive)
REMARK    1  A    between atoms: N_1  and  C_2
REMARK    2  A    between atoms: C_2  and  C_3
REMARK    3  A    between atoms: C_3  and  N_4
REMARK    4  A    between atoms: C_3  and  C_20
REMARK    5  A    between atoms: C_5  and  C_7
REMARK    6  A    between atoms: N_13  and  C_14
REMARK    7  A    between atoms: C_14  and  C_15
REMARK    8  A    between atoms: C_15  and  O_16
REMARK    9  A    between atoms: C_23  and  O_24
REMARK   10  A    between atoms: O_24  and  C_25
REMARK   11  A    between atoms: C_25  and  C_26
REMARK                            x       y       z     vdW  Elec       q    Type
REMARK                         _______ _______ _______ _____ _____    ______ ____
ROOT
ATOM      1  C   UNL     1      49.847   8.674  14.112  0.00  0.00    +0.000 C 
ENDROOT
BRANCH   1   2
ATOM      2  C   UNL     1      48.590   8.200  13.393  0.00  0.00    +0.000 A 
ATOM      3  C   UNL     1      48.692   7.257  12.358  0.00  0.00    +0.000 A 
ATOM      4  C   UNL     1      47.551   6.824  11.678  0.00  0.00    +0.000 A 
ATOM      5  C   UNL     1      46.295   7.326  12.021  0.00  0.00    +0.000 A 
ATOM      6  C   UNL     1      46.198   8.320  12.993  0.00  0.00    +0.000 A 
ATOM      7  C   UNL     1      47.335   8.750  13.675  0.00  0.00    +0.000 A 
BRANCH   5   8
ATOM      8  O   UNL     1      45.229   6.783  11.356  0.00  0.00    +0.000 OA
BRANCH   8   9
ATOM      9  C   UNL     1      44.923   5.437  11.742  0.00  0.00    +0.000 C 
BRANCH   9  10
ATOM     10  C   UNL     1      44.884   4.528  10.540  0.00  0.00    +0.000 A 
ATOM     11  C   UNL     1      45.424   4.951   9.328  0.00  0.00    +0.000 A 
ATOM     12  C   UNL     1      45.465   4.056   8.265  0.00  0.00    +0.000 A 
ATOM     13  C   UNL     1      44.966   2.772   8.437  0.00  0.00    +0.000 A 
ATOM     14  C   UNL     1      44.444   2.431   9.673  0.00  0.00    +0.000 A 
ATOM     15  N   UNL     1      44.397   3.274  10.726  0.00  0.00    +0.000 NA
ENDBRANCH   9  10
ENDBRANCH   8   9
ENDBRANCH   5   8
ENDBRANCH   1   2
BRANCH   1  16
ATOM     16  N   UNL     1      49.876   8.030  15.416  0.00  0.00    +0.000 N 
ATOM     17  C   UNL     1      49.446   8.639  16.560  0.00  0.00    +0.000 C 
ATOM     18  O   UNL     1      49.039   9.797  16.565  0.00  0.00    +0.000 OA
ATOM     19  H   UNL     1      50.119   7.045  15.427  0.00  0.00    +0.000 HD
BRANCH  17  20
ATOM     20  C   UNL     1      49.538   7.850  17.797  0.00  0.00    +0.000 A 
ATOM     21  C   UNL     1      50.010   8.454  18.955  0.00  0.00    +0.000 A 
ATOM     22  S   UNL     1      50.040   7.415  20.305  0.00  0.00    +0.000 S 
ATOM     23  C   UNL     1      49.393   6.131  19.400  0.00  0.00    +0.000 A 
ATOM     24  N   UNL     1      49.125   4.934  19.985  0.00  0.00    +0.000 NA
ATOM     25  C   UNL     1      48.582   4.060  19.200  0.00  0.00    +0.000 A 
ATOM     26  N   UNL     1      48.307   4.252  17.863  0.00  0.00    +0.000 N 
ATOM     27  C   UNL     1      48.663   5.427  17.211  0.00  0.00    +0.000 A 
ATOM     28  O   UNL     1      48.590   5.559  15.994  0.00  0.00    +0.000 OA
ATOM     29  C   UNL     1      49.192   6.472  18.076  0.00  0.00    +0.000 A 
BRANCH  26  30
ATOM     30  C   UNL     1      47.735   3.164  17.072  0.00  0.00    +0.000 C 
BRANCH  30  31
ATOM     31  C   UNL     1      48.785   2.127  16.666  0.00  0.00    +0.000 C 
BRANCH  31  32
ATOM     32  O   UNL     1      50.067   2.738  16.552  0.00  0.00    +0.000 OA
ATOM     33  H   UNL     1      50.721   2.118  16.922  0.00  0.00    +0.000 HD
ENDBRANCH  31  32
ENDBRANCH  30  31
ENDBRANCH  26  30
ENDBRANCH  17  20
ENDBRANCH   1  16
BRANCH   1  34
ATOM     34  C   UNL     1      51.174   8.420  13.332  0.00  0.00    +0.000 C 
BRANCH  34  35
ATOM     35  N   UNL     1      52.289   7.950  14.166  0.00  0.00    +0.000 NA
ATOM     36  H   UNL     1      53.143   7.936  13.610  0.00  0.00    +0.000 HD
ATOM     37  H   UNL     1      52.114   6.984  14.443  0.00  0.00    +0.000 HD
ENDBRANCH  34  35
ENDBRANCH   1  34
TORSDOF 11
ENDMDL
MODEL 7
REMARK VINA RESULT:    -6.018      3.657      5.774
REMARK INTER + INTRA:         -11.131
REMARK INTER:                 -10.336
REMARK INTRA:                  -0.794
REMARK UNBOUND:                -1.594
REMARK  Name = 
REMARK  11 active torsions:
REMARK  status: ('A' for Active; 'I' for Inactive)
REMARK    1  A    between atoms: N_1  and  C_2
REMARK    2  A    between atoms: C_2  and  C_3
REMARK    3  A    between atoms: C_3  and  N_4
REMARK    4  A    between atoms: C_3  and  C_20
REMARK    5  A    between atoms: C_5  and  C_7
REMARK    6  A    between atoms: N_13  and  C_14
REMARK    7  A    between atoms: C_14  and  C_15
REMARK    8  A    between atoms: C_15  and  O_16
REMARK    9  A    between atoms: C_23  and  O_24
REMARK   10  A    between atoms: O_24  and  C_25
REMARK   11  A    between atoms: C_25  and  C_26
REMARK                            x       y       z     vdW  Elec       q    Type
REMARK                         _______ _______ _______ _____ _____    ______ ____
ROOT
ATOM      1  C   UNL     1      48.446   4.559  17.875  0.00  0.00    +0.000 C 
ENDROOT
BRANCH   1   2
ATOM      2  C   UNL     1      48.151   5.076  16.473  0.00  0.00    +0.000 A 
ATOM      3  C   UNL     1      47.346   4.321  15.605  0.00  0.00    +0.000 A 
ATOM      4  C   UNL     1      47.079   4.774  14.310  0.00  0.00    +0.000 A 
ATOM      5  C   UNL     1      47.610   5.985  13.866  0.00  0.00    +0.000 A 
ATOM      6  C   UNL     1      48.473   6.699  14.695  0.00  0.00    +0.000 A 
ATOM      7  C   UNL     1      48.737   6.251  15.988  0.00  0.00    +0.000 A 
BRANCH   5   8
ATOM      8  O   UNL     1      47.227   6.385  12.614  0.00  0.00    +0.000 OA
BRANCH   8   9
ATOM      9  C   UNL     1      45.986   7.103  12.584  0.00  0.00    +0.000 C 
BRANCH   9  10
ATOM     10  C   UNL     1      44.852   6.199  12.173  0.00  0.00    +0.000 A 
ATOM     11  C   UNL     1      44.859   5.597  10.916  0.00  0.00    +0.000 A 
ATOM     12  C   UNL     1      43.853   4.690  10.603  0.00  0.00    +0.000 A 
ATOM     13  C   UNL     1      42.871   4.411  11.543  0.00  0.00    +0.000 A 
ATOM     14  C   UNL     1      42.934   5.053  12.769  0.00  0.00    +0.000 A 
ATOM     15  N   UNL     1      43.902   5.932  13.106  0.00  0.00    +0.000 NA
ENDBRANCH   9  10
ENDBRANCH   8   9
ENDBRANCH   5   8
ENDBRANCH   1   2
BRANCH   1  16
ATOM     16  N   UNL     1      49.890   4.533  18.039  0.00  0.00    +0.000 N 
ATOM     17  C   UNL     1      50.685   3.553  17.518  0.00  0.00    +0.000 C 
ATOM     18  O   UNL     1      50.219   2.597  16.903  0.00  0.00    +0.000 OA
ATOM     19  H   UNL     1      50.311   5.355  18.460  0.00  0.00    +0.000 HD
BRANCH  17  20
ATOM     20  C   UNL     1      52.128   3.675  17.770  0.00  0.00    +0.000 A 
ATOM     21  C   UNL     1      52.688   4.937  17.914  0.00  0.00    +0.000 A 
ATOM     22  S   UNL     1      54.365   4.910  18.218  0.00  0.00    +0.000 S 
ATOM     23  C   UNL     1      54.396   3.211  18.201  0.00  0.00    +0.000 A 
ATOM     24  N   UNL     1      55.550   2.536  18.444  0.00  0.00    +0.000 NA
ATOM     25  C   UNL     1      55.427   1.248  18.458  0.00  0.00    +0.000 A 
ATOM     26  N   UNL     1      54.259   0.555  18.218  0.00  0.00    +0.000 N 
ATOM     27  C   UNL     1      53.086   1.214  17.866  0.00  0.00    +0.000 A 
ATOM     28  O   UNL     1      52.084   0.623  17.480  0.00  0.00    +0.000 OA
ATOM     29  C   UNL     1      53.157   2.667  17.928  0.00  0.00    +0.000 A 
BRANCH  26  30
ATOM     30  C   UNL     1      54.263  -0.906  18.216  0.00  0.00    +0.000 C 
BRANCH  30  31
ATOM     31  C   UNL     1      54.908  -1.483  16.954  0.00  0.00    +0.000 C 
BRANCH  31  32
ATOM     32  O   UNL     1      54.105  -1.198  15.811  0.00  0.00    +0.000 OA
ATOM     33  H   UNL     1      53.506  -1.954  15.679  0.00  0.00    +0.000 HD
ENDBRANCH  31  32
ENDBRANCH  30  31
ENDBRANCH  26  30
ENDBRANCH  17  20
ENDBRANCH   1  16
BRANCH   1  34
ATOM     34  C   UNL     1      47.766   5.370  19.021  0.00  0.00    +0.000 C 
BRANCH  34  35
ATOM     35  N   UNL     1      46.307   5.492  18.896  0.00  0.00    +0.000 NA
ATOM     36  H   UNL     1      46.044   5.399  17.917  0.00  0.00    +0.000 HD
ATOM     37  H   UNL     1      46.025   6.431  19.178  0.00  0.00    +0.000 HD
ENDBRANCH  34  35
ENDBRANCH   1  34
TORSDOF 11
ENDMDL
MODEL 8
REMARK VINA RESULT:    -5.944      3.029      3.853
REMARK INTER + INTRA:         -11.014
REMARK INTER:                  -9.364
REMARK INTRA:                  -1.650
REMARK UNBOUND:                -1.594
REMARK  Name = 
REMARK  11 active torsions:
REMARK  status: ('A' for Active; 'I' for Inactive)
REMARK    1  A    between atoms: N_1  and  C_2
REMARK    2  A    between atoms: C_2  and  C_3
REMARK    3  A    between atoms: C_3  and  N_4
REMARK    4  A    between atoms: C_3  and  C_20
REMARK    5  A    between atoms: C_5  and  C_7
REMARK    6  A    between atoms: N_13  and  C_14
REMARK    7  A    between atoms: C_14  and  C_15
REMARK    8  A    between atoms: C_15  and  O_16
REMARK    9  A    between atoms: C_23  and  O_24
REMARK   10  A    between atoms: O_24  and  C_25
REMARK   11  A    between atoms: C_25  and  C_26
REMARK                            x       y       z     vdW  Elec       q    Type
REMARK                         _______ _______ _______ _____ _____    ______ ____
ROOT
ATOM      1  C   UNL     1      50.927   8.935  13.019  0.00  0.00    +0.000 C 
ENDROOT
BRANCH   1   2
ATOM      2  C   UNL     1      49.477   8.656  12.644  0.00  0.00    +0.000 A 
ATOM      3  C   UNL     1      49.104   7.377  12.203  0.00  0.00    +0.000 A 
ATOM      4  C   UNL     1      47.781   7.110  11.840  0.00  0.00    +0.000 A 
ATOM      5  C   UNL     1      46.816   8.114  11.911  0.00  0.00    +0.000 A 
ATOM      6  C   UNL     1      47.197   9.405  12.272  0.00  0.00    +0.000 A 
ATOM      7  C   UNL     1      48.515   9.672  12.639  0.00  0.00    +0.000 A 
BRANCH   5   8
ATOM      8  O   UNL     1      45.534   7.738  11.613  0.00  0.00    +0.000 OA
BRANCH   8   9
ATOM      9  C   UNL     1      44.867   7.044  12.676  0.00  0.00    +0.000 C 
BRANCH   9  10
ATOM     10  C   UNL     1      44.522   5.635  12.265  0.00  0.00    +0.000 A 
ATOM     11  C   UNL     1      45.359   4.580  12.621  0.00  0.00    +0.000 A 
ATOM     12  C   UNL     1      44.964   3.281  12.318  0.00  0.00    +0.000 A 
ATOM     13  C   UNL     1      43.756   3.072  11.667  0.00  0.00    +0.000 A 
ATOM     14  C   UNL     1      42.983   4.175  11.346  0.00  0.00    +0.000 A 
ATOM     15  N   UNL     1      43.334   5.446  11.634  0.00  0.00    +0.000 NA
ENDBRANCH   9  10
ENDBRANCH   8   9
ENDBRANCH   5   8
ENDBRANCH   1   2
BRANCH   1  16
ATOM     16  N   UNL     1      51.332   7.926  13.985  0.00  0.00    +0.000 N 
ATOM     17  C   UNL     1      51.915   8.227  15.182  0.00  0.00    +0.000 C 
ATOM     18  O   UNL     1      52.172   9.384  15.506  0.00  0.00    +0.000 OA
ATOM     19  H   UNL     1      51.049   6.971  13.786  0.00  0.00    +0.000 HD
BRANCH  17  20
ATOM     20  C   UNL     1      52.261   7.091  16.048  0.00  0.00    +0.000 A 
ATOM     21  C   UNL     1      53.581   6.913  16.440  0.00  0.00    +0.000 A 
ATOM     22  S   UNL     1      53.818   5.564  17.454  0.00  0.00    +0.000 S 
ATOM     23  C   UNL     1      52.160   5.189  17.433  0.00  0.00    +0.000 A 
ATOM     24  N   UNL     1      51.676   4.144  18.153  0.00  0.00    +0.000 NA
ATOM     25  C   UNL     1      50.391   4.000  18.096  0.00  0.00    +0.000 A 
ATOM     26  N   UNL     1      49.533   4.786  17.356  0.00  0.00    +0.000 N 
ATOM     27  C   UNL     1      50.009   5.798  16.529  0.00  0.00    +0.000 A 
ATOM     28  O   UNL     1      49.292   6.394  15.732  0.00  0.00    +0.000 OA
ATOM     29  C   UNL     1      51.438   6.053  16.632  0.00  0.00    +0.000 A 
BRANCH  26  30
ATOM     30  C   UNL     1      48.102   4.488  17.338  0.00  0.00    +0.000 C 
BRANCH  30  31
ATOM     31  C   UNL     1      47.808   3.027  17.685  0.00  0.00    +0.000 C 
BRANCH  31  32
ATOM     32  O   UNL     1      46.402   2.792  17.692  0.00  0.00    +0.000 OA
ATOM     33  H   UNL     1      46.199   2.209  16.940  0.00  0.00    +0.000 HD
ENDBRANCH  31  32
ENDBRANCH  30  31
ENDBRANCH  26  30
ENDBRANCH  17  20
ENDBRANCH   1  16
BRANCH   1  34
ATOM     34  C   UNL     1      51.912   8.981  11.810  0.00  0.00    +0.000 C 
BRANCH  34  35
ATOM     35  N   UNL     1      52.648   7.731  11.577  0.00  0.00    +0.000 NA
ATOM     36  H   UNL     1      52.267   7.000  12.174  0.00  0.00    +0.000 HD
ATOM     37  H   UNL     1      53.619   7.856  11.865  0.00  0.00    +0.000 HD
ENDBRANCH  34  35
ENDBRANCH   1  34
TORSDOF 11
ENDMDL
MODEL 9
REMARK VINA RESULT:    -5.920      2.607      4.584
REMARK INTER + INTRA:         -10.974
REMARK INTER:                  -9.532
REMARK INTRA:                  -1.442
REMARK UNBOUND:                -1.594
REMARK  Name = 
REMARK  11 active torsions:
REMARK  status: ('A' for Active; 'I' for Inactive)
REMARK    1  A    between atoms: N_1  and  C_2
REMARK    2  A    between atoms: C_2  and  C_3
REMARK    3  A    between atoms: C_3  and  N_4
REMARK    4  A    between atoms: C_3  and  C_20
REMARK    5  A    between atoms: C_5  and  C_7
REMARK    6  A    between atoms: N_13  and  C_14
REMARK    7  A    between atoms: C_14  and  C_15
REMARK    8  A    between atoms: C_15  and  O_16
REMARK    9  A    between atoms: C_23  and  O_24
REMARK   10  A    between atoms: O_24  and  C_25
REMARK   11  A    between atoms: C_25  and  C_26
REMARK                            x       y       z     vdW  Elec       q    Type
REMARK                         _______ _______ _______ _____ _____    ______ ____
ROOT
ATOM      1  C   UNL     1      48.103   4.679  16.342  0.00  0.00    +0.000 C 
ENDROOT
BRANCH   1   2
ATOM      2  C   UNL     1      47.491   5.051  14.998  0.00  0.00    +0.000 A 
ATOM      3  C   UNL     1      46.694   4.121  14.313  0.00  0.00    +0.000 A 
ATOM      4  C   UNL     1      46.138   4.442  13.071  0.00  0.00    +0.000 A 
ATOM      5  C   UNL     1      46.370   5.693  12.499  0.00  0.00    +0.000 A 
ATOM      6  C   UNL     1      47.225   6.590  13.138  0.00  0.00    +0.000 A 
ATOM      7  C   UNL     1      47.777   6.273  14.378  0.00  0.00    +0.000 A 
BRANCH   5   8
ATOM      8  O   UNL     1      45.719   5.945  11.322  0.00  0.00    +0.000 OA
BRANCH   8   9
ATOM      9  C   UNL     1      44.680   5.007  11.016  0.00  0.00    +0.000 C 
BRANCH   9  10
ATOM     10  C   UNL     1      45.068   4.136   9.848  0.00  0.00    +0.000 A 
ATOM     11  C   UNL     1      45.702   4.697   8.741  0.00  0.00    +0.000 A 
ATOM     12  C   UNL     1      46.140   3.856   7.724  0.00  0.00    +0.000 A 
ATOM     13  C   UNL     1      45.931   2.488   7.834  0.00  0.00    +0.000 A 
ATOM     14  C   UNL     1      45.291   2.011   8.966  0.00  0.00    +0.000 A 
ATOM     15  N   UNL     1      44.862   2.800   9.974  0.00  0.00    +0.000 NA
ENDBRANCH   9  10
ENDBRANCH   8   9
ENDBRANCH   5   8
ENDBRANCH   1   2
BRANCH   1  16
ATOM     16  N   UNL     1      49.010   5.749  16.725  0.00  0.00    +0.000 N 
ATOM     17  C   UNL     1      50.318   5.539  17.057  0.00  0.00    +0.000 C 
ATOM     18  O   UNL     1      50.806   4.412  17.092  0.00  0.00    +0.000 OA
ATOM     19  H   UNL     1      48.662   6.696  16.615  0.00  0.00    +0.000 HD
BRANCH  17  20
ATOM     20  C   UNL     1      51.103   6.728  17.416  0.00  0.00    +0.000 A 
ATOM     21  C   UNL     1      51.527   6.892  18.727  0.00  0.00    +0.000 A 
ATOM     22  S   UNL     1      52.440   8.309  18.980  0.00  0.00    +0.000 S 
ATOM     23  C   UNL     1      52.328   8.738  17.339  0.00  0.00    +0.000 A 
ATOM     24  N   UNL     1      52.946   9.853  16.869  0.00  0.00    +0.000 NA
ATOM     25  C   UNL     1      52.831  10.036  15.594  0.00  0.00    +0.000 A 
ATOM     26  N   UNL     1      52.125   9.223  14.732  0.00  0.00    +0.000 N 
ATOM     27  C   UNL     1      51.398   8.132  15.198  0.00  0.00    +0.000 A 
ATOM     28  O   UNL     1      50.625   7.498  14.487  0.00  0.00    +0.000 OA
ATOM     29  C   UNL     1      51.573   7.838  16.612  0.00  0.00    +0.000 A 
BRANCH  26  30
ATOM     30  C   UNL     1      52.031   9.567  13.314  0.00  0.00    +0.000 C 
BRANCH  30  31
ATOM     31  C   UNL     1      50.935  10.598  13.038  0.00  0.00    +0.000 C 
BRANCH  31  32
ATOM     32  O   UNL     1      49.686   9.947  12.821  0.00  0.00    +0.000 OA
ATOM     33  H   UNL     1      49.871   9.091  12.397  0.00  0.00    +0.000 HD
ENDBRANCH  31  32
ENDBRANCH  30  31
ENDBRANCH  26  30
ENDBRANCH  17  20
ENDBRANCH   1  16
BRANCH   1  34
ATOM     34  C   UNL     1      47.064   4.394  17.471  0.00  0.00    +0.000 C 
BRANCH  34  35
ATOM     35  N   UNL     1      46.722   2.975  17.639  0.00  0.00    +0.000 NA
ATOM     36  H   UNL     1      45.995   2.722  16.973  0.00  0.00    +0.000 HD
ATOM     37  H   UNL     1      46.319   2.837  18.566  0.00  0.00    +0.000 HD
ENDBRANCH  34  35
ENDBRANCH   1  34
TORSDOF 11
ENDMDL
