MODEL 1
REMARK VINA RESULT:    -8.376      0.000      0.000
REMARK INTER + INTRA:         -11.784
REMARK INTER:                 -10.825
REMARK INTRA:                  -0.960
REMARK UNBOUND:                -0.960
REMARK  Name = 
REMARK  5 active torsions:
REMARK  status: ('A' for Active; 'I' for Inactive)
REMARK    1  A    between atoms: C_2  and  C_4
REMARK    2  A    between atoms: C_7  and  N_8
REMARK    3  A    between atoms: N_8  and  C_9
REMARK    4  A    between atoms: C_9  and  C_10
REMARK    5  A    between atoms: C_14  and  N_15
REMARK                            x       y       z     vdW  Elec       q    Type
REMARK                         _______ _______ _______ _____ _____    ______ ____
ROOT
ATOM      1  N   UNL     1      43.733   4.795   9.975  0.00  0.00    +0.000 N 
ATOM      2  H   UNL     1      42.920   5.144   9.479  0.00  0.00    +0.000 HD
ENDROOT
BRANCH   1   6
ATOM      3  C   UNL     1      46.335   2.276   7.788  0.00  0.00    +0.000 A 
ATOM      4  C   UNL     1      45.412   1.713   8.668  0.00  0.00    +0.000 A 
ATOM      5  C   UNL     1      44.531   2.536   9.376  0.00  0.00    +0.000 A 
ATOM      6  C   UNL     1      44.524   3.928   9.208  0.00  0.00    +0.000 A 
ATOM      7  C   UNL     1      45.459   4.478   8.318  0.00  0.00    +0.000 A 
ATOM      8  C   UNL     1      46.362   3.663   7.620  0.00  0.00    +0.000 A 
BRANCH   3  10
ATOM      9  N   UNL     1      48.439   2.074   6.574  0.00  0.00    +0.000 N 
ATOM     10  C   UNL     1      47.336   1.439   7.077  0.00  0.00    +0.000 C 
ATOM     11  O   UNL     1      47.197   0.228   6.961  0.00  0.00    +0.000 OA
ATOM     12  H   UNL     1      49.148   1.482   6.159  0.00  0.00    +0.000 HD
ATOM     13  H   UNL     1      48.705   3.005   6.852  0.00  0.00    +0.000 HD
ENDBRANCH   3  10
ENDBRANCH   1   6
BRANCH   1  14
ATOM     14  C   UNL     1      43.492   4.463  11.370  0.00  0.00    +0.000 C 
BRANCH  14  15
ATOM     15  C   UNL     1      44.689   4.730  12.248  0.00  0.00    +0.000 A 
ATOM     16  C   UNL     1      45.394   3.662  12.807  0.00  0.00    +0.000 A 
ATOM     17  C   UNL     1      46.593   3.893  13.468  0.00  0.00    +0.000 A 
ATOM     18  C   UNL     1      47.097   5.192  13.564  0.00  0.00    +0.000 A 
ATOM     19  C   UNL     1      46.420   6.296  13.026  0.00  0.00    +0.000 A 
ATOM     20  C   UNL     1      45.194   6.035  12.394  0.00  0.00    +0.000 A 
BRANCH  19  21
ATOM     21  N   UNL     1      46.957   7.563  13.083  0.00  0.00    +0.000 N 
ATOM     22  C   UNL     1      46.144   8.783  13.194  0.00  0.00    +0.000 C 
ATOM     23  C   UNL     1      46.528   9.767  12.079  0.00  0.00    +0.000 C 
ATOM     24  O   UNL     1      47.939  10.052  12.087  0.00  0.00    +0.000 OA
ATOM     25  C   UNL     1      48.690   8.840  11.897  0.00  0.00    +0.000 C 
ATOM     26  C   UNL     1      48.405   7.810  13.005  0.00  0.00    +0.000 C 
ENDBRANCH  19  21
ENDBRANCH  14  15
ENDBRANCH   1  14
TORSDOF 5
ENDMDL
MODEL 2
REMARK VINA RESULT:    -8.180      2.242      3.210
REMARK INTER + INTRA:         -11.530
REMARK INTER:                 -10.668
REMARK INTRA:                  -0.862
REMARK UNBOUND:                -0.960
REMARK  Name = 
REMARK  5 active torsions:
REMARK  status: ('A' for Active; 'I' for Inactive)
REMARK    1  A    between atoms: C_2  and  C_4
REMARK    2  A    between atoms: C_7  and  N_8
REMARK    3  A    between atoms: N_8  and  C_9
REMARK    4  A    between atoms: C_9  and  C_10
REMARK    5  A    between atoms: C_14  and  N_15
REMARK                            x       y       z     vdW  Elec       q    Type
REMARK                         _______ _______ _______ _____ _____    ______ ____
ROOT
ATOM      1  N   UNL     1      43.829   4.802  10.141  0.00  0.00    +0.000 N 
ATOM      2  H   UNL     1      42.871   4.913   9.828  0.00  0.00    +0.000 HD
ENDROOT
BRANCH   1   6
ATOM      3  C   UNL     1      46.320   2.277   7.834  0.00  0.00    +0.000 A 
ATOM      4  C   UNL     1      45.449   1.717   8.768  0.00  0.00    +0.000 A 
ATOM      5  C   UNL     1      44.605   2.541   9.518  0.00  0.00    +0.000 A 
ATOM      6  C   UNL     1      44.581   3.932   9.339  0.00  0.00    +0.000 A 
ATOM      7  C   UNL     1      45.463   4.479   8.394  0.00  0.00    +0.000 A 
ATOM      8  C   UNL     1      46.330   3.663   7.654  0.00  0.00    +0.000 A 
BRANCH   3  10
ATOM      9  N   UNL     1      48.383   2.065   6.555  0.00  0.00    +0.000 N 
ATOM     10  C   UNL     1      47.283   1.439   7.075  0.00  0.00    +0.000 C 
ATOM     11  O   UNL     1      47.119   0.233   6.936  0.00  0.00    +0.000 OA
ATOM     12  H   UNL     1      49.069   1.471   6.106  0.00  0.00    +0.000 HD
ATOM     13  H   UNL     1      48.675   2.985   6.846  0.00  0.00    +0.000 HD
ENDBRANCH   3  10
ENDBRANCH   1   6
BRANCH   1  14
ATOM     14  C   UNL     1      43.986   4.723  11.585  0.00  0.00    +0.000 C 
BRANCH  14  15
ATOM     15  C   UNL     1      45.226   5.429  12.076  0.00  0.00    +0.000 A 
ATOM     16  C   UNL     1      45.567   6.679  11.555  0.00  0.00    +0.000 A 
ATOM     17  C   UNL     1      46.603   7.409  12.125  0.00  0.00    +0.000 A 
ATOM     18  C   UNL     1      47.294   6.895  13.224  0.00  0.00    +0.000 A 
ATOM     19  C   UNL     1      46.993   5.641  13.775  0.00  0.00    +0.000 A 
ATOM     20  C   UNL     1      45.964   4.913  13.156  0.00  0.00    +0.000 A 
BRANCH  19  21
ATOM     21  N   UNL     1      47.649   5.173  14.892  0.00  0.00    +0.000 N 
ATOM     22  C   UNL     1      47.420   3.840  15.468  0.00  0.00    +0.000 C 
ATOM     23  C   UNL     1      47.086   3.969  16.961  0.00  0.00    +0.000 C 
ATOM     24  O   UNL     1      48.105   4.698  17.670  0.00  0.00    +0.000 OA
ATOM     25  C   UNL     1      48.239   6.021  17.123  0.00  0.00    +0.000 C 
ATOM     26  C   UNL     1      48.624   5.988  15.633  0.00  0.00    +0.000 C 
ENDBRANCH  19  21
ENDBRANCH  14  15
ENDBRANCH   1  14
TORSDOF 5
ENDMDL
MODEL 3
REMARK VINA RESULT:    -6.740      3.743      8.190
REMARK INTER + INTRA:          -9.670
REMARK INTER:                  -9.178
REMARK INTRA:                  -0.493
REMARK UNBOUND:                -0.960
REMARK  Name = 
REMARK  5 active torsions:
REMARK  status: ('A' for Active; 'I' for Inactive)
REMARK    1  A    between atoms: C_2  and  C_4
REMARK    2  A    between atoms: C_7  and  N_8
REMARK    3  A    between atoms: N_8  and  C_9
REMARK    4  A    between atoms: C_9  and  C_10
REMARK    5  A    between atoms: C_14  and  N_15
REMARK                            x       y       z     vdW  Elec       q    Type
REMARK                         _______ _______ _______ _____ _____    ______ ____
ROOT
ATOM      1  N   UNL     1      46.830   3.837  14.481  0.00  0.00    +0.000 N 
ATOM      2  H   UNL     1      46.226   3.023  14.431  0.00  0.00    +0.000 HD
ENDROOT
BRANCH   1   6
ATOM      3  C   UNL     1      48.608   4.406  18.277  0.00  0.00    +0.000 A 
ATOM      4  C   UNL     1      48.125   3.146  17.927  0.00  0.00    +0.000 A 
ATOM      5  C   UNL     1      47.558   2.942  16.665  0.00  0.00    +0.000 A 
ATOM      6  C   UNL     1      47.485   3.969  15.714  0.00  0.00    +0.000 A 
ATOM      7  C   UNL     1      47.976   5.231  16.083  0.00  0.00    +0.000 A 
ATOM      8  C   UNL     1      48.526   5.451  17.354  0.00  0.00    +0.000 A 
BRANCH   3  10
ATOM      9  N   UNL     1      48.568   4.015  20.682  0.00  0.00    +0.000 N 
ATOM     10  C   UNL     1      49.148   4.677  19.635  0.00  0.00    +0.000 C 
ATOM     11  O   UNL     1      50.087   5.443  19.814  0.00  0.00    +0.000 OA
ATOM     12  H   UNL     1      48.994   4.150  21.591  0.00  0.00    +0.000 HD
ATOM     13  H   UNL     1      47.971   3.213  20.556  0.00  0.00    +0.000 HD
ENDBRANCH   3  10
ENDBRANCH   1   6
BRANCH   1  14
ATOM     14  C   UNL     1      46.287   5.030  13.852  0.00  0.00    +0.000 C 
BRANCH  14  15
ATOM     15  C   UNL     1      45.155   4.724  12.903  0.00  0.00    +0.000 A 
ATOM     16  C   UNL     1      43.870   5.199  13.175  0.00  0.00    +0.000 A 
ATOM     17  C   UNL     1      42.867   5.072  12.222  0.00  0.00    +0.000 A 
ATOM     18  C   UNL     1      43.148   4.479  10.990  0.00  0.00    +0.000 A 
ATOM     19  C   UNL     1      44.421   3.979  10.675  0.00  0.00    +0.000 A 
ATOM     20  C   UNL     1      45.404   4.092  11.670  0.00  0.00    +0.000 A 
BRANCH  19  21
ATOM     21  N   UNL     1      44.694   3.445   9.435  0.00  0.00    +0.000 N 
ATOM     22  C   UNL     1      44.648   2.005   9.145  0.00  0.00    +0.000 C 
ATOM     23  C   UNL     1      45.973   1.559   8.509  0.00  0.00    +0.000 C 
ATOM     24  O   UNL     1      46.287   2.338   7.340  0.00  0.00    +0.000 OA
ATOM     25  C   UNL     1      46.399   3.730   7.687  0.00  0.00    +0.000 C 
ATOM     26  C   UNL     1      45.092   4.277   8.288  0.00  0.00    +0.000 C 
ENDBRANCH  19  21
ENDBRANCH  14  15
ENDBRANCH   1  14
TORSDOF 5
ENDMDL
MODEL 4
REMARK VINA RESULT:    -6.663      1.804      6.751
REMARK INTER + INTRA:          -9.571
REMARK INTER:                  -8.731
REMARK INTRA:                  -0.840
REMARK UNBOUND:                -0.960
REMARK  Name = 
REMARK  5 active torsions:
REMARK  status: ('A' for Active; 'I' for Inactive)
REMARK    1  A    between atoms: C_2  and  C_4
REMARK    2  A    between atoms: C_7  and  N_8
REMARK    3  A    between atoms: N_8  and  C_9
REMARK    4  A    between atoms: C_9  and  C_10
REMARK    5  A    between atoms: C_14  and  N_15
REMARK                            x       y       z     vdW  Elec       q    Type
REMARK                         _______ _______ _______ _____ _____    ______ ____
ROOT
ATOM      1  N   UNL     1      45.200   7.216  12.968  0.00  0.00    +0.000 N 
ATOM      2  H   UNL     1      44.736   7.828  13.630  0.00  0.00    +0.000 HD
ENDROOT
BRANCH   1   6
ATOM      3  C   UNL     1      49.284   7.983  12.171  0.00  0.00    +0.000 A 
ATOM      4  C   UNL     1      48.331   8.956  11.872  0.00  0.00    +0.000 A 
ATOM      5  C   UNL     1      46.981   8.721  12.154  0.00  0.00    +0.000 A 
ATOM      6  C   UNL     1      46.550   7.535  12.766  0.00  0.00    +0.000 A 
ATOM      7  C   UNL     1      47.523   6.567  13.061  0.00  0.00    +0.000 A 
ATOM      8  C   UNL     1      48.876   6.784  12.762  0.00  0.00    +0.000 A 
BRANCH   3  10
ATOM      9  N   UNL     1      51.294   7.206  11.035  0.00  0.00    +0.000 N 
ATOM     10  C   UNL     1      50.714   8.168  11.817  0.00  0.00    +0.000 C 
ATOM     11  O   UNL     1      51.349   9.148  12.186  0.00  0.00    +0.000 OA
ATOM     12  H   UNL     1      52.246   7.382  10.738  0.00  0.00    +0.000 HD
ATOM     13  H   UNL     1      50.757   6.526  10.520  0.00  0.00    +0.000 HD
ENDBRANCH   3  10
ENDBRANCH   1   6
BRANCH   1  14
ATOM     14  C   UNL     1      44.393   6.853  11.814  0.00  0.00    +0.000 C 
BRANCH  14  15
ATOM     15  C   UNL     1      44.329   5.363  11.592  0.00  0.00    +0.000 A 
ATOM     16  C   UNL     1      43.662   4.550  12.512  0.00  0.00    +0.000 A 
ATOM     17  C   UNL     1      43.449   3.208  12.226  0.00  0.00    +0.000 A 
ATOM     18  C   UNL     1      43.894   2.675  11.014  0.00  0.00    +0.000 A 
ATOM     19  C   UNL     1      44.576   3.450  10.064  0.00  0.00    +0.000 A 
ATOM     20  C   UNL     1      44.806   4.794  10.397  0.00  0.00    +0.000 A 
BRANCH  19  21
ATOM     21  N   UNL     1      44.961   2.921   8.851  0.00  0.00    +0.000 N 
ATOM     22  C   UNL     1      45.091   1.479   8.601  0.00  0.00    +0.000 C 
ATOM     23  C   UNL     1      46.484   1.173   8.031  0.00  0.00    +0.000 C 
ATOM     24  O   UNL     1      46.757   1.955   6.853  0.00  0.00    +0.000 OA
ATOM     25  C   UNL     1      46.695   3.358   7.165  0.00  0.00    +0.000 C 
ATOM     26  C   UNL     1      45.310   3.765   7.698  0.00  0.00    +0.000 C 
ENDBRANCH  19  21
ENDBRANCH  14  15
ENDBRANCH   1  14
TORSDOF 5
ENDMDL
MODEL 5
REMARK VINA RESULT:    -6.372      4.526      7.828
REMARK INTER + INTRA:          -9.193
REMARK INTER:                  -8.557
REMARK INTRA:                  -0.637
REMARK UNBOUND:                -0.960
REMARK  Name = 
REMARK  5 active torsions:
REMARK  status: ('A' for Active; 'I' for Inactive)
REMARK    1  A    between atoms: C_2  and  C_4
REMARK    2  A    between atoms: C_7  and  N_8
REMARK    3  A    between atoms: N_8  and  C_9
REMARK    4  A    between atoms: C_9  and  C_10
REMARK    5  A    between atoms: C_14  and  N_15
REMARK                            x       y       z     vdW  Elec       q    Type
REMARK                         _______ _______ _______ _____ _____    ______ ____
ROOT
ATOM      1  N   UNL     1      47.599   5.012  16.243  0.00  0.00    +0.000 N 
ATOM      2  H   UNL     1      47.820   5.986  16.066  0.00  0.00    +0.000 HD
ENDROOT
BRANCH   1   6
ATOM      3  C   UNL     1      50.918   2.714  17.510  0.00  0.00    +0.000 A 
ATOM      4  C   UNL     1      50.954   4.102  17.638  0.00  0.00    +0.000 A 
ATOM      5  C   UNL     1      49.852   4.868  17.245  0.00  0.00    +0.000 A 
ATOM      6  C   UNL     1      48.682   4.277  16.747  0.00  0.00    +0.000 A 
ATOM      7  C   UNL     1      48.663   2.880  16.625  0.00  0.00    +0.000 A 
ATOM      8  C   UNL     1      49.771   2.104  16.996  0.00  0.00    +0.000 A 
BRANCH   3  10
ATOM      9  N   UNL     1      52.118   0.599  17.356  0.00  0.00    +0.000 N 
ATOM     10  C   UNL     1      52.097   1.876  17.846  0.00  0.00    +0.000 C 
ATOM     11  O   UNL     1      53.027   2.310  18.516  0.00  0.00    +0.000 OA
ATOM     12  H   UNL     1      52.960   0.064  17.529  0.00  0.00    +0.000 HD
ATOM     13  H   UNL     1      51.506   0.289  16.618  0.00  0.00    +0.000 HD
ENDBRANCH   3  10
ENDBRANCH   1   6
BRANCH   1  14
ATOM     14  C   UNL     1      46.750   4.394  15.237  0.00  0.00    +0.000 C 
BRANCH  14  15
ATOM     15  C   UNL     1      46.665   5.205  13.968  0.00  0.00    +0.000 A 
ATOM     16  C   UNL     1      47.494   6.316  13.795  0.00  0.00    +0.000 A 
ATOM     17  C   UNL     1      47.545   6.959  12.565  0.00  0.00    +0.000 A 
ATOM     18  C   UNL     1      46.775   6.487  11.500  0.00  0.00    +0.000 A 
ATOM     19  C   UNL     1      45.922   5.381  11.628  0.00  0.00    +0.000 A 
ATOM     20  C   UNL     1      45.867   4.773  12.893  0.00  0.00    +0.000 A 
BRANCH  19  21
ATOM     21  N   UNL     1      45.211   4.896  10.553  0.00  0.00    +0.000 N 
ATOM     22  C   UNL     1      44.025   4.038  10.687  0.00  0.00    +0.000 C 
ATOM     23  C   UNL     1      44.207   2.764   9.848  0.00  0.00    +0.000 C 
ATOM     24  O   UNL     1      44.501   3.073   8.474  0.00  0.00    +0.000 OA
ATOM     25  C   UNL     1      45.711   3.846   8.388  0.00  0.00    +0.000 C 
ATOM     26  C   UNL     1      45.599   5.172   9.161  0.00  0.00    +0.000 C 
ENDBRANCH  19  21
ENDBRANCH  14  15
ENDBRANCH   1  14
TORSDOF 5
ENDMDL
MODEL 6
REMARK VINA RESULT:    -6.310      5.419      8.219
REMARK INTER + INTRA:          -9.114
REMARK INTER:                  -8.482
REMARK INTRA:                  -0.632
REMARK UNBOUND:                -0.960
REMARK  Name = 
REMARK  5 active torsions:
REMARK  status: ('A' for Active; 'I' for Inactive)
REMARK    1  A    between atoms: C_2  and  C_4
REMARK    2  A    between atoms: C_7  and  N_8
REMARK    3  A    between atoms: N_8  and  C_9
REMARK    4  A    between atoms: C_9  and  C_10
REMARK    5  A    between atoms: C_14  and  N_15
REMARK                            x       y       z     vdW  Elec       q    Type
REMARK                         _______ _______ _______ _____ _____    ______ ____
ROOT
ATOM      1  N   UNL     1      49.018   4.810  17.139  0.00  0.00    +0.000 N 
ATOM      2  H   UNL     1      49.396   5.681  16.782  0.00  0.00    +0.000 HD
ENDROOT
BRANCH   1   6
ATOM      3  C   UNL     1      51.989   1.837  17.626  0.00  0.00    +0.000 A 
ATOM      4  C   UNL     1      52.276   3.158  17.967  0.00  0.00    +0.000 A 
ATOM      5  C   UNL     1      51.293   4.143  17.832  0.00  0.00    +0.000 A 
ATOM      6  C   UNL     1      49.998   3.839  17.388  0.00  0.00    +0.000 A 
ATOM      7  C   UNL     1      49.726   2.504  17.050  0.00  0.00    +0.000 A 
ATOM      8  C   UNL     1      50.711   1.513  17.160  0.00  0.00    +0.000 A 
BRANCH   3  10
ATOM      9  N   UNL     1      52.746  -0.339  18.420  0.00  0.00    +0.000 N 
ATOM     10  C   UNL     1      53.030   0.779  17.684  0.00  0.00    +0.000 C 
ATOM     11  O   UNL     1      54.092   0.887  17.083  0.00  0.00    +0.000 OA
ATOM     12  H   UNL     1      53.431  -1.083  18.389  0.00  0.00    +0.000 HD
ATOM     13  H   UNL     1      51.812  -0.569  18.722  0.00  0.00    +0.000 HD
ENDBRANCH   3  10
ENDBRANCH   1   6
BRANCH   1  14
ATOM     14  C   UNL     1      47.772   4.393  16.515  0.00  0.00    +0.000 C 
BRANCH  14  15
ATOM     15  C   UNL     1      47.480   5.143  15.239  0.00  0.00    +0.000 A 
ATOM     16  C   UNL     1      48.287   6.220  14.864  0.00  0.00    +0.000 A 
ATOM     17  C   UNL     1      48.132   6.800  13.612  0.00  0.00    +0.000 A 
ATOM     18  C   UNL     1      47.177   6.298  12.725  0.00  0.00    +0.000 A 
ATOM     19  C   UNL     1      46.339   5.224  13.060  0.00  0.00    +0.000 A 
ATOM     20  C   UNL     1      46.496   4.682  14.345  0.00  0.00    +0.000 A 
BRANCH  19  21
ATOM     21  N   UNL     1      45.439   4.708  12.154  0.00  0.00    +0.000 N 
ATOM     22  C   UNL     1      44.629   5.540  11.253  0.00  0.00    +0.000 C 
ATOM     23  C   UNL     1      43.144   5.174  11.402  0.00  0.00    +0.000 C 
ATOM     24  O   UNL     1      42.922   3.769  11.189  0.00  0.00    +0.000 OA
ATOM     25  C   UNL     1      43.674   2.998  12.143  0.00  0.00    +0.000 C 
ATOM     26  C   UNL     1      45.186   3.264  12.029  0.00  0.00    +0.000 C 
ENDBRANCH  19  21
ENDBRANCH  14  15
ENDBRANCH   1  14
TORSDOF 5
ENDMDL
MODEL 7
REMARK VINA RESULT:    -6.051      1.632      7.108
REMARK INTER + INTRA:          -8.779
REMARK INTER:                  -8.177
REMARK INTRA:                  -0.602
REMARK UNBOUND:                -0.960
REMARK  Name = 
REMARK  5 active torsions:
REMARK  status: ('A' for Active; 'I' for Inactive)
REMARK    1  A    between atoms: C_2  and  C_4
REMARK    2  A    between atoms: C_7  and  N_8
REMARK    3  A    between atoms: N_8  and  C_9
REMARK    4  A    between atoms: C_9  and  C_10
REMARK    5  A    between atoms: C_14  and  N_15
REMARK                            x       y       z     vdW  Elec       q    Type
REMARK                         _______ _______ _______ _____ _____    ______ ____
ROOT
ATOM      1  N   UNL     1      47.392   5.150  13.237  0.00  0.00    +0.000 N 
ATOM      2  H   UNL     1      48.214   4.698  13.624  0.00  0.00    +0.000 HD
ENDROOT
BRANCH   1   6
ATOM      3  C   UNL     1      47.978   9.260  12.423  0.00  0.00    +0.000 A 
ATOM      4  C   UNL     1      49.064   8.388  12.370  0.00  0.00    +0.000 A 
ATOM      5  C   UNL     1      48.876   7.024  12.613  0.00  0.00    +0.000 A 
ATOM      6  C   UNL     1      47.607   6.489  12.883  0.00  0.00    +0.000 A 
ATOM      7  C   UNL     1      46.526   7.382  12.932  0.00  0.00    +0.000 A 
ATOM      8  C   UNL     1      46.707   8.754  12.712  0.00  0.00    +0.000 A 
BRANCH   3  10
ATOM      9  N   UNL     1      47.806  11.253  11.031  0.00  0.00    +0.000 N 
ATOM     10  C   UNL     1      48.153  10.724  12.244  0.00  0.00    +0.000 C 
ATOM     11  O   UNL     1      48.568  11.439  13.148  0.00  0.00    +0.000 OA
ATOM     12  H   UNL     1      47.858  12.261  10.948  0.00  0.00    +0.000 HD
ATOM     13  H   UNL     1      47.246  10.753  10.359  0.00  0.00    +0.000 HD
ENDBRANCH   3  10
ENDBRANCH   1   6
BRANCH   1  14
ATOM     14  C   UNL     1      46.144   4.799  13.897  0.00  0.00    +0.000 C 
BRANCH  14  15
ATOM     15  C   UNL     1      45.028   4.521  12.922  0.00  0.00    +0.000 A 
ATOM     16  C   UNL     1      43.740   4.993  13.184  0.00  0.00    +0.000 A 
ATOM     17  C   UNL     1      42.752   4.892  12.213  0.00  0.00    +0.000 A 
ATOM     18  C   UNL     1      43.052   4.329  10.971  0.00  0.00    +0.000 A 
ATOM     19  C   UNL     1      44.328   3.834  10.665  0.00  0.00    +0.000 A 
ATOM     20  C   UNL     1      45.295   3.919  11.679  0.00  0.00    +0.000 A 
BRANCH  19  21
ATOM     21  N   UNL     1      44.620   3.330   9.416  0.00  0.00    +0.000 N 
ATOM     22  C   UNL     1      44.673   1.892   9.115  0.00  0.00    +0.000 C 
ATOM     23  C   UNL     1      46.017   1.548   8.456  0.00  0.00    +0.000 C 
ATOM     24  O   UNL     1      46.256   2.356   7.289  0.00  0.00    +0.000 OA
ATOM     25  C   UNL     1      46.273   3.749   7.646  0.00  0.00    +0.000 C 
ATOM     26  C   UNL     1      44.939   4.196   8.271  0.00  0.00    +0.000 C 
ENDBRANCH  19  21
ENDBRANCH  14  15
ENDBRANCH   1  14
TORSDOF 5
ENDMDL
MODEL 8
REMARK VINA RESULT:    -5.952      3.707      5.805
REMARK INTER + INTRA:          -8.652
REMARK INTER:                  -7.889
REMARK INTRA:                  -0.763
REMARK UNBOUND:                -0.960
REMARK  Name = 
REMARK  5 active torsions:
REMARK  status: ('A' for Active; 'I' for Inactive)
REMARK    1  A    between atoms: C_2  and  C_4
REMARK    2  A    between atoms: C_7  and  N_8
REMARK    3  A    between atoms: N_8  and  C_9
REMARK    4  A    between atoms: C_9  and  C_10
REMARK    5  A    between atoms: C_14  and  N_15
REMARK                            x       y       z     vdW  Elec       q    Type
REMARK                         _______ _______ _______ _____ _____    ______ ____
ROOT
ATOM      1  N   UNL     1      46.684   7.658  12.598  0.00  0.00    +0.000 N 
ATOM      2  H   UNL     1      46.119   8.115  13.306  0.00  0.00    +0.000 HD
ENDROOT
BRANCH   1   6
ATOM      3  C   UNL     1      44.774   4.111  11.305  0.00  0.00    +0.000 A 
ATOM      4  C   UNL     1      45.228   5.031  10.360  0.00  0.00    +0.000 A 
ATOM      5  C   UNL     1      45.881   6.195  10.777  0.00  0.00    +0.000 A 
ATOM      6  C   UNL     1      46.129   6.458  12.132  0.00  0.00    +0.000 A 
ATOM      7  C   UNL     1      45.666   5.521  13.069  0.00  0.00    +0.000 A 
ATOM      8  C   UNL     1      44.989   4.363  12.662  0.00  0.00    +0.000 A 
BRANCH   3  10
ATOM      9  N   UNL     1      44.521   2.150   9.881  0.00  0.00    +0.000 N 
ATOM     10  C   UNL     1      44.010   2.903  10.902  0.00  0.00    +0.000 C 
ATOM     11  O   UNL     1      42.976   2.575  11.472  0.00  0.00    +0.000 OA
ATOM     12  H   UNL     1      44.032   1.290   9.667  0.00  0.00    +0.000 HD
ATOM     13  H   UNL     1      45.470   2.246   9.556  0.00  0.00    +0.000 HD
ENDBRANCH   3  10
ENDBRANCH   1   6
BRANCH   1  14
ATOM     14  C   UNL     1      48.116   7.711  12.842  0.00  0.00    +0.000 C 
BRANCH  14  15
ATOM     15  C   UNL     1      48.457   7.708  14.312  0.00  0.00    +0.000 A 
ATOM     16  C   UNL     1      48.488   8.911  15.021  0.00  0.00    +0.000 A 
ATOM     17  C   UNL     1      48.628   8.898  16.403  0.00  0.00    +0.000 A 
ATOM     18  C   UNL     1      48.725   7.681  17.081  0.00  0.00    +0.000 A 
ATOM     19  C   UNL     1      48.707   6.449  16.411  0.00  0.00    +0.000 A 
ATOM     20  C   UNL     1      48.600   6.496  15.012  0.00  0.00    +0.000 A 
BRANCH  19  21
ATOM     21  N   UNL     1      48.751   5.257  17.101  0.00  0.00    +0.000 N 
ATOM     22  C   UNL     1      49.873   4.862  17.964  0.00  0.00    +0.000 C 
ATOM     23  C   UNL     1      50.386   3.475  17.549  0.00  0.00    +0.000 C 
ATOM     24  O   UNL     1      49.329   2.498  17.552  0.00  0.00    +0.000 OA
ATOM     25  C   UNL     1      48.291   2.888  16.635  0.00  0.00    +0.000 C 
ATOM     26  C   UNL     1      47.682   4.252  17.007  0.00  0.00    +0.000 C 
ENDBRANCH  19  21
ENDBRANCH  14  15
ENDBRANCH   1  14
TORSDOF 5
ENDMDL
MODEL 9
REMARK VINA RESULT:    -5.843      1.463      2.116
REMARK INTER + INTRA:          -8.510
REMARK INTER:                  -7.806
REMARK INTRA:                  -0.704
REMARK UNBOUND:                -0.960
REMARK  Name = 
REMARK  5 active torsions:
REMARK  status: ('A' for Active; 'I' for Inactive)
REMARK    1  A    between atoms: C_2  and  C_4
REMARK    2  A    between atoms: C_7  and  N_8
REMARK    3  A    between atoms: N_8  and  C_9
REMARK    4  A    between atoms: C_9  and  C_10
REMARK    5  A    between atoms: C_14  and  N_15
REMARK                            x       y       z     vdW  Elec       q    Type
REMARK                         _______ _______ _______ _____ _____    ______ ____
ROOT
ATOM      1  N   UNL     1      44.435   4.719  11.456  0.00  0.00    +0.000 N 
ATOM      2  H   UNL     1      43.449   4.913  11.313  0.00  0.00    +0.000 HD
ENDROOT
BRANCH   1   6
ATOM      3  C   UNL     1      46.144   3.209   7.893  0.00  0.00    +0.000 A 
ATOM      4  C   UNL     1      46.194   4.578   8.153  0.00  0.00    +0.000 A 
ATOM      5  C   UNL     1      45.654   5.083   9.339  0.00  0.00    +0.000 A 
ATOM      6  C   UNL     1      45.081   4.244  10.306  0.00  0.00    +0.000 A 
ATOM      7  C   UNL     1      45.040   2.869  10.029  0.00  0.00    +0.000 A 
ATOM      8  C   UNL     1      45.559   2.355   8.832  0.00  0.00    +0.000 A 
BRANCH   3  10
ATOM      9  N   UNL     1      46.882   3.528   5.593  0.00  0.00    +0.000 N 
ATOM     10  C   UNL     1      46.640   2.647   6.611  0.00  0.00    +0.000 C 
ATOM     11  O   UNL     1      46.847   1.447   6.470  0.00  0.00    +0.000 OA
ATOM     12  H   UNL     1      47.291   3.142   4.751  0.00  0.00    +0.000 HD
ATOM     13  H   UNL     1      46.956   4.522   5.740  0.00  0.00    +0.000 HD
ENDBRANCH   3  10
ENDBRANCH   1   6
BRANCH   1  14
ATOM     14  C   UNL     1      44.748   4.098  12.734  0.00  0.00    +0.000 C 
BRANCH  14  15
ATOM     15  C   UNL     1      45.841   4.822  13.480  0.00  0.00    +0.000 A 
ATOM     16  C   UNL     1      46.402   4.248  14.623  0.00  0.00    +0.000 A 
ATOM     17  C   UNL     1      47.521   4.822  15.211  0.00  0.00    +0.000 A 
ATOM     18  C   UNL     1      48.092   5.967  14.650  0.00  0.00    +0.000 A 
ATOM     19  C   UNL     1      47.560   6.584  13.508  0.00  0.00    +0.000 A 
ATOM     20  C   UNL     1      46.408   6.000  12.958  0.00  0.00    +0.000 A 
BRANCH  19  21
ATOM     21  N   UNL     1      48.166   7.681  12.938  0.00  0.00    +0.000 N 
ATOM     22  C   UNL     1      48.673   7.701  11.558  0.00  0.00    +0.000 C 
ATOM     23  C   UNL     1      50.142   8.151  11.550  0.00  0.00    +0.000 C 
ATOM     24  O   UNL     1      50.310   9.419  12.208  0.00  0.00    +0.000 OA
ATOM     25  C   UNL     1      49.874   9.330  13.576  0.00  0.00    +0.000 C 
ATOM     26  C   UNL     1      48.390   8.932  13.678  0.00  0.00    +0.000 C 
ENDBRANCH  19  21
ENDBRANCH  14  15
ENDBRANCH   1  14
TORSDOF 5
ENDMDL
