MODEL 1
REMARK VINA RESULT:    -8.025      0.000      0.000
REMARK INTER + INTRA:         -10.876
REMARK INTER:                 -10.136
REMARK INTRA:                  -0.740
REMARK UNBOUND:                -0.740
REMARK  Name = 
REMARK  7 active torsions:
REMARK  status: ('A' for Active; 'I' for Inactive)
REMARK    1  A    between atoms: C_1  and  O_2
REMARK    2  A    between atoms: O_2  and  C_3
REMARK    3  A    between atoms: N_9  and  C_10
REMARK    4  A    between atoms: C_10  and  C_11
REMARK    5  A    between atoms: C_14  and  C_15
REMARK    6  A    between atoms: C_15  and  C_16
REMARK    7  A    between atoms: C_15  and  N_17
REMARK                            x       y       z     vdW  Elec       q    Type
REMARK                         _______ _______ _______ _____ _____    ______ ____
ROOT
ATOM      1  C   UNL     1      43.773   4.610  10.785  0.00  0.00    +0.000 C 
ENDROOT
BRANCH   1   8
ATOM      2  C   UNL     1      47.038   4.382  13.987  0.00  0.00    +0.000 A 
ATOM      3  C   UNL     1      47.508   5.636  14.371  0.00  0.00    +0.000 A 
ATOM      4  C   UNL     1      47.043   6.794  13.738  0.00  0.00    +0.000 A 
ATOM      5  C   UNL     1      46.079   6.696  12.718  0.00  0.00    +0.000 A 
ATOM      6  C   UNL     1      45.417   7.651  11.906  0.00  0.00    +0.000 A 
ATOM      7  C   UNL     1      44.541   6.973  11.092  0.00  0.00    +0.000 A 
ATOM      8  N   UNL     1      44.643   5.631  11.374  0.00  0.00    +0.000 N 
ATOM      9  C   UNL     1      45.606   5.431  12.345  0.00  0.00    +0.000 A 
ATOM     10  C   UNL     1      46.105   4.259  12.946  0.00  0.00    +0.000 A 
BRANCH   2  12
ATOM     11  C   UNL     1      47.784   3.276  15.930  0.00  0.00    +0.000 C 
ATOM     12  O   UNL     1      47.441   3.198  14.548  0.00  0.00    +0.000 OA
ENDBRANCH   2  12
ENDBRANCH   1   8
BRANCH   1  13
ATOM     13  C   UNL     1      44.488   3.849   9.699  0.00  0.00    +0.000 A 
ATOM     14  C   UNL     1      44.492   2.449   9.700  0.00  0.00    +0.000 A 
ATOM     15  C   UNL     1      45.330   1.744   8.835  0.00  0.00    +0.000 A 
ATOM     16  C   UNL     1      46.185   2.424   7.959  0.00  0.00    +0.000 A 
ATOM     17  C   UNL     1      46.083   3.821   7.869  0.00  0.00    +0.000 A 
ATOM     18  C   UNL     1      45.243   4.526   8.731  0.00  0.00    +0.000 A 
BRANCH  16  19
ATOM     19  C   UNL     1      47.270   1.657   7.228  0.00  0.00    +0.000 C 
ATOM     20  C   UNL     1      47.484   2.228   5.822  0.00  0.00    +0.000 C 
BRANCH  19  21
ATOM     21  N   UNL     1      46.989   0.225   7.160  0.00  0.00    +0.000 NA
ATOM     22  H   UNL     1      45.986   0.078   7.077  0.00  0.00    +0.000 HD
ATOM     23  H   UNL     1      47.268  -0.201   8.041  0.00  0.00    +0.000 HD
ENDBRANCH  19  21
ENDBRANCH  16  19
ENDBRANCH   1  13
TORSDOF 5
ENDMDL
MODEL 2
REMARK VINA RESULT:    -7.813      2.053      3.384
REMARK INTER + INTRA:         -10.608
REMARK INTER:                  -9.855
REMARK INTRA:                  -0.753
REMARK UNBOUND:                -0.740
REMARK  Name = 
REMARK  7 active torsions:
REMARK  status: ('A' for Active; 'I' for Inactive)
REMARK    1  A    between atoms: C_1  and  O_2
REMARK    2  A    between atoms: O_2  and  C_3
REMARK    3  A    between atoms: N_9  and  C_10
REMARK    4  A    between atoms: C_10  and  C_11
REMARK    5  A    between atoms: C_14  and  C_15
REMARK    6  A    between atoms: C_15  and  C_16
REMARK    7  A    between atoms: C_15  and  N_17
REMARK                            x       y       z     vdW  Elec       q    Type
REMARK                         _______ _______ _______ _____ _____    ______ ____
ROOT
ATOM      1  C   UNL     1      43.754   4.548  10.771  0.00  0.00    +0.000 C 
ENDROOT
BRANCH   1   8
ATOM      2  C   UNL     1      45.016   8.840  11.751  0.00  0.00    +0.000 A 
ATOM      3  C   UNL     1      46.064   8.900  12.667  0.00  0.00    +0.000 A 
ATOM      4  C   UNL     1      46.568   7.731  13.248  0.00  0.00    +0.000 A 
ATOM      5  C   UNL     1      46.028   6.482  12.892  0.00  0.00    +0.000 A 
ATOM      6  C   UNL     1      46.311   5.149  13.283  0.00  0.00    +0.000 A 
ATOM      7  C   UNL     1      45.476   4.318  12.574  0.00  0.00    +0.000 A 
ATOM      8  N   UNL     1      44.685   5.096  11.761  0.00  0.00    +0.000 N 
ATOM      9  C   UNL     1      44.981   6.431  11.963  0.00  0.00    +0.000 A 
ATOM     10  C   UNL     1      44.437   7.607  11.411  0.00  0.00    +0.000 A 
BRANCH   2  12
ATOM     11  C   UNL     1      43.131   9.735  10.656  0.00  0.00    +0.000 C 
ATOM     12  O   UNL     1      44.459   9.931  11.137  0.00  0.00    +0.000 OA
ENDBRANCH   2  12
ENDBRANCH   1   8
BRANCH   1  13
ATOM     13  C   UNL     1      44.493   3.831   9.671  0.00  0.00    +0.000 A 
ATOM     14  C   UNL     1      44.493   2.432   9.613  0.00  0.00    +0.000 A 
ATOM     15  C   UNL     1      45.350   1.761   8.740  0.00  0.00    +0.000 A 
ATOM     16  C   UNL     1      46.229   2.474   7.914  0.00  0.00    +0.000 A 
ATOM     17  C   UNL     1      46.133   3.873   7.881  0.00  0.00    +0.000 A 
ATOM     18  C   UNL     1      45.274   4.545   8.751  0.00  0.00    +0.000 A 
BRANCH  16  19
ATOM     19  C   UNL     1      47.328   1.734   7.178  0.00  0.00    +0.000 C 
ATOM     20  C   UNL     1      47.538   2.326   5.780  0.00  0.00    +0.000 C 
BRANCH  19  21
ATOM     21  N   UNL     1      47.071   0.299   7.091  0.00  0.00    +0.000 NA
ATOM     22  H   UNL     1      46.070   0.135   7.021  0.00  0.00    +0.000 HD
ATOM     23  H   UNL     1      47.371  -0.137   7.961  0.00  0.00    +0.000 HD
ENDBRANCH  19  21
ENDBRANCH  16  19
ENDBRANCH   1  13
TORSDOF 5
ENDMDL
MODEL 3
REMARK VINA RESULT:    -7.494      1.697      2.482
REMARK INTER + INTRA:         -10.205
REMARK INTER:                  -9.402
REMARK INTRA:                  -0.803
REMARK UNBOUND:                -0.740
REMARK  Name = 
REMARK  7 active torsions:
REMARK  status: ('A' for Active; 'I' for Inactive)
REMARK    1  A    between atoms: C_1  and  O_2
REMARK    2  A    between atoms: O_2  and  C_3
REMARK    3  A    between atoms: N_9  and  C_10
REMARK    4  A    between atoms: C_10  and  C_11
REMARK    5  A    between atoms: C_14  and  C_15
REMARK    6  A    between atoms: C_15  and  C_16
REMARK    7  A    between atoms: C_15  and  N_17
REMARK                            x       y       z     vdW  Elec       q    Type
REMARK                         _______ _______ _______ _____ _____    ______ ____
ROOT
ATOM      1  C   UNL     1      43.851   4.846  10.325  0.00  0.00    +0.000 C 
ENDROOT
BRANCH   1   8
ATOM      2  C   UNL     1      47.633   6.824  11.986  0.00  0.00    +0.000 A 
ATOM      3  C   UNL     1      47.971   6.363  13.256  0.00  0.00    +0.000 A 
ATOM      4  C   UNL     1      47.145   5.454  13.926  0.00  0.00    +0.000 A 
ATOM      5  C   UNL     1      45.973   4.984  13.307  0.00  0.00    +0.000 A 
ATOM      6  C   UNL     1      44.955   4.080  13.702  0.00  0.00    +0.000 A 
ATOM      7  C   UNL     1      44.059   3.977  12.664  0.00  0.00    +0.000 A 
ATOM      8  N   UNL     1      44.491   4.791  11.642  0.00  0.00    +0.000 N 
ATOM      9  C   UNL     1      45.646   5.446  12.025  0.00  0.00    +0.000 A 
ATOM     10  C   UNL     1      46.448   6.397  11.366  0.00  0.00    +0.000 A 
BRANCH   2  12
ATOM     11  C   UNL     1      49.776   7.701  11.547  0.00  0.00    +0.000 C 
ATOM     12  O   UNL     1      48.379   7.716  11.260  0.00  0.00    +0.000 OA
ENDBRANCH   2  12
ENDBRANCH   1   8
BRANCH   1  13
ATOM     13  C   UNL     1      44.595   3.999   9.325  0.00  0.00    +0.000 A 
ATOM     14  C   UNL     1      44.541   2.602   9.400  0.00  0.00    +0.000 A 
ATOM     15  C   UNL     1      45.397   1.819   8.625  0.00  0.00    +0.000 A 
ATOM     16  C   UNL     1      46.328   2.416   7.766  0.00  0.00    +0.000 A 
ATOM     17  C   UNL     1      46.290   3.809   7.597  0.00  0.00    +0.000 A 
ATOM     18  C   UNL     1      45.432   4.592   8.369  0.00  0.00    +0.000 A 
BRANCH  16  19
ATOM     19  C   UNL     1      47.420   1.569   7.143  0.00  0.00    +0.000 C 
ATOM     20  C   UNL     1      47.759   2.073   5.736  0.00  0.00    +0.000 C 
BRANCH  19  21
ATOM     21  N   UNL     1      47.071   0.151   7.107  0.00  0.00    +0.000 NA
ATOM     22  H   UNL     1      46.323  -0.033   7.771  0.00  0.00    +0.000 HD
ATOM     23  H   UNL     1      47.874  -0.388   7.426  0.00  0.00    +0.000 HD
ENDBRANCH  19  21
ENDBRANCH  16  19
ENDBRANCH   1  13
TORSDOF 5
ENDMDL
MODEL 4
REMARK VINA RESULT:    -6.864      2.738      6.450
REMARK INTER + INTRA:          -9.409
REMARK INTER:                  -8.885
REMARK INTRA:                  -0.524
REMARK UNBOUND:                -0.740
REMARK  Name = 
REMARK  7 active torsions:
REMARK  status: ('A' for Active; 'I' for Inactive)
REMARK    1  A    between atoms: C_1  and  O_2
REMARK    2  A    between atoms: O_2  and  C_3
REMARK    3  A    between atoms: N_9  and  C_10
REMARK    4  A    between atoms: C_10  and  C_11
REMARK    5  A    between atoms: C_14  and  C_15
REMARK    6  A    between atoms: C_15  and  C_16
REMARK    7  A    between atoms: C_15  and  N_17
REMARK                            x       y       z     vdW  Elec       q    Type
REMARK                         _______ _______ _______ _____ _____    ______ ____
ROOT
ATOM      1  C   UNL     1      43.995   6.438  11.303  0.00  0.00    +0.000 C 
ENDROOT
BRANCH   1   8
ATOM      2  C   UNL     1      45.670   3.685   8.049  0.00  0.00    +0.000 A 
ATOM      3  C   UNL     1      45.308   2.352   8.230  0.00  0.00    +0.000 A 
ATOM      4  C   UNL     1      44.579   1.959   9.357  0.00  0.00    +0.000 A 
ATOM      5  C   UNL     1      44.190   2.918  10.309  0.00  0.00    +0.000 A 
ATOM      6  C   UNL     1      43.461   2.849  11.523  0.00  0.00    +0.000 A 
ATOM      7  C   UNL     1      43.357   4.126  12.023  0.00  0.00    +0.000 A 
ATOM      8  N   UNL     1      44.002   4.980  11.158  0.00  0.00    +0.000 N 
ATOM      9  C   UNL     1      44.551   4.259  10.115  0.00  0.00    +0.000 A 
ATOM     10  C   UNL     1      45.325   4.652   9.007  0.00  0.00    +0.000 A 
BRANCH   2  12
ATOM     11  C   UNL     1      46.766   3.165   6.029  0.00  0.00    +0.000 C 
ATOM     12  O   UNL     1      46.385   4.157   6.980  0.00  0.00    +0.000 OA
ENDBRANCH   2  12
ENDBRANCH   1   8
BRANCH   1  13
ATOM     13  C   UNL     1      45.278   6.927  11.925  0.00  0.00    +0.000 A 
ATOM     14  C   UNL     1      45.485   8.295  12.138  0.00  0.00    +0.000 A 
ATOM     15  C   UNL     1      46.746   8.771  12.501  0.00  0.00    +0.000 A 
ATOM     16  C   UNL     1      47.825   7.890  12.649  0.00  0.00    +0.000 A 
ATOM     17  C   UNL     1      47.584   6.510  12.562  0.00  0.00    +0.000 A 
ATOM     18  C   UNL     1      46.322   6.034  12.203  0.00  0.00    +0.000 A 
BRANCH  16  19
ATOM     19  C   UNL     1      49.230   8.445  12.776  0.00  0.00    +0.000 C 
ATOM     20  C   UNL     1      49.577   9.322  11.568  0.00  0.00    +0.000 C 
BRANCH  19  21
ATOM     21  N   UNL     1      50.230   7.394  12.947  0.00  0.00    +0.000 NA
ATOM     22  H   UNL     1      49.773   6.485  12.945  0.00  0.00    +0.000 HD
ATOM     23  H   UNL     1      50.654   7.497  13.867  0.00  0.00    +0.000 HD
ENDBRANCH  19  21
ENDBRANCH  16  19
ENDBRANCH   1  13
TORSDOF 5
ENDMDL
MODEL 5
REMARK VINA RESULT:    -6.553      1.178      1.726
REMARK INTER + INTRA:          -9.017
REMARK INTER:                  -8.385
REMARK INTRA:                  -0.632
REMARK UNBOUND:                -0.740
REMARK  Name = 
REMARK  7 active torsions:
REMARK  status: ('A' for Active; 'I' for Inactive)
REMARK    1  A    between atoms: C_1  and  O_2
REMARK    2  A    between atoms: O_2  and  C_3
REMARK    3  A    between atoms: N_9  and  C_10
REMARK    4  A    between atoms: C_10  and  C_11
REMARK    5  A    between atoms: C_14  and  C_15
REMARK    6  A    between atoms: C_15  and  C_16
REMARK    7  A    between atoms: C_15  and  N_17
REMARK                            x       y       z     vdW  Elec       q    Type
REMARK                         _______ _______ _______ _____ _____    ______ ____
ROOT
ATOM      1  C   UNL     1      43.904   5.023  11.037  0.00  0.00    +0.000 C 
ENDROOT
BRANCH   1   8
ATOM      2  C   UNL     1      47.335   6.122  13.863  0.00  0.00    +0.000 A 
ATOM      3  C   UNL     1      47.480   7.498  14.029  0.00  0.00    +0.000 A 
ATOM      4  C   UNL     1      46.679   8.389  13.307  0.00  0.00    +0.000 A 
ATOM      5  C   UNL     1      45.705   7.896  12.421  0.00  0.00    +0.000 A 
ATOM      6  C   UNL     1      44.755   8.516  11.571  0.00  0.00    +0.000 A 
ATOM      7  C   UNL     1      44.034   7.522  10.952  0.00  0.00    +0.000 A 
ATOM      8  N   UNL     1      44.512   6.308  11.391  0.00  0.00    +0.000 N 
ATOM      9  C   UNL     1      45.560   6.510  12.268  0.00  0.00    +0.000 A 
ATOM     10  C   UNL     1      46.396   5.609  12.955  0.00  0.00    +0.000 A 
BRANCH   2  12
ATOM     11  C   UNL     1      47.353   4.404  15.477  0.00  0.00    +0.000 C 
ATOM     12  O   UNL     1      48.078   5.179  14.524  0.00  0.00    +0.000 OA
ENDBRANCH   2  12
ENDBRANCH   1   8
BRANCH   1  13
ATOM     13  C   UNL     1      44.759   4.273  10.048  0.00  0.00    +0.000 A 
ATOM     14  C   UNL     1      45.493   4.966   9.078  0.00  0.00    +0.000 A 
ATOM     15  C   UNL     1      46.103   4.279   8.028  0.00  0.00    +0.000 A 
ATOM     16  C   UNL     1      45.984   2.887   7.923  0.00  0.00    +0.000 A 
ATOM     17  C   UNL     1      45.360   2.185   8.965  0.00  0.00    +0.000 A 
ATOM     18  C   UNL     1      44.753   2.871  10.017  0.00  0.00    +0.000 A 
BRANCH  16  19
ATOM     19  C   UNL     1      46.418   2.195   6.646  0.00  0.00    +0.000 C 
ATOM     20  C   UNL     1      47.369   1.033   6.955  0.00  0.00    +0.000 C 
BRANCH  19  21
ATOM     21  N   UNL     1      47.032   3.117   5.694  0.00  0.00    +0.000 NA
ATOM     22  H   UNL     1      48.020   2.897   5.595  0.00  0.00    +0.000 HD
ATOM     23  H   UNL     1      46.987   4.058   6.081  0.00  0.00    +0.000 HD
ENDBRANCH  19  21
ENDBRANCH  16  19
ENDBRANCH   1  13
TORSDOF 5
ENDMDL
MODEL 6
REMARK VINA RESULT:    -6.137      2.855      4.478
REMARK INTER + INTRA:          -8.491
REMARK INTER:                  -8.039
REMARK INTRA:                  -0.452
REMARK UNBOUND:                -0.740
REMARK  Name = 
REMARK  7 active torsions:
REMARK  status: ('A' for Active; 'I' for Inactive)
REMARK    1  A    between atoms: C_1  and  O_2
REMARK    2  A    between atoms: O_2  and  C_3
REMARK    3  A    between atoms: N_9  and  C_10
REMARK    4  A    between atoms: C_10  and  C_11
REMARK    5  A    between atoms: C_14  and  C_15
REMARK    6  A    between atoms: C_15  and  C_16
REMARK    7  A    between atoms: C_15  and  N_17
REMARK                            x       y       z     vdW  Elec       q    Type
REMARK                         _______ _______ _______ _____ _____    ______ ____
ROOT
ATOM      1  C   UNL     1      46.160   5.781  13.289  0.00  0.00    +0.000 C 
ENDROOT
BRANCH   1   8
ATOM      2  C   UNL     1      45.519  10.166  12.136  0.00  0.00    +0.000 A 
ATOM      3  C   UNL     1      46.698  10.803  11.755  0.00  0.00    +0.000 A 
ATOM      4  C   UNL     1      47.924  10.132  11.824  0.00  0.00    +0.000 A 
ATOM      5  C   UNL     1      47.967   8.797  12.265  0.00  0.00    +0.000 A 
ATOM      6  C   UNL     1      49.017   7.860  12.439  0.00  0.00    +0.000 A 
ATOM      7  C   UNL     1      48.459   6.680  12.871  0.00  0.00    +0.000 A 
ATOM      8  N   UNL     1      47.098   6.860  12.972  0.00  0.00    +0.000 N 
ATOM      9  C   UNL     1      46.775   8.161  12.638  0.00  0.00    +0.000 A 
ATOM     10  C   UNL     1      45.545   8.847  12.615  0.00  0.00    +0.000 A 
BRANCH   2  12
ATOM     11  C   UNL     1      43.445  10.322  11.028  0.00  0.00    +0.000 C 
ATOM     12  O   UNL     1      44.278  10.747  12.105  0.00  0.00    +0.000 OA
ENDBRANCH   2  12
ENDBRANCH   1   8
BRANCH   1  13
ATOM     13  C   UNL     1      45.627   5.139  12.034  0.00  0.00    +0.000 A 
ATOM     14  C   UNL     1      45.172   3.816  12.054  0.00  0.00    +0.000 A 
ATOM     15  C   UNL     1      44.890   3.147  10.862  0.00  0.00    +0.000 A 
ATOM     16  C   UNL     1      45.065   3.786   9.627  0.00  0.00    +0.000 A 
ATOM     17  C   UNL     1      45.394   5.150   9.617  0.00  0.00    +0.000 A 
ATOM     18  C   UNL     1      45.673   5.820  10.809  0.00  0.00    +0.000 A 
BRANCH  16  19
ATOM     19  C   UNL     1      45.014   2.970   8.350  0.00  0.00    +0.000 C 
ATOM     20  C   UNL     1      45.631   1.585   8.568  0.00  0.00    +0.000 C 
BRANCH  19  21
ATOM     21  N   UNL     1      45.665   3.648   7.232  0.00  0.00    +0.000 NA
ATOM     22  H   UNL     1      46.630   3.859   7.475  0.00  0.00    +0.000 HD
ATOM     23  H   UNL     1      45.205   4.545   7.086  0.00  0.00    +0.000 HD
ENDBRANCH  19  21
ENDBRANCH  16  19
ENDBRANCH   1  13
TORSDOF 5
ENDMDL
MODEL 7
REMARK VINA RESULT:    -5.631      3.183      4.267
REMARK INTER + INTRA:          -7.852
REMARK INTER:                  -7.273
REMARK INTRA:                  -0.579
REMARK UNBOUND:                -0.740
REMARK  Name = 
REMARK  7 active torsions:
REMARK  status: ('A' for Active; 'I' for Inactive)
REMARK    1  A    between atoms: C_1  and  O_2
REMARK    2  A    between atoms: O_2  and  C_3
REMARK    3  A    between atoms: N_9  and  C_10
REMARK    4  A    between atoms: C_10  and  C_11
REMARK    5  A    between atoms: C_14  and  C_15
REMARK    6  A    between atoms: C_15  and  C_16
REMARK    7  A    between atoms: C_15  and  N_17
REMARK                            x       y       z     vdW  Elec       q    Type
REMARK                         _______ _______ _______ _____ _____    ______ ____
ROOT
ATOM      1  C   UNL     1      46.691   6.260  12.915  0.00  0.00    +0.000 C 
ENDROOT
BRANCH   1   8
ATOM      2  C   UNL     1      49.943   9.146  11.478  0.00  0.00    +0.000 A 
ATOM      3  C   UNL     1      49.510  10.469  11.431  0.00  0.00    +0.000 A 
ATOM      4  C   UNL     1      48.181  10.794  11.727  0.00  0.00    +0.000 A 
ATOM      5  C   UNL     1      47.277   9.780  12.092  0.00  0.00    +0.000 A 
ATOM      6  C   UNL     1      45.905   9.778  12.448  0.00  0.00    +0.000 A 
ATOM      7  C   UNL     1      45.551   8.482  12.742  0.00  0.00    +0.000 A 
ATOM      8  N   UNL     1      46.660   7.685  12.576  0.00  0.00    +0.000 N 
ATOM      9  C   UNL     1      47.724   8.453  12.144  0.00  0.00    +0.000 A 
ATOM     10  C   UNL     1      49.048   8.115  11.802  0.00  0.00    +0.000 A 
BRANCH   2  12
ATOM     11  C   UNL     1      51.324   7.436  10.626  0.00  0.00    +0.000 C 
ATOM     12  O   UNL     1      51.222   8.738  11.200  0.00  0.00    +0.000 OA
ENDBRANCH   2  12
ENDBRANCH   1   8
BRANCH   1  13
ATOM     13  C   UNL     1      45.916   5.446  11.912  0.00  0.00    +0.000 A 
ATOM     14  C   UNL     1      45.388   4.199  12.268  0.00  0.00    +0.000 A 
ATOM     15  C   UNL     1      44.868   3.347  11.293  0.00  0.00    +0.000 A 
ATOM     16  C   UNL     1      44.873   3.722   9.943  0.00  0.00    +0.000 A 
ATOM     17  C   UNL     1      45.281   5.021   9.607  0.00  0.00    +0.000 A 
ATOM     18  C   UNL     1      45.798   5.875  10.582  0.00  0.00    +0.000 A 
BRANCH  16  19
ATOM     19  C   UNL     1      44.557   2.688   8.880  0.00  0.00    +0.000 C 
ATOM     20  C   UNL     1      45.711   1.689   8.736  0.00  0.00    +0.000 C 
BRANCH  19  21
ATOM     21  N   UNL     1      44.244   3.295   7.589  0.00  0.00    +0.000 NA
ATOM     22  H   UNL     1      43.431   3.898   7.683  0.00  0.00    +0.000 HD
ATOM     23  H   UNL     1      43.978   2.557   6.940  0.00  0.00    +0.000 HD
ENDBRANCH  19  21
ENDBRANCH  16  19
ENDBRANCH   1  13
TORSDOF 5
ENDMDL
MODEL 8
REMARK VINA RESULT:    -5.572      2.706      4.422
REMARK INTER + INTRA:          -7.778
REMARK INTER:                  -7.064
REMARK INTRA:                  -0.713
REMARK UNBOUND:                -0.740
REMARK  Name = 
REMARK  7 active torsions:
REMARK  status: ('A' for Active; 'I' for Inactive)
REMARK    1  A    between atoms: C_1  and  O_2
REMARK    2  A    between atoms: O_2  and  C_3
REMARK    3  A    between atoms: N_9  and  C_10
REMARK    4  A    between atoms: C_10  and  C_11
REMARK    5  A    between atoms: C_14  and  C_15
REMARK    6  A    between atoms: C_15  and  C_16
REMARK    7  A    between atoms: C_15  and  N_17
REMARK                            x       y       z     vdW  Elec       q    Type
REMARK                         _______ _______ _______ _____ _____    ______ ____
ROOT
ATOM      1  C   UNL     1      46.081   8.058  12.975  0.00  0.00    +0.000 C 
ENDROOT
BRANCH   1   8
ATOM      2  C   UNL     1      49.943   7.045  15.218  0.00  0.00    +0.000 A 
ATOM      3  C   UNL     1      51.026   7.818  14.807  0.00  0.00    +0.000 A 
ATOM      4  C   UNL     1      50.890   8.730  13.754  0.00  0.00    +0.000 A 
ATOM      5  C   UNL     1      49.646   8.883  13.116  0.00  0.00    +0.000 A 
ATOM      6  C   UNL     1      49.189   9.702  12.053  0.00  0.00    +0.000 A 
ATOM      7  C   UNL     1      47.850   9.446  11.873  0.00  0.00    +0.000 A 
ATOM      8  N   UNL     1      47.467   8.493  12.790  0.00  0.00    +0.000 N 
ATOM      9  C   UNL     1      48.560   8.106  13.542  0.00  0.00    +0.000 A 
ATOM     10  C   UNL     1      48.703   7.153  14.569  0.00  0.00    +0.000 A 
BRANCH   2  12
ATOM     11  C   UNL     1      48.721   5.584  16.606  0.00  0.00    +0.000 C 
ATOM     12  O   UNL     1      49.987   6.126  16.234  0.00  0.00    +0.000 OA
ENDBRANCH   2  12
ENDBRANCH   1   8
BRANCH   1  13
ATOM     13  C   UNL     1      45.870   6.669  12.428  0.00  0.00    +0.000 A 
ATOM     14  C   UNL     1      45.677   6.471  11.056  0.00  0.00    +0.000 A 
ATOM     15  C   UNL     1      45.262   5.230  10.573  0.00  0.00    +0.000 A 
ATOM     16  C   UNL     1      45.024   4.165  11.452  0.00  0.00    +0.000 A 
ATOM     17  C   UNL     1      45.344   4.330  12.808  0.00  0.00    +0.000 A 
ATOM     18  C   UNL     1      45.763   5.570  13.292  0.00  0.00    +0.000 A 
BRANCH  16  19
ATOM     19  C   UNL     1      44.323   2.920  10.946  0.00  0.00    +0.000 C 
ATOM     20  C   UNL     1      44.391   2.844   9.417  0.00  0.00    +0.000 C 
BRANCH  19  21
ATOM     21  N   UNL     1      42.936   2.840  11.399  0.00  0.00    +0.000 NA
ATOM     22  H   UNL     1      42.333   3.319  10.735  0.00  0.00    +0.000 HD
ATOM     23  H   UNL     1      42.853   3.349  12.277  0.00  0.00    +0.000 HD
ENDBRANCH  19  21
ENDBRANCH  16  19
ENDBRANCH   1  13
TORSDOF 5
ENDMDL
MODEL 9
REMARK VINA RESULT:    -5.422      3.347      5.115
REMARK INTER + INTRA:          -7.588
REMARK INTER:                  -6.877
REMARK INTRA:                  -0.712
REMARK UNBOUND:                -0.740
REMARK  Name = 
REMARK  7 active torsions:
REMARK  status: ('A' for Active; 'I' for Inactive)
REMARK    1  A    between atoms: C_1  and  O_2
REMARK    2  A    between atoms: O_2  and  C_3
REMARK    3  A    between atoms: N_9  and  C_10
REMARK    4  A    between atoms: C_10  and  C_11
REMARK    5  A    between atoms: C_14  and  C_15
REMARK    6  A    between atoms: C_15  and  C_16
REMARK    7  A    between atoms: C_15  and  N_17
REMARK                            x       y       z     vdW  Elec       q    Type
REMARK                         _______ _______ _______ _____ _____    ______ ____
ROOT
ATOM      1  C   UNL     1      48.639   6.485  13.360  0.00  0.00    +0.000 C 
ENDROOT
BRANCH   1   8
ATOM      2  C   UNL     1      48.503   5.393  17.805  0.00  0.00    +0.000 A 
ATOM      3  C   UNL     1      48.452   6.511  18.635  0.00  0.00    +0.000 A 
ATOM      4  C   UNL     1      48.523   7.800  18.098  0.00  0.00    +0.000 A 
ATOM      5  C   UNL     1      48.630   7.974  16.706  0.00  0.00    +0.000 A 
ATOM      6  C   UNL     1      48.714   9.114  15.868  0.00  0.00    +0.000 A 
ATOM      7  C   UNL     1      48.768   8.675  14.566  0.00  0.00    +0.000 A 
ATOM      8  N   UNL     1      48.723   7.300  14.574  0.00  0.00    +0.000 N 
ATOM      9  C   UNL     1      48.672   6.844  15.878  0.00  0.00    +0.000 A 
ATOM     10  C   UNL     1      48.648   5.543  16.417  0.00  0.00    +0.000 A 
BRANCH   2  12
ATOM     11  C   UNL     1      47.556   3.255  17.512  0.00  0.00    +0.000 C 
ATOM     12  O   UNL     1      48.443   4.097  18.246  0.00  0.00    +0.000 OA
ENDBRANCH   2  12
ENDBRANCH   1   8
BRANCH   1  13
ATOM     13  C   UNL     1      47.204   6.220  12.982  0.00  0.00    +0.000 A 
ATOM     14  C   UNL     1      46.485   5.194  13.605  0.00  0.00    +0.000 A 
ATOM     15  C   UNL     1      45.242   4.799  13.109  0.00  0.00    +0.000 A 
ATOM     16  C   UNL     1      44.697   5.419  11.977  0.00  0.00    +0.000 A 
ATOM     17  C   UNL     1      45.358   6.532  11.436  0.00  0.00    +0.000 A 
ATOM     18  C   UNL     1      46.600   6.928  11.934  0.00  0.00    +0.000 A 
BRANCH  16  19
ATOM     19  C   UNL     1      43.488   4.805  11.299  0.00  0.00    +0.000 C 
ATOM     20  C   UNL     1      43.431   3.295  11.555  0.00  0.00    +0.000 C 
BRANCH  19  21
ATOM     21  N   UNL     1      43.456   5.080   9.864  0.00  0.00    +0.000 NA
ATOM     22  H   UNL     1      43.052   4.285   9.374  0.00  0.00    +0.000 HD
ATOM     23  H   UNL     1      44.414   5.164   9.529  0.00  0.00    +0.000 HD
ENDBRANCH  19  21
ENDBRANCH  16  19
ENDBRANCH   1  13
TORSDOF 5
ENDMDL
