MODEL 1
REMARK VINA RESULT:    -8.083      0.000      0.000
REMARK INTER + INTRA:          -9.927
REMARK INTER:                  -9.500
REMARK INTRA:                  -0.427
REMARK UNBOUND:                -0.427
REMARK  Name = 
REMARK  3 active torsions:
REMARK  status: ('A' for Active; 'I' for Inactive)
REMARK    1  A    between atoms: C_2  and  C_4
REMARK    2  A    between atoms: N_8  and  C_9
REMARK    3  A    between atoms: C_9  and  C_10
REMARK                            x       y       z     vdW  Elec       q    Type
REMARK                         _______ _______ _______ _____ _____    ______ ____
ROOT
ATOM      1  C   UNL     1      46.470   2.698   7.486  0.00  0.00    +0.000 A 
ATOM      2  C   UNL     1      45.999   1.777   8.387  0.00  0.00    +0.000 A 
ATOM      3  N   UNL     1      45.205   2.096   9.431  0.00  0.00    +0.000 NA
ATOM      4  C   UNL     1      44.896   3.394   9.599  0.00  0.00    +0.000 A 
ATOM      5  N   UNL     1      43.958   3.643  10.600  0.00  0.00    +0.000 N 
ATOM      6  N   UNL     1      45.372   4.375   8.814  0.00  0.00    +0.000 NA
ATOM      7  C   UNL     1      46.150   4.006   7.768  0.00  0.00    +0.000 A 
ATOM      8  H   UNL     1      43.866   2.778  11.119  0.00  0.00    +0.000 HD
ENDROOT
BRANCH   1  10
ATOM      9  N   UNL     1      47.175   3.195   5.220  0.00  0.00    +0.000 N 
ATOM     10  C   UNL     1      47.251   2.345   6.292  0.00  0.00    +0.000 C 
ATOM     11  O   UNL     1      47.978   1.362   6.279  0.00  0.00    +0.000 OA
ATOM     12  H   UNL     1      47.812   3.005   4.454  0.00  0.00    +0.000 HD
ATOM     13  H   UNL     1      46.809   4.133   5.281  0.00  0.00    +0.000 HD
ENDBRANCH   1  10
BRANCH   5  14
ATOM     14  C   UNL     1      43.918   4.894  11.363  0.00  0.00    +0.000 C 
ATOM     15  C   UNL     1      42.616   5.158  12.111  0.00  0.00    +0.000 C 
ATOM     16  C   UNL     1      43.018   6.056  10.988  0.00  0.00    +0.000 C 
BRANCH  14  17
ATOM     17  C   UNL     1      45.226   5.229  12.074  0.00  0.00    +0.000 A 
ATOM     18  C   UNL     1      45.995   6.345  11.688  0.00  0.00    +0.000 A 
ATOM     19  C   UNL     1      47.155   6.702  12.380  0.00  0.00    +0.000 A 
ATOM     20  C   UNL     1      47.567   5.936  13.462  0.00  0.00    +0.000 A 
ATOM     21  F   UNL     1      48.661   6.294  14.148  0.00  0.00    +0.000 F 
ATOM     22  C   UNL     1      46.857   4.809  13.848  0.00  0.00    +0.000 A 
ATOM     23  C   UNL     1      45.701   4.454  13.151  0.00  0.00    +0.000 A 
ENDBRANCH  14  17
ENDBRANCH   5  14
TORSDOF 3
ENDMDL
MODEL 2
REMARK VINA RESULT:    -6.989      4.019      6.590
REMARK INTER + INTRA:          -8.642
REMARK INTER:                  -8.608
REMARK INTRA:                  -0.034
REMARK UNBOUND:                -0.427
REMARK  Name = 
REMARK  3 active torsions:
REMARK  status: ('A' for Active; 'I' for Inactive)
REMARK    1  A    between atoms: C_2  and  C_4
REMARK    2  A    between atoms: N_8  and  C_9
REMARK    3  A    between atoms: C_9  and  C_10
REMARK                            x       y       z     vdW  Elec       q    Type
REMARK                         _______ _______ _______ _____ _____    ______ ____
ROOT
ATOM      1  C   UNL     1      47.730   5.574  14.836  0.00  0.00    +0.000 A 
ATOM      2  C   UNL     1      47.853   6.365  13.722  0.00  0.00    +0.000 A 
ATOM      3  N   UNL     1      47.039   6.270  12.649  0.00  0.00    +0.000 NA
ATOM      4  C   UNL     1      46.082   5.325  12.680  0.00  0.00    +0.000 A 
ATOM      5  N   UNL     1      45.184   5.372  11.615  0.00  0.00    +0.000 N 
ATOM      6  N   UNL     1      45.934   4.455  13.694  0.00  0.00    +0.000 NA
ATOM      7  C   UNL     1      46.762   4.600  14.757  0.00  0.00    +0.000 A 
ATOM      8  H   UNL     1      45.586   6.009  10.937  0.00  0.00    +0.000 HD
ENDROOT
BRANCH   1  10
ATOM      9  N   UNL     1      47.903   5.668  17.253  0.00  0.00    +0.000 N 
ATOM     10  C   UNL     1      48.548   5.739  16.046  0.00  0.00    +0.000 C 
ATOM     11  O   UNL     1      49.760   5.880  15.976  0.00  0.00    +0.000 OA
ATOM     12  H   UNL     1      48.495   5.659  18.075  0.00  0.00    +0.000 HD
ATOM     13  H   UNL     1      46.972   5.295  17.362  0.00  0.00    +0.000 HD
ENDBRANCH   1  10
BRANCH   5  14
ATOM     14  C   UNL     1      44.494   4.186  11.099  0.00  0.00    +0.000 C 
ATOM     15  C   UNL     1      42.975   4.207  11.234  0.00  0.00    +0.000 C 
ATOM     16  C   UNL     1      43.771   3.200  11.997  0.00  0.00    +0.000 C 
BRANCH  14  17
ATOM     17  C   UNL     1      45.085   3.641   9.802  0.00  0.00    +0.000 A 
ATOM     18  C   UNL     1      45.598   4.509   8.818  0.00  0.00    +0.000 A 
ATOM     19  C   UNL     1      46.207   4.017   7.662  0.00  0.00    +0.000 A 
ATOM     20  C   UNL     1      46.299   2.646   7.469  0.00  0.00    +0.000 A 
ATOM     21  F   UNL     1      46.911   2.170   6.376  0.00  0.00    +0.000 F 
ATOM     22  C   UNL     1      45.772   1.760   8.397  0.00  0.00    +0.000 A 
ATOM     23  C   UNL     1      45.160   2.256   9.549  0.00  0.00    +0.000 A 
ENDBRANCH  14  17
ENDBRANCH   5  14
TORSDOF 3
ENDMDL
MODEL 3
REMARK VINA RESULT:    -5.501      3.305      4.655
REMARK INTER + INTRA:          -6.892
REMARK INTER:                  -6.442
REMARK INTRA:                  -0.450
REMARK UNBOUND:                -0.427
REMARK  Name = 
REMARK  3 active torsions:
REMARK  status: ('A' for Active; 'I' for Inactive)
REMARK    1  A    between atoms: C_2  and  C_4
REMARK    2  A    between atoms: N_8  and  C_9
REMARK    3  A    between atoms: C_9  and  C_10
REMARK                            x       y       z     vdW  Elec       q    Type
REMARK                         _______ _______ _______ _____ _____    ______ ____
ROOT
ATOM      1  C   UNL     1      44.186   4.117  11.531  0.00  0.00    +0.000 A 
ATOM      2  C   UNL     1      43.943   4.560  12.806  0.00  0.00    +0.000 A 
ATOM      3  N   UNL     1      44.184   5.824  13.214  0.00  0.00    +0.000 NA
ATOM      4  C   UNL     1      44.720   6.671  12.317  0.00  0.00    +0.000 A 
ATOM      5  N   UNL     1      44.809   7.995  12.748  0.00  0.00    +0.000 N 
ATOM      6  N   UNL     1      45.062   6.309  11.069  0.00  0.00    +0.000 NA
ATOM      7  C   UNL     1      44.784   5.035  10.699  0.00  0.00    +0.000 A 
ATOM      8  H   UNL     1      44.621   7.978  13.744  0.00  0.00    +0.000 HD
ENDROOT
BRANCH   1  10
ATOM      9  N   UNL     1      44.577   2.258  10.025  0.00  0.00    +0.000 N 
ATOM     10  C   UNL     1      43.833   2.773  11.054  0.00  0.00    +0.000 C 
ATOM     11  O   UNL     1      42.947   2.123  11.590  0.00  0.00    +0.000 OA
ATOM     12  H   UNL     1      44.403   1.287   9.791  0.00  0.00    +0.000 HD
ATOM     13  H   UNL     1      45.466   2.639   9.739  0.00  0.00    +0.000 HD
ENDBRANCH   1  10
BRANCH   5  14
ATOM     14  C   UNL     1      45.839   8.922  12.272  0.00  0.00    +0.000 C 
ATOM     15  C   UNL     1      45.438  10.393  12.267  0.00  0.00    +0.000 C 
ATOM     16  C   UNL     1      45.710   9.697  10.975  0.00  0.00    +0.000 C 
BRANCH  14  17
ATOM     17  C   UNL     1      47.250   8.572  12.736  0.00  0.00    +0.000 A 
ATOM     18  C   UNL     1      48.224   8.127  11.821  0.00  0.00    +0.000 A 
ATOM     19  C   UNL     1      49.538   7.875  12.224  0.00  0.00    +0.000 A 
ATOM     20  C   UNL     1      49.891   8.054  13.554  0.00  0.00    +0.000 A 
ATOM     21  F   UNL     1      51.157   7.844  13.938  0.00  0.00    +0.000 F 
ATOM     22  C   UNL     1      48.950   8.455  14.492  0.00  0.00    +0.000 A 
ATOM     23  C   UNL     1      47.637   8.702  14.085  0.00  0.00    +0.000 A 
ENDBRANCH  14  17
ENDBRANCH   5  14
TORSDOF 3
ENDMDL
MODEL 4
REMARK VINA RESULT:    -5.399      5.482      7.617
REMARK INTER + INTRA:          -6.772
REMARK INTER:                  -6.413
REMARK INTRA:                  -0.359
REMARK UNBOUND:                -0.427
REMARK  Name = 
REMARK  3 active torsions:
REMARK  status: ('A' for Active; 'I' for Inactive)
REMARK    1  A    between atoms: C_2  and  C_4
REMARK    2  A    between atoms: N_8  and  C_9
REMARK    3  A    between atoms: C_9  and  C_10
REMARK                            x       y       z     vdW  Elec       q    Type
REMARK                         _______ _______ _______ _____ _____    ______ ____
ROOT
ATOM      1  C   UNL     1      47.302   5.737  13.441  0.00  0.00    +0.000 A 
ATOM      2  C   UNL     1      46.769   4.554  13.887  0.00  0.00    +0.000 A 
ATOM      3  N   UNL     1      46.940   4.087  15.143  0.00  0.00    +0.000 NA
ATOM      4  C   UNL     1      47.701   4.818  15.976  0.00  0.00    +0.000 A 
ATOM      5  N   UNL     1      47.720   4.365  17.295  0.00  0.00    +0.000 N 
ATOM      6  N   UNL     1      48.326   5.949  15.607  0.00  0.00    +0.000 NA
ATOM      7  C   UNL     1      48.110   6.389  14.343  0.00  0.00    +0.000 A 
ATOM      8  H   UNL     1      47.295   3.445  17.281  0.00  0.00    +0.000 HD
ENDROOT
BRANCH   1  10
ATOM      9  N   UNL     1      47.813   7.355  11.710  0.00  0.00    +0.000 N 
ATOM     10  C   UNL     1      47.037   6.298  12.110  0.00  0.00    +0.000 C 
ATOM     11  O   UNL     1      46.195   5.807  11.371  0.00  0.00    +0.000 OA
ATOM     12  H   UNL     1      47.703   7.650  10.747  0.00  0.00    +0.000 HD
ATOM     13  H   UNL     1      48.675   7.613  12.166  0.00  0.00    +0.000 HD
ENDBRANCH   1  10
BRANCH   5  14
ATOM     14  C   UNL     1      48.861   4.567  18.192  0.00  0.00    +0.000 C 
ATOM     15  C   UNL     1      48.504   4.803  19.656  0.00  0.00    +0.000 C 
ATOM     16  C   UNL     1      49.150   5.894  18.868  0.00  0.00    +0.000 C 
BRANCH  14  17
ATOM     17  C   UNL     1      50.056   3.668  17.888  0.00  0.00    +0.000 A 
ATOM     18  C   UNL     1      51.373   4.113  18.111  0.00  0.00    +0.000 A 
ATOM     19  C   UNL     1      52.469   3.271  17.906  0.00  0.00    +0.000 A 
ATOM     20  C   UNL     1      52.259   1.973  17.461  0.00  0.00    +0.000 A 
ATOM     21  F   UNL     1      53.305   1.153  17.294  0.00  0.00    +0.000 F 
ATOM     22  C   UNL     1      50.978   1.511  17.194  0.00  0.00    +0.000 A 
ATOM     23  C   UNL     1      49.887   2.357  17.397  0.00  0.00    +0.000 A 
ENDBRANCH  14  17
ENDBRANCH   5  14
TORSDOF 3
ENDMDL
MODEL 5
REMARK VINA RESULT:    -5.295      4.969      7.212
REMARK INTER + INTRA:          -6.650
REMARK INTER:                  -6.204
REMARK INTRA:                  -0.446
REMARK UNBOUND:                -0.427
REMARK  Name = 
REMARK  3 active torsions:
REMARK  status: ('A' for Active; 'I' for Inactive)
REMARK    1  A    between atoms: C_2  and  C_4
REMARK    2  A    between atoms: N_8  and  C_9
REMARK    3  A    between atoms: C_9  and  C_10
REMARK                            x       y       z     vdW  Elec       q    Type
REMARK                         _______ _______ _______ _____ _____    ______ ____
ROOT
ATOM      1  C   UNL     1      46.221   4.992  13.233  0.00  0.00    +0.000 A 
ATOM      2  C   UNL     1      46.635   6.250  12.873  0.00  0.00    +0.000 A 
ATOM      3  N   UNL     1      47.647   6.903  13.482  0.00  0.00    +0.000 NA
ATOM      4  C   UNL     1      48.249   6.285  14.514  0.00  0.00    +0.000 A 
ATOM      5  N   UNL     1      49.378   6.941  15.006  0.00  0.00    +0.000 N 
ATOM      6  N   UNL     1      47.864   5.088  14.986  0.00  0.00    +0.000 NA
ATOM      7  C   UNL     1      46.856   4.462  14.332  0.00  0.00    +0.000 A 
ATOM      8  H   UNL     1      49.373   7.862  14.584  0.00  0.00    +0.000 HD
ENDROOT
BRANCH   1  10
ATOM      9  N   UNL     1      45.273   2.869  12.546  0.00  0.00    +0.000 N 
ATOM     10  C   UNL     1      45.189   4.236  12.511  0.00  0.00    +0.000 C 
ATOM     11  O   UNL     1      44.265   4.806  11.948  0.00  0.00    +0.000 OA
ATOM     12  H   UNL     1      44.489   2.363  12.150  0.00  0.00    +0.000 HD
ATOM     13  H   UNL     1      45.848   2.367  13.205  0.00  0.00    +0.000 HD
ENDBRANCH   1  10
BRANCH   5  14
ATOM     14  C   UNL     1      49.814   6.841  16.402  0.00  0.00    +0.000 C 
ATOM     15  C   UNL     1      51.324   6.859  16.614  0.00  0.00    +0.000 C 
ATOM     16  C   UNL     1      50.546   5.630  16.949  0.00  0.00    +0.000 C 
BRANCH  14  17
ATOM     17  C   UNL     1      48.950   7.632  17.379  0.00  0.00    +0.000 A 
ATOM     18  C   UNL     1      48.646   8.988  17.145  0.00  0.00    +0.000 A 
ATOM     19  C   UNL     1      47.797   9.699  17.994  0.00  0.00    +0.000 A 
ATOM     20  C   UNL     1      47.248   9.064  19.100  0.00  0.00    +0.000 A 
ATOM     21  F   UNL     1      46.408   9.734  19.900  0.00  0.00    +0.000 F 
ATOM     22  C   UNL     1      47.554   7.741  19.385  0.00  0.00    +0.000 A 
ATOM     23  C   UNL     1      48.407   7.036  18.535  0.00  0.00    +0.000 A 
ENDBRANCH  14  17
ENDBRANCH   5  14
TORSDOF 3
ENDMDL
MODEL 6
REMARK VINA RESULT:    -5.293      5.801      7.568
REMARK INTER + INTRA:          -6.648
REMARK INTER:                  -6.161
REMARK INTRA:                  -0.487
REMARK UNBOUND:                -0.427
REMARK  Name = 
REMARK  3 active torsions:
REMARK  status: ('A' for Active; 'I' for Inactive)
REMARK    1  A    between atoms: C_2  and  C_4
REMARK    2  A    between atoms: N_8  and  C_9
REMARK    3  A    between atoms: C_9  and  C_10
REMARK                            x       y       z     vdW  Elec       q    Type
REMARK                         _______ _______ _______ _____ _____    ______ ____
ROOT
ATOM      1  C   UNL     1      49.426   7.374  12.926  0.00  0.00    +0.000 A 
ATOM      2  C   UNL     1      48.392   6.473  12.872  0.00  0.00    +0.000 A 
ATOM      3  N   UNL     1      47.855   5.890  13.964  0.00  0.00    +0.000 NA
ATOM      4  C   UNL     1      48.396   6.196  15.158  0.00  0.00    +0.000 A 
ATOM      5  N   UNL     1      47.708   5.681  16.256  0.00  0.00    +0.000 N 
ATOM      6  N   UNL     1      49.457   7.006  15.303  0.00  0.00    +0.000 NA
ATOM      7  C   UNL     1      49.951   7.583  14.180  0.00  0.00    +0.000 A 
ATOM      8  H   UNL     1      47.046   5.010  15.883  0.00  0.00    +0.000 HD
ENDROOT
BRANCH   1  10
ATOM      9  N   UNL     1      50.972   7.493  11.063  0.00  0.00    +0.000 N 
ATOM     10  C   UNL     1      49.948   8.087  11.753  0.00  0.00    +0.000 C 
ATOM     11  O   UNL     1      49.452   9.141  11.380  0.00  0.00    +0.000 OA
ATOM     12  H   UNL     1      51.236   7.934  10.189  0.00  0.00    +0.000 HD
ATOM     13  H   UNL     1      51.225   6.522  11.173  0.00  0.00    +0.000 HD
ENDBRANCH   1  10
BRANCH   5  14
ATOM     14  C   UNL     1      48.365   5.347  17.523  0.00  0.00    +0.000 C 
ATOM     15  C   UNL     1      47.468   5.409  18.756  0.00  0.00    +0.000 C 
ATOM     16  C   UNL     1      48.604   6.368  18.619  0.00  0.00    +0.000 C 
BRANCH  14  17
ATOM     17  C   UNL     1      49.355   4.190  17.423  0.00  0.00    +0.000 A 
ATOM     18  C   UNL     1      50.697   4.349  17.818  0.00  0.00    +0.000 A 
ATOM     19  C   UNL     1      51.592   3.277  17.799  0.00  0.00    +0.000 A 
ATOM     20  C   UNL     1      51.156   2.031  17.370  0.00  0.00    +0.000 A 
ATOM     21  F   UNL     1      52.002   0.993  17.381  0.00  0.00    +0.000 F 
ATOM     22  C   UNL     1      49.851   1.844  16.938  0.00  0.00    +0.000 A 
ATOM     23  C   UNL     1      48.961   2.920  16.955  0.00  0.00    +0.000 A 
ENDBRANCH  14  17
ENDBRANCH   5  14
TORSDOF 3
ENDMDL
MODEL 7
REMARK VINA RESULT:    -5.126      3.879      5.737
REMARK INTER + INTRA:          -6.452
REMARK INTER:                  -6.019
REMARK INTRA:                  -0.432
REMARK UNBOUND:                -0.427
REMARK  Name = 
REMARK  3 active torsions:
REMARK  status: ('A' for Active; 'I' for Inactive)
REMARK    1  A    between atoms: C_2  and  C_4
REMARK    2  A    between atoms: N_8  and  C_9
REMARK    3  A    between atoms: C_9  and  C_10
REMARK                            x       y       z     vdW  Elec       q    Type
REMARK                         _______ _______ _______ _____ _____    ______ ____
ROOT
ATOM      1  C   UNL     1      44.626   4.928  12.146  0.00  0.00    +0.000 A 
ATOM      2  C   UNL     1      44.176   6.204  12.373  0.00  0.00    +0.000 A 
ATOM      3  N   UNL     1      44.989   7.279  12.437  0.00  0.00    +0.000 NA
ATOM      4  C   UNL     1      46.310   7.065  12.300  0.00  0.00    +0.000 A 
ATOM      5  N   UNL     1      47.083   8.224  12.228  0.00  0.00    +0.000 N 
ATOM      6  N   UNL     1      46.850   5.843  12.151  0.00  0.00    +0.000 NA
ATOM      7  C   UNL     1      45.993   4.796  12.074  0.00  0.00    +0.000 A 
ATOM      8  H   UNL     1      46.471   8.985  12.498  0.00  0.00    +0.000 HD
ENDROOT
BRANCH   1  10
ATOM      9  N   UNL     1      44.064   2.625  12.657  0.00  0.00    +0.000 N 
ATOM     10  C   UNL     1      43.739   3.769  11.976  0.00  0.00    +0.000 C 
ATOM     11  O   UNL     1      42.725   3.843  11.297  0.00  0.00    +0.000 OA
ATOM     12  H   UNL     1      43.379   1.878  12.627  0.00  0.00    +0.000 HD
ATOM     13  H   UNL     1      44.724   2.603  13.419  0.00  0.00    +0.000 HD
ENDBRANCH   1  10
BRANCH   5  14
ATOM     14  C   UNL     1      48.475   8.284  12.680  0.00  0.00    +0.000 C 
ATOM     15  C   UNL     1      49.356   9.285  11.940  0.00  0.00    +0.000 C 
ATOM     16  C   UNL     1      49.638   7.824  11.822  0.00  0.00    +0.000 C 
BRANCH  14  17
ATOM     17  C   UNL     1      48.641   8.174  14.193  0.00  0.00    +0.000 A 
ATOM     18  C   UNL     1      48.225   9.216  15.045  0.00  0.00    +0.000 A 
ATOM     19  C   UNL     1      48.304   9.094  16.434  0.00  0.00    +0.000 A 
ATOM     20  C   UNL     1      48.815   7.928  16.989  0.00  0.00    +0.000 A 
ATOM     21  F   UNL     1      48.863   7.794  18.321  0.00  0.00    +0.000 F 
ATOM     22  C   UNL     1      49.269   6.895  16.181  0.00  0.00    +0.000 A 
ATOM     23  C   UNL     1      49.191   7.024  14.794  0.00  0.00    +0.000 A 
ENDBRANCH  14  17
ENDBRANCH   5  14
TORSDOF 3
ENDMDL
MODEL 8
REMARK VINA RESULT:    -5.124      3.966      5.825
REMARK INTER + INTRA:          -6.449
REMARK INTER:                  -6.461
REMARK INTRA:                   0.012
REMARK UNBOUND:                -0.427
REMARK  Name = 
REMARK  3 active torsions:
REMARK  status: ('A' for Active; 'I' for Inactive)
REMARK    1  A    between atoms: C_2  and  C_4
REMARK    2  A    between atoms: N_8  and  C_9
REMARK    3  A    between atoms: C_9  and  C_10
REMARK                            x       y       z     vdW  Elec       q    Type
REMARK                         _______ _______ _______ _____ _____    ______ ____
ROOT
ATOM      1  C   UNL     1      45.525   3.949  12.619  0.00  0.00    +0.000 A 
ATOM      2  C   UNL     1      46.626   3.538  13.327  0.00  0.00    +0.000 A 
ATOM      3  N   UNL     1      47.478   4.388  13.938  0.00  0.00    +0.000 NA
ATOM      4  C   UNL     1      47.237   5.705  13.809  0.00  0.00    +0.000 A 
ATOM      5  N   UNL     1      48.060   6.525  14.580  0.00  0.00    +0.000 N 
ATOM      6  N   UNL     1      46.229   6.203  13.072  0.00  0.00    +0.000 NA
ATOM      7  C   UNL     1      45.389   5.312  12.493  0.00  0.00    +0.000 A 
ATOM      8  H   UNL     1      48.804   5.930  14.925  0.00  0.00    +0.000 HD
ENDROOT
BRANCH   1  10
ATOM      9  N   UNL     1      44.737   2.638  10.738  0.00  0.00    +0.000 N 
ATOM     10  C   UNL     1      44.539   3.028  12.037  0.00  0.00    +0.000 C 
ATOM     11  O   UNL     1      43.613   2.589  12.703  0.00  0.00    +0.000 OA
ATOM     12  H   UNL     1      44.122   1.910  10.392  0.00  0.00    +0.000 HD
ATOM     13  H   UNL     1      45.611   2.761  10.250  0.00  0.00    +0.000 HD
ENDBRANCH   1  10
BRANCH   5  14
ATOM     14  C   UNL     1      48.416   7.892  14.189  0.00  0.00    +0.000 C 
ATOM     15  C   UNL     1      48.238   8.946  15.276  0.00  0.00    +0.000 C 
ATOM     16  C   UNL     1      47.390   9.000  14.048  0.00  0.00    +0.000 C 
BRANCH  14  17
ATOM     17  C   UNL     1      49.661   7.980  13.310  0.00  0.00    +0.000 A 
ATOM     18  C   UNL     1      49.596   7.693  11.932  0.00  0.00    +0.000 A 
ATOM     19  C   UNL     1      50.713   7.842  11.106  0.00  0.00    +0.000 A 
ATOM     20  C   UNL     1      51.915   8.271  11.653  0.00  0.00    +0.000 A 
ATOM     21  F   UNL     1      52.979   8.446  10.859  0.00  0.00    +0.000 F 
ATOM     22  C   UNL     1      52.026   8.528  13.012  0.00  0.00    +0.000 A 
ATOM     23  C   UNL     1      50.909   8.372  13.834  0.00  0.00    +0.000 A 
ENDBRANCH  14  17
ENDBRANCH   5  14
TORSDOF 3
ENDMDL
