MODEL 1
REMARK VINA RESULT:    -8.649      0.000      0.000
REMARK INTER + INTRA:         -13.133
REMARK INTER:                 -12.441
REMARK INTRA:                  -0.691
REMARK UNBOUND:                -0.691
REMARK  Name = 
REMARK  8 active torsions:
REMARK  status: ('A' for Active; 'I' for Inactive)
REMARK    1  A    between atoms: N_1  and  C_2
REMARK    2  A    between atoms: C_2  and  C_3
REMARK    3  A    between atoms: C_3  and  N_4
REMARK    4  A    between atoms: C_5  and  C_7
REMARK    5  A    between atoms: C_9  and  C_10
REMARK    6  A    between atoms: C_10  and  N_11
REMARK    7  A    between atoms: C_14  and  N_15
REMARK    8  A    between atoms: C_16  and  C_18
REMARK                            x       y       z     vdW  Elec       q    Type
REMARK                         _______ _______ _______ _____ _____    ______ ____
ROOT
ATOM      1  N   UNL     1      45.276   7.377  11.828  0.00  0.00    +0.000 NA
ATOM      2  C   UNL     1      45.433   8.447  12.827  0.00  0.00    +0.000 C 
ATOM      3  C   UNL     1      46.782   9.166  12.759  0.00  0.00    +0.000 C 
ATOM      4  C   UNL     1      47.954   8.195  12.884  0.00  0.00    +0.000 C 
ATOM      5  C   UNL     1      47.812   7.140  11.787  0.00  0.00    +0.000 C 
ATOM      6  C   UNL     1      46.437   6.456  11.811  0.00  0.00    +0.000 C 
ENDROOT
BRANCH   4   7
ATOM      7  N   UNL     1      47.999   7.594  14.216  0.00  0.00    +0.000 N 
ATOM      8  C   UNL     1      49.146   7.257  14.888  0.00  0.00    +0.000 C 
ATOM      9  O   UNL     1      50.264   7.543  14.467  0.00  0.00    +0.000 OA
ATOM     10  H   UNL     1      47.125   7.212  14.559  0.00  0.00    +0.000 HD
BRANCH   8  11
ATOM     11  C   UNL     1      48.967   6.555  16.175  0.00  0.00    +0.000 A 
ATOM     12  C   UNL     1      49.471   7.114  17.343  0.00  0.00    +0.000 A 
ATOM     13  S   UNL     1      49.220   6.157  18.733  0.00  0.00    +0.000 S 
ATOM     14  C   UNL     1      48.415   4.961  17.832  0.00  0.00    +0.000 A 
ATOM     15  N   UNL     1      47.934   3.838  18.434  0.00  0.00    +0.000 NA
ATOM     16  C   UNL     1      47.341   3.015  17.638  0.00  0.00    +0.000 A 
ATOM     17  N   UNL     1      47.185   3.209  16.292  0.00  0.00    +0.000 N 
ATOM     18  C   UNL     1      47.632   4.336  15.650  0.00  0.00    +0.000 A 
ATOM     19  O   UNL     1      47.411   4.500  14.456  0.00  0.00    +0.000 OA
ATOM     20  C   UNL     1      48.326   5.292  16.491  0.00  0.00    +0.000 A 
ATOM     21  H   UNL     1      46.689   2.539  15.725  0.00  0.00    +0.000 HD
ENDBRANCH   8  11
ENDBRANCH   4   7
BRANCH   1  22
ATOM     22  C   UNL     1      44.037   6.599  12.094  0.00  0.00    +0.000 C 
BRANCH  22  25
ATOM     23  C   UNL     1      44.617   3.567   9.798  0.00  0.00    +0.000 A 
ATOM     24  C   UNL     1      44.654   4.877  10.300  0.00  0.00    +0.000 A 
ATOM     25  C   UNL     1      44.014   5.192  11.510  0.00  0.00    +0.000 A 
ATOM     26  C   UNL     1      43.337   4.161  12.164  0.00  0.00    +0.000 A 
ATOM     27  C   UNL     1      43.320   2.895  11.579  0.00  0.00    +0.000 A 
ATOM     28  N   UNL     1      43.942   2.561  10.418  0.00  0.00    +0.000 NA
BRANCH  23  30
ATOM     29  N   UNL     1      46.089   2.079   8.446  0.00  0.00    +0.000 N 
ATOM     30  C   UNL     1      45.355   3.254   8.510  0.00  0.00    +0.000 C 
ATOM     31  O   UNL     1      45.281   4.026   7.559  0.00  0.00    +0.000 OA
ATOM     32  H   UNL     1      45.991   1.448   9.233  0.00  0.00    +0.000 HD
BRANCH  29  33
ATOM     33  C   UNL     1      46.675   1.576   7.195  0.00  0.00    +0.000 C 
BRANCH  33  34
ATOM     34  C   UNL     1      48.046   2.177   6.803  0.00  0.00    +0.000 C 
BRANCH  34  35
ATOM     35  N   UNL     1      48.452   1.836   5.426  0.00  0.00    +0.000 NA
ATOM     36  H   UNL     1      47.618   1.619   4.879  0.00  0.00    +0.000 HD
ATOM     37  H   UNL     1      48.994   0.971   5.438  0.00  0.00    +0.000 HD
ENDBRANCH  34  35
ENDBRANCH  33  34
ENDBRANCH  29  33
ENDBRANCH  23  30
ENDBRANCH  22  25
ENDBRANCH   1  22
TORSDOF 8
ENDMDL
MODEL 2
REMARK VINA RESULT:    -8.133      1.417      1.685
REMARK INTER + INTRA:         -12.390
REMARK INTER:                 -11.440
REMARK INTRA:                  -0.950
REMARK UNBOUND:                -0.691
REMARK  Name = 
REMARK  8 active torsions:
REMARK  status: ('A' for Active; 'I' for Inactive)
REMARK    1  A    between atoms: N_1  and  C_2
REMARK    2  A    between atoms: C_2  and  C_3
REMARK    3  A    between atoms: C_3  and  N_4
REMARK    4  A    between atoms: C_5  and  C_7
REMARK    5  A    between atoms: C_9  and  C_10
REMARK    6  A    between atoms: C_10  and  N_11
REMARK    7  A    between atoms: C_14  and  N_15
REMARK    8  A    between atoms: C_16  and  C_18
REMARK                            x       y       z     vdW  Elec       q    Type
REMARK                         _______ _______ _______ _____ _____    ______ ____
ROOT
ATOM      1  N   UNL     1      45.723   7.046  12.216  0.00  0.00    +0.000 NA
ATOM      2  C   UNL     1      45.707   8.385  12.829  0.00  0.00    +0.000 C 
ATOM      3  C   UNL     1      47.056   9.106  12.778  0.00  0.00    +0.000 C 
ATOM      4  C   UNL     1      48.170   8.282  13.417  0.00  0.00    +0.000 C 
ATOM      5  C   UNL     1      48.219   6.927  12.712  0.00  0.00    +0.000 C 
ATOM      6  C   UNL     1      46.854   6.222  12.706  0.00  0.00    +0.000 C 
ENDROOT
BRANCH   4   7
ATOM      7  N   UNL     1      47.959   8.139  14.857  0.00  0.00    +0.000 N 
ATOM      8  C   UNL     1      48.649   8.824  15.825  0.00  0.00    +0.000 C 
ATOM      9  O   UNL     1      49.445   9.721  15.556  0.00  0.00    +0.000 OA
ATOM     10  H   UNL     1      47.422   7.331  15.148  0.00  0.00    +0.000 HD
BRANCH   8  11
ATOM     11  C   UNL     1      48.361   8.446  17.224  0.00  0.00    +0.000 A 
ATOM     12  C   UNL     1      47.989   9.424  18.139  0.00  0.00    +0.000 A 
ATOM     13  S   UNL     1      47.736   8.831  19.719  0.00  0.00    +0.000 S 
ATOM     14  C   UNL     1      48.100   7.240  19.240  0.00  0.00    +0.000 A 
ATOM     15  N   UNL     1      48.071   6.217  20.137  0.00  0.00    +0.000 NA
ATOM     16  C   UNL     1      48.362   5.062  19.644  0.00  0.00    +0.000 A 
ATOM     17  N   UNL     1      48.681   4.834  18.332  0.00  0.00    +0.000 N 
ATOM     18  C   UNL     1      48.697   5.831  17.390  0.00  0.00    +0.000 A 
ATOM     19  O   UNL     1      48.922   5.572  16.214  0.00  0.00    +0.000 OA
ATOM     20  C   UNL     1      48.397   7.159  17.891  0.00  0.00    +0.000 A 
ATOM     21  H   UNL     1      48.875   3.902  17.999  0.00  0.00    +0.000 HD
ENDBRANCH   8  11
ENDBRANCH   4   7
BRANCH   1  22
ATOM     22  C   UNL     1      44.446   6.336  12.491  0.00  0.00    +0.000 C 
BRANCH  22  25
ATOM     23  C   UNL     1      44.711   3.511   9.894  0.00  0.00    +0.000 A 
ATOM     24  C   UNL     1      44.893   4.748  10.531  0.00  0.00    +0.000 A 
ATOM     25  C   UNL     1      44.268   5.011  11.761  0.00  0.00    +0.000 A 
ATOM     26  C   UNL     1      43.458   4.007  12.296  0.00  0.00    +0.000 A 
ATOM     27  C   UNL     1      43.303   2.820  11.580  0.00  0.00    +0.000 A 
ATOM     28  N   UNL     1      43.907   2.536  10.396  0.00  0.00    +0.000 NA
BRANCH  23  30
ATOM     29  N   UNL     1      46.151   2.065   8.464  0.00  0.00    +0.000 N 
ATOM     30  C   UNL     1      45.434   3.247   8.587  0.00  0.00    +0.000 C 
ATOM     31  O   UNL     1      45.366   4.062   7.672  0.00  0.00    +0.000 OA
ATOM     32  H   UNL     1      46.049   1.400   9.222  0.00  0.00    +0.000 HD
BRANCH  29  33
ATOM     33  C   UNL     1      46.720   1.611   7.186  0.00  0.00    +0.000 C 
BRANCH  33  34
ATOM     34  C   UNL     1      47.976   2.372   6.700  0.00  0.00    +0.000 C 
BRANCH  34  35
ATOM     35  N   UNL     1      48.551   1.806   5.464  0.00  0.00    +0.000 NA
ATOM     36  H   UNL     1      48.006   0.986   5.192  0.00  0.00    +0.000 HD
ATOM     37  H   UNL     1      49.487   1.448   5.660  0.00  0.00    +0.000 HD
ENDBRANCH  34  35
ENDBRANCH  33  34
ENDBRANCH  29  33
ENDBRANCH  23  30
ENDBRANCH  22  25
ENDBRANCH   1  22
TORSDOF 8
ENDMDL
MODEL 3
REMARK VINA RESULT:    -7.601      1.763      2.370
REMARK INTER + INTRA:         -11.624
REMARK INTER:                 -10.923
REMARK INTRA:                  -0.702
REMARK UNBOUND:                -0.691
REMARK  Name = 
REMARK  8 active torsions:
REMARK  status: ('A' for Active; 'I' for Inactive)
REMARK    1  A    between atoms: N_1  and  C_2
REMARK    2  A    between atoms: C_2  and  C_3
REMARK    3  A    between atoms: C_3  and  N_4
REMARK    4  A    between atoms: C_5  and  C_7
REMARK    5  A    between atoms: C_9  and  C_10
REMARK    6  A    between atoms: C_10  and  N_11
REMARK    7  A    between atoms: C_14  and  N_15
REMARK    8  A    between atoms: C_16  and  C_18
REMARK                            x       y       z     vdW  Elec       q    Type
REMARK                         _______ _______ _______ _____ _____    ______ ____
ROOT
ATOM      1  N   UNL     1      46.210   7.769  11.822  0.00  0.00    +0.000 NA
ATOM      2  C   UNL     1      46.323   8.780  12.887  0.00  0.00    +0.000 C 
ATOM      3  C   UNL     1      47.756   9.245  13.152  0.00  0.00    +0.000 C 
ATOM      4  C   UNL     1      48.686   8.078  13.475  0.00  0.00    +0.000 C 
ATOM      5  C   UNL     1      48.613   7.082  12.318  0.00  0.00    +0.000 C 
ATOM      6  C   UNL     1      47.170   6.655  12.007  0.00  0.00    +0.000 C 
ENDROOT
BRANCH   4   7
ATOM      7  N   UNL     1      48.330   7.459  14.751  0.00  0.00    +0.000 N 
ATOM      8  C   UNL     1      49.202   6.791  15.571  0.00  0.00    +0.000 C 
ATOM      9  O   UNL     1      50.411   6.752  15.355  0.00  0.00    +0.000 OA
ATOM     10  H   UNL     1      47.339   7.338  14.922  0.00  0.00    +0.000 HD
BRANCH   8  11
ATOM     11  C   UNL     1      48.613   6.140  16.759  0.00  0.00    +0.000 A 
ATOM     12  C   UNL     1      48.229   4.806  16.696  0.00  0.00    +0.000 A 
ATOM     13  S   UNL     1      47.527   4.219  18.136  0.00  0.00    +0.000 S 
ATOM     14  C   UNL     1      47.721   5.722  18.909  0.00  0.00    +0.000 A 
ATOM     15  N   UNL     1      47.312   5.905  20.194  0.00  0.00    +0.000 NA
ATOM     16  C   UNL     1      47.522   7.088  20.661  0.00  0.00    +0.000 A 
ATOM     17  N   UNL     1      48.103   8.110  19.960  0.00  0.00    +0.000 N 
ATOM     18  C   UNL     1      48.552   7.962  18.672  0.00  0.00    +0.000 A 
ATOM     19  O   UNL     1      49.128   8.883  18.104  0.00  0.00    +0.000 OA
ATOM     20  C   UNL     1      48.326   6.655  18.085  0.00  0.00    +0.000 A 
ATOM     21  H   UNL     1      48.264   9.009  20.388  0.00  0.00    +0.000 HD
ENDBRANCH   8  11
ENDBRANCH   4   7
BRANCH   1  22
ATOM     22  C   UNL     1      44.829   7.223  11.771  0.00  0.00    +0.000 C 
BRANCH  22  25
ATOM     23  C   UNL     1      44.882   3.685  10.261  0.00  0.00    +0.000 A 
ATOM     24  C   UNL     1      44.973   5.081  10.372  0.00  0.00    +0.000 A 
ATOM     25  C   UNL     1      44.733   5.712  11.604  0.00  0.00    +0.000 A 
ATOM     26  C   UNL     1      44.387   4.897  12.685  0.00  0.00    +0.000 A 
ATOM     27  C   UNL     1      44.285   3.521  12.479  0.00  0.00    +0.000 A 
ATOM     28  N   UNL     1      44.526   2.886  11.302  0.00  0.00    +0.000 NA
BRANCH  23  30
ATOM     29  N   UNL     1      45.969   3.740   8.019  0.00  0.00    +0.000 N 
ATOM     30  C   UNL     1      45.190   3.035   8.925  0.00  0.00    +0.000 C 
ATOM     31  O   UNL     1      44.762   1.912   8.677  0.00  0.00    +0.000 OA
ATOM     32  H   UNL     1      46.377   4.603   8.359  0.00  0.00    +0.000 HD
BRANCH  29  33
ATOM     33  C   UNL     1      46.496   3.137   6.786  0.00  0.00    +0.000 C 
BRANCH  33  34
ATOM     34  C   UNL     1      47.694   2.174   6.967  0.00  0.00    +0.000 C 
BRANCH  34  35
ATOM     35  N   UNL     1      48.409   1.901   5.705  0.00  0.00    +0.000 NA
ATOM     36  H   UNL     1      47.751   1.981   4.928  0.00  0.00    +0.000 HD
ATOM     37  H   UNL     1      48.714   0.926   5.694  0.00  0.00    +0.000 HD
ENDBRANCH  34  35
ENDBRANCH  33  34
ENDBRANCH  29  33
ENDBRANCH  23  30
ENDBRANCH  22  25
ENDBRANCH   1  22
TORSDOF 8
ENDMDL
MODEL 4
REMARK VINA RESULT:    -7.231      3.485      7.784
REMARK INTER + INTRA:         -11.093
REMARK INTER:                 -10.188
REMARK INTRA:                  -0.905
REMARK UNBOUND:                -0.691
REMARK  Name = 
REMARK  8 active torsions:
REMARK  status: ('A' for Active; 'I' for Inactive)
REMARK    1  A    between atoms: N_1  and  C_2
REMARK    2  A    between atoms: C_2  and  C_3
REMARK    3  A    between atoms: C_3  and  N_4
REMARK    4  A    between atoms: C_5  and  C_7
REMARK    5  A    between atoms: C_9  and  C_10
REMARK    6  A    between atoms: C_10  and  N_11
REMARK    7  A    between atoms: C_14  and  N_15
REMARK    8  A    between atoms: C_16  and  C_18
REMARK                            x       y       z     vdW  Elec       q    Type
REMARK                         _______ _______ _______ _____ _____    ______ ____
ROOT
ATOM      1  N   UNL     1      49.633   7.954  17.771  0.00  0.00    +0.000 NA
ATOM      2  C   UNL     1      50.211   7.452  16.512  0.00  0.00    +0.000 C 
ATOM      3  C   UNL     1      50.121   8.444  15.350  0.00  0.00    +0.000 C 
ATOM      4  C   UNL     1      48.685   8.895  15.092  0.00  0.00    +0.000 C 
ATOM      5  C   UNL     1      48.135   9.484  16.391  0.00  0.00    +0.000 C 
ATOM      6  C   UNL     1      48.276   8.517  17.576  0.00  0.00    +0.000 C 
ENDROOT
BRANCH   4   7
ATOM      7  N   UNL     1      47.865   7.786  14.607  0.00  0.00    +0.000 N 
ATOM      8  C   UNL     1      47.592   7.528  13.288  0.00  0.00    +0.000 C 
ATOM      9  O   UNL     1      48.119   8.156  12.372  0.00  0.00    +0.000 OA
ATOM     10  H   UNL     1      47.296   7.318  15.303  0.00  0.00    +0.000 HD
BRANCH   8  11
ATOM     11  C   UNL     1      46.646   6.426  13.019  0.00  0.00    +0.000 A 
ATOM     12  C   UNL     1      46.957   5.135  13.431  0.00  0.00    +0.000 A 
ATOM     13  S   UNL     1      45.783   3.972  13.005  0.00  0.00    +0.000 S 
ATOM     14  C   UNL     1      44.805   5.149  12.264  0.00  0.00    +0.000 A 
ATOM     15  N   UNL     1      43.622   4.810  11.681  0.00  0.00    +0.000 NA
ATOM     16  C   UNL     1      42.977   5.797  11.160  0.00  0.00    +0.000 A 
ATOM     17  N   UNL     1      43.405   7.097  11.167  0.00  0.00    +0.000 N 
ATOM     18  C   UNL     1      44.577   7.487  11.765  0.00  0.00    +0.000 A 
ATOM     19  O   UNL     1      44.890   8.671  11.807  0.00  0.00    +0.000 OA
ATOM     20  C   UNL     1      45.358   6.415  12.352  0.00  0.00    +0.000 A 
ATOM     21  H   UNL     1      42.844   7.831  10.765  0.00  0.00    +0.000 HD
ENDBRANCH   8  11
ENDBRANCH   4   7
BRANCH   1  22
ATOM     22  C   UNL     1      49.572   6.866  18.782  0.00  0.00    +0.000 C 
BRANCH  22  25
ATOM     23  C   UNL     1      49.352   3.272  17.429  0.00  0.00    +0.000 A 
ATOM     24  C   UNL     1      49.886   4.487  17.885  0.00  0.00    +0.000 A 
ATOM     25  C   UNL     1      49.035   5.535  18.273  0.00  0.00    +0.000 A 
ATOM     26  C   UNL     1      47.659   5.317  18.165  0.00  0.00    +0.000 A 
ATOM     27  C   UNL     1      47.213   4.092  17.669  0.00  0.00    +0.000 A 
ATOM     28  N   UNL     1      48.015   3.058  17.300  0.00  0.00    +0.000 NA
BRANCH  23  30
ATOM     29  N   UNL     1      51.338   1.853  17.932  0.00  0.00    +0.000 N 
ATOM     30  C   UNL     1      50.301   2.148  17.058  0.00  0.00    +0.000 C 
ATOM     31  O   UNL     1      50.133   1.522  16.016  0.00  0.00    +0.000 OA
ATOM     32  H   UNL     1      51.324   2.338  18.821  0.00  0.00    +0.000 HD
BRANCH  29  33
ATOM     33  C   UNL     1      52.191   0.665  17.780  0.00  0.00    +0.000 C 
BRANCH  33  34
ATOM     34  C   UNL     1      53.716   0.926  17.787  0.00  0.00    +0.000 C 
BRANCH  34  35
ATOM     35  N   UNL     1      54.356   0.569  19.068  0.00  0.00    +0.000 NA
ATOM     36  H   UNL     1      54.357  -0.447  19.166  0.00  0.00    +0.000 HD
ATOM     37  H   UNL     1      53.778   0.908  19.839  0.00  0.00    +0.000 HD
ENDBRANCH  34  35
ENDBRANCH  33  34
ENDBRANCH  29  33
ENDBRANCH  23  30
ENDBRANCH  22  25
ENDBRANCH   1  22
TORSDOF 8
ENDMDL
MODEL 5
REMARK VINA RESULT:    -7.215      3.778      7.734
REMARK INTER + INTRA:         -11.069
REMARK INTER:                 -10.035
REMARK INTRA:                  -1.034
REMARK UNBOUND:                -0.691
REMARK  Name = 
REMARK  8 active torsions:
REMARK  status: ('A' for Active; 'I' for Inactive)
REMARK    1  A    between atoms: N_1  and  C_2
REMARK    2  A    between atoms: C_2  and  C_3
REMARK    3  A    between atoms: C_3  and  N_4
REMARK    4  A    between atoms: C_5  and  C_7
REMARK    5  A    between atoms: C_9  and  C_10
REMARK    6  A    between atoms: C_10  and  N_11
REMARK    7  A    between atoms: C_14  and  N_15
REMARK    8  A    between atoms: C_16  and  C_18
REMARK                            x       y       z     vdW  Elec       q    Type
REMARK                         _______ _______ _______ _____ _____    ______ ____
ROOT
ATOM      1  N   UNL     1      49.170   6.639  18.086  0.00  0.00    +0.000 NA
ATOM      2  C   UNL     1      49.787   6.398  16.771  0.00  0.00    +0.000 C 
ATOM      3  C   UNL     1      50.115   7.677  15.997  0.00  0.00    +0.000 C 
ATOM      4  C   UNL     1      48.887   8.566  15.814  0.00  0.00    +0.000 C 
ATOM      5  C   UNL     1      48.312   8.866  17.198  0.00  0.00    +0.000 C 
ATOM      6  C   UNL     1      48.036   7.589  18.005  0.00  0.00    +0.000 C 
ENDROOT
BRANCH   4   7
ATOM      7  N   UNL     1      47.902   7.929  14.941  0.00  0.00    +0.000 N 
ATOM      8  C   UNL     1      47.792   8.144  13.591  0.00  0.00    +0.000 C 
ATOM      9  O   UNL     1      48.605   8.819  12.963  0.00  0.00    +0.000 OA
ATOM     10  H   UNL     1      47.127   7.473  15.407  0.00  0.00    +0.000 HD
BRANCH   8  11
ATOM     11  C   UNL     1      46.654   7.489  12.915  0.00  0.00    +0.000 A 
ATOM     12  C   UNL     1      45.767   8.250  12.164  0.00  0.00    +0.000 A 
ATOM     13  S   UNL     1      44.485   7.350  11.486  0.00  0.00    +0.000 S 
ATOM     14  C   UNL     1      45.071   5.903  12.160  0.00  0.00    +0.000 A 
ATOM     15  N   UNL     1      44.419   4.725  11.961  0.00  0.00    +0.000 NA
ATOM     16  C   UNL     1      44.971   3.704  12.521  0.00  0.00    +0.000 A 
ATOM     17  N   UNL     1      46.119   3.750  13.266  0.00  0.00    +0.000 N 
ATOM     18  C   UNL     1      46.822   4.911  13.471  0.00  0.00    +0.000 A 
ATOM     19  O   UNL     1      47.880   4.897  14.087  0.00  0.00    +0.000 OA
ATOM     20  C   UNL     1      46.237   6.099  12.880  0.00  0.00    +0.000 A 
ATOM     21  H   UNL     1      46.518   2.912  13.660  0.00  0.00    +0.000 HD
ENDBRANCH   8  11
ENDBRANCH   4   7
BRANCH   1  22
ATOM     22  C   UNL     1      48.696   5.359  18.677  0.00  0.00    +0.000 C 
BRANCH  22  25
ATOM     23  C   UNL     1      50.860   2.425  17.451  0.00  0.00    +0.000 A 
ATOM     24  C   UNL     1      50.467   3.593  18.121  0.00  0.00    +0.000 A 
ATOM     25  C   UNL     1      49.166   4.099  17.962  0.00  0.00    +0.000 A 
ATOM     26  C   UNL     1      48.308   3.405  17.105  0.00  0.00    +0.000 A 
ATOM     27  C   UNL     1      48.790   2.271  16.451  0.00  0.00    +0.000 A 
ATOM     28  N   UNL     1      50.039   1.754  16.599  0.00  0.00    +0.000 NA
BRANCH  23  30
ATOM     29  N   UNL     1      52.411   0.517  17.856  0.00  0.00    +0.000 N 
ATOM     30  C   UNL     1      52.259   1.885  17.679  0.00  0.00    +0.000 C 
ATOM     31  O   UNL     1      53.217   2.651  17.691  0.00  0.00    +0.000 OA
ATOM     32  H   UNL     1      51.582  -0.047  17.708  0.00  0.00    +0.000 HD
BRANCH  29  33
ATOM     33  C   UNL     1      53.727  -0.139  17.883  0.00  0.00    +0.000 C 
BRANCH  33  34
ATOM     34  C   UNL     1      54.495  -0.162  16.540  0.00  0.00    +0.000 C 
BRANCH  34  35
ATOM     35  N   UNL     1      54.125  -1.307  15.684  0.00  0.00    +0.000 NA
ATOM     36  H   UNL     1      53.169  -1.589  15.905  0.00  0.00    +0.000 HD
ATOM     37  H   UNL     1      54.702  -2.112  15.930  0.00  0.00    +0.000 HD
ENDBRANCH  34  35
ENDBRANCH  33  34
ENDBRANCH  29  33
ENDBRANCH  23  30
ENDBRANCH  22  25
ENDBRANCH   1  22
TORSDOF 8
ENDMDL
MODEL 6
REMARK VINA RESULT:    -7.128      3.917      5.735
REMARK INTER + INTRA:         -10.945
REMARK INTER:                  -9.981
REMARK INTRA:                  -0.964
REMARK UNBOUND:                -0.691
REMARK  Name = 
REMARK  8 active torsions:
REMARK  status: ('A' for Active; 'I' for Inactive)
REMARK    1  A    between atoms: N_1  and  C_2
REMARK    2  A    between atoms: C_2  and  C_3
REMARK    3  A    between atoms: C_3  and  N_4
REMARK    4  A    between atoms: C_5  and  C_7
REMARK    5  A    between atoms: C_9  and  C_10
REMARK    6  A    between atoms: C_10  and  N_11
REMARK    7  A    between atoms: C_14  and  N_15
REMARK    8  A    between atoms: C_16  and  C_18
REMARK                            x       y       z     vdW  Elec       q    Type
REMARK                         _______ _______ _______ _____ _____    ______ ____
ROOT
ATOM      1  N   UNL     1      46.249   7.185  12.691  0.00  0.00    +0.000 NA
ATOM      2  C   UNL     1      47.503   6.448  12.462  0.00  0.00    +0.000 C 
ATOM      3  C   UNL     1      48.551   6.653  13.558  0.00  0.00    +0.000 C 
ATOM      4  C   UNL     1      48.875   8.129  13.772  0.00  0.00    +0.000 C 
ATOM      5  C   UNL     1      47.569   8.858  14.086  0.00  0.00    +0.000 C 
ATOM      6  C   UNL     1      46.491   8.609  13.020  0.00  0.00    +0.000 C 
ENDROOT
BRANCH   4   7
ATOM      7  N   UNL     1      49.547   8.696  12.603  0.00  0.00    +0.000 N 
ATOM      8  C   UNL     1      50.906   8.784  12.443  0.00  0.00    +0.000 C 
ATOM      9  O   UNL     1      51.696   8.279  13.237  0.00  0.00    +0.000 OA
ATOM     10  H   UNL     1      48.965   9.245  11.981  0.00  0.00    +0.000 HD
BRANCH   8  11
ATOM     11  C   UNL     1      51.377   9.496  11.238  0.00  0.00    +0.000 A 
ATOM     12  C   UNL     1      51.090  10.846  11.078  0.00  0.00    +0.000 A 
ATOM     13  S   UNL     1      51.666  11.507   9.614  0.00  0.00    +0.000 S 
ATOM     14  C   UNL     1      52.335  10.017   9.139  0.00  0.00    +0.000 A 
ATOM     15  N   UNL     1      52.986   9.890   7.951  0.00  0.00    +0.000 NA
ATOM     16  C   UNL     1      53.448   8.710   7.716  0.00  0.00    +0.000 A 
ATOM     17  N   UNL     1      53.320   7.641   8.561  0.00  0.00    +0.000 N 
ATOM     18  C   UNL     1      52.694   7.731   9.779  0.00  0.00    +0.000 A 
ATOM     19  O   UNL     1      52.661   6.766  10.533  0.00  0.00    +0.000 OA
ATOM     20  C   UNL     1      52.134   9.032  10.090  0.00  0.00    +0.000 A 
ATOM     21  H   UNL     1      53.726   6.747   8.333  0.00  0.00    +0.000 HD
ENDBRANCH   8  11
ENDBRANCH   4   7
BRANCH   1  22
ATOM     22  C   UNL     1      45.374   7.101  11.492  0.00  0.00    +0.000 C 
BRANCH  22  25
ATOM     23  C   UNL     1      44.596   3.686   9.902  0.00  0.00    +0.000 A 
ATOM     24  C   UNL     1      45.166   4.950  10.116  0.00  0.00    +0.000 A 
ATOM     25  C   UNL     1      44.775   5.727  11.219  0.00  0.00    +0.000 A 
ATOM     26  C   UNL     1      43.796   5.197  12.062  0.00  0.00    +0.000 A 
ATOM     27  C   UNL     1      43.256   3.947  11.757  0.00  0.00    +0.000 A 
ATOM     28  N   UNL     1      43.628   3.170  10.706  0.00  0.00    +0.000 NA
BRANCH  23  30
ATOM     29  N   UNL     1      45.701   3.513   7.675  0.00  0.00    +0.000 N 
ATOM     30  C   UNL     1      45.074   2.857   8.724  0.00  0.00    +0.000 C 
ATOM     31  O   UNL     1      44.911   1.641   8.725  0.00  0.00    +0.000 OA
ATOM     32  H   UNL     1      45.900   4.496   7.819  0.00  0.00    +0.000 HD
BRANCH  29  33
ATOM     33  C   UNL     1      46.380   2.798   6.584  0.00  0.00    +0.000 C 
BRANCH  33  34
ATOM     34  C   UNL     1      47.770   2.210   6.927  0.00  0.00    +0.000 C 
BRANCH  34  35
ATOM     35  N   UNL     1      48.543   1.823   5.731  0.00  0.00    +0.000 NA
ATOM     36  H   UNL     1      49.477   2.230   5.795  0.00  0.00    +0.000 HD
ATOM     37  H   UNL     1      48.123   2.252   4.905  0.00  0.00    +0.000 HD
ENDBRANCH  34  35
ENDBRANCH  33  34
ENDBRANCH  29  33
ENDBRANCH  23  30
ENDBRANCH  22  25
ENDBRANCH   1  22
TORSDOF 8
ENDMDL
MODEL 7
REMARK VINA RESULT:    -6.930      2.271      2.630
REMARK INTER + INTRA:         -10.660
REMARK INTER:                  -9.504
REMARK INTRA:                  -1.156
REMARK UNBOUND:                -0.691
REMARK  Name = 
REMARK  8 active torsions:
REMARK  status: ('A' for Active; 'I' for Inactive)
REMARK    1  A    between atoms: N_1  and  C_2
REMARK    2  A    between atoms: C_2  and  C_3
REMARK    3  A    between atoms: C_3  and  N_4
REMARK    4  A    between atoms: C_5  and  C_7
REMARK    5  A    between atoms: C_9  and  C_10
REMARK    6  A    between atoms: C_10  and  N_11
REMARK    7  A    between atoms: C_14  and  N_15
REMARK    8  A    between atoms: C_16  and  C_18
REMARK                            x       y       z     vdW  Elec       q    Type
REMARK                         _______ _______ _______ _____ _____    ______ ____
ROOT
ATOM      1  N   UNL     1      46.986   7.130  12.802  0.00  0.00    +0.000 NA
ATOM      2  C   UNL     1      47.282   7.964  13.979  0.00  0.00    +0.000 C 
ATOM      3  C   UNL     1      48.302   9.073  13.712  0.00  0.00    +0.000 C 
ATOM      4  C   UNL     1      49.611   8.524  13.151  0.00  0.00    +0.000 C 
ATOM      5  C   UNL     1      49.286   7.729  11.887  0.00  0.00    +0.000 C 
ATOM      6  C   UNL     1      48.219   6.652  12.133  0.00  0.00    +0.000 C 
ENDROOT
BRANCH   4   7
ATOM      7  N   UNL     1      50.308   7.707  14.144  0.00  0.00    +0.000 N 
ATOM      8  C   UNL     1      51.303   8.156  14.974  0.00  0.00    +0.000 C 
ATOM      9  O   UNL     1      51.624   9.341  15.035  0.00  0.00    +0.000 OA
ATOM     10  H   UNL     1      50.189   6.705  14.055  0.00  0.00    +0.000 HD
BRANCH   8  11
ATOM     11  C   UNL     1      51.954   7.139  15.824  0.00  0.00    +0.000 A 
ATOM     12  C   UNL     1      53.341   7.071  15.878  0.00  0.00    +0.000 A 
ATOM     13  S   UNL     1      53.934   5.815  16.869  0.00  0.00    +0.000 S 
ATOM     14  C   UNL     1      52.359   5.318  17.277  0.00  0.00    +0.000 A 
ATOM     15  N   UNL     1      52.153   4.262  18.111  0.00  0.00    +0.000 NA
ATOM     16  C   UNL     1      50.913   3.994  18.342  0.00  0.00    +0.000 A 
ATOM     17  N   UNL     1      49.856   4.685  17.814  0.00  0.00    +0.000 N 
ATOM     18  C   UNL     1      50.018   5.770  16.989  0.00  0.00    +0.000 A 
ATOM     19  O   UNL     1      49.046   6.401  16.593  0.00  0.00    +0.000 OA
ATOM     20  C   UNL     1      51.393   6.108  16.677  0.00  0.00    +0.000 A 
ATOM     21  H   UNL     1      48.906   4.443  18.051  0.00  0.00    +0.000 HD
ENDBRANCH   8  11
ENDBRANCH   4   7
BRANCH   1  22
ATOM     22  C   UNL     1      46.156   5.960  13.193  0.00  0.00    +0.000 C 
BRANCH  22  25
ATOM     23  C   UNL     1      44.413   4.399  10.140  0.00  0.00    +0.000 A 
ATOM     24  C   UNL     1      45.416   4.770  11.049  0.00  0.00    +0.000 A 
ATOM     25  C   UNL     1      45.100   5.543  12.178  0.00  0.00    +0.000 A 
ATOM     26  C   UNL     1      43.767   5.932  12.336  0.00  0.00    +0.000 A 
ATOM     27  C   UNL     1      42.840   5.550  11.367  0.00  0.00    +0.000 A 
ATOM     28  N   UNL     1      43.117   4.791  10.274  0.00  0.00    +0.000 NA
BRANCH  23  30
ATOM     29  N   UNL     1      45.571   4.086   7.956  0.00  0.00    +0.000 N 
ATOM     30  C   UNL     1      44.784   3.529   8.954  0.00  0.00    +0.000 C 
ATOM     31  O   UNL     1      44.400   2.365   8.904  0.00  0.00    +0.000 OA
ATOM     32  H   UNL     1      45.940   5.010   8.142  0.00  0.00    +0.000 HD
BRANCH  29  33
ATOM     33  C   UNL     1      46.157   3.287   6.869  0.00  0.00    +0.000 C 
BRANCH  33  34
ATOM     34  C   UNL     1      47.484   2.565   7.204  0.00  0.00    +0.000 C 
BRANCH  34  35
ATOM     35  N   UNL     1      48.389   2.454   6.043  0.00  0.00    +0.000 NA
ATOM     36  H   UNL     1      47.834   2.250   5.210  0.00  0.00    +0.000 HD
ATOM     37  H   UNL     1      48.994   1.640   6.164  0.00  0.00    +0.000 HD
ENDBRANCH  34  35
ENDBRANCH  33  34
ENDBRANCH  29  33
ENDBRANCH  23  30
ENDBRANCH  22  25
ENDBRANCH   1  22
TORSDOF 8
ENDMDL
MODEL 8
REMARK VINA RESULT:    -6.709      3.067      4.703
REMARK INTER + INTRA:         -10.342
REMARK INTER:                  -8.956
REMARK INTRA:                  -1.386
REMARK UNBOUND:                -0.691
REMARK  Name = 
REMARK  8 active torsions:
REMARK  status: ('A' for Active; 'I' for Inactive)
REMARK    1  A    between atoms: N_1  and  C_2
REMARK    2  A    between atoms: C_2  and  C_3
REMARK    3  A    between atoms: C_3  and  N_4
REMARK    4  A    between atoms: C_5  and  C_7
REMARK    5  A    between atoms: C_9  and  C_10
REMARK    6  A    between atoms: C_10  and  N_11
REMARK    7  A    between atoms: C_14  and  N_15
REMARK    8  A    between atoms: C_16  and  C_18
REMARK                            x       y       z     vdW  Elec       q    Type
REMARK                         _______ _______ _______ _____ _____    ______ ____
ROOT
ATOM      1  N   UNL     1      49.011   7.609  14.770  0.00  0.00    +0.000 NA
ATOM      2  C   UNL     1      48.611   7.250  16.141  0.00  0.00    +0.000 C 
ATOM      3  C   UNL     1      49.278   8.101  17.225  0.00  0.00    +0.000 C 
ATOM      4  C   UNL     1      50.801   8.060  17.127  0.00  0.00    +0.000 C 
ATOM      5  C   UNL     1      51.195   8.513  15.721  0.00  0.00    +0.000 C 
ATOM      6  C   UNL     1      50.483   7.703  14.626  0.00  0.00    +0.000 C 
ENDROOT
BRANCH   4   7
ATOM      7  N   UNL     1      51.313   6.726  17.433  0.00  0.00    +0.000 N 
ATOM      8  C   UNL     1      51.629   6.274  18.688  0.00  0.00    +0.000 C 
ATOM      9  O   UNL     1      51.397   6.929  19.702  0.00  0.00    +0.000 OA
ATOM     10  H   UNL     1      51.652   6.189  16.643  0.00  0.00    +0.000 HD
BRANCH   8  11
ATOM     11  C   UNL     1      52.241   4.931  18.765  0.00  0.00    +0.000 A 
ATOM     12  C   UNL     1      53.427   4.753  19.467  0.00  0.00    +0.000 A 
ATOM     13  S   UNL     1      54.023   3.155  19.422  0.00  0.00    +0.000 S 
ATOM     14  C   UNL     1      52.713   2.633  18.472  0.00  0.00    +0.000 A 
ATOM     15  N   UNL     1      52.614   1.337  18.069  0.00  0.00    +0.000 NA
ATOM     16  C   UNL     1      51.571   1.073  17.359  0.00  0.00    +0.000 A 
ATOM     17  N   UNL     1      50.614   1.988  17.012  0.00  0.00    +0.000 N 
ATOM     18  C   UNL     1      50.661   3.298  17.418  0.00  0.00    +0.000 A 
ATOM     19  O   UNL     1      49.748   4.068  17.141  0.00  0.00    +0.000 OA
ATOM     20  C   UNL     1      51.824   3.660  18.204  0.00  0.00    +0.000 A 
ATOM     21  H   UNL     1      49.805   1.716  16.475  0.00  0.00    +0.000 HD
ENDBRANCH   8  11
ENDBRANCH   4   7
BRANCH   1  22
ATOM     22  C   UNL     1      48.487   6.612  13.801  0.00  0.00    +0.000 C 
BRANCH  22  25
ATOM     23  C   UNL     1      45.349   6.552  11.577  0.00  0.00    +0.000 A 
ATOM     24  C   UNL     1      46.517   6.136  12.233  0.00  0.00    +0.000 A 
ATOM     25  C   UNL     1      47.220   7.025  13.064  0.00  0.00    +0.000 A 
ATOM     26  C   UNL     1      46.716   8.322  13.185  0.00  0.00    +0.000 A 
ATOM     27  C   UNL     1      45.568   8.663  12.470  0.00  0.00    +0.000 A 
ATOM     28  N   UNL     1      44.863   7.819  11.672  0.00  0.00    +0.000 NA
BRANCH  23  30
ATOM     29  N   UNL     1      45.208   5.082   9.570  0.00  0.00    +0.000 N 
ATOM     30  C   UNL     1      44.594   5.552  10.722  0.00  0.00    +0.000 C 
ATOM     31  O   UNL     1      43.477   5.173  11.062  0.00  0.00    +0.000 OA
ATOM     32  H   UNL     1      46.174   5.356   9.436  0.00  0.00    +0.000 HD
BRANCH  29  33
ATOM     33  C   UNL     1      44.664   3.970   8.777  0.00  0.00    +0.000 C 
BRANCH  33  34
ATOM     34  C   UNL     1      44.923   2.552   9.340  0.00  0.00    +0.000 C 
BRANCH  34  35
ATOM     35  N   UNL     1      43.938   2.149  10.363  0.00  0.00    +0.000 NA
ATOM     36  H   UNL     1      44.066   2.731  11.192  0.00  0.00    +0.000 HD
ATOM     37  H   UNL     1      44.143   1.198  10.673  0.00  0.00    +0.000 HD
ENDBRANCH  34  35
ENDBRANCH  33  34
ENDBRANCH  29  33
ENDBRANCH  23  30
ENDBRANCH  22  25
ENDBRANCH   1  22
TORSDOF 8
ENDMDL
MODEL 9
REMARK VINA RESULT:    -6.637      3.043      4.959
REMARK INTER + INTRA:         -10.238
REMARK INTER:                  -9.199
REMARK INTRA:                  -1.039
REMARK UNBOUND:                -0.691
REMARK  Name = 
REMARK  8 active torsions:
REMARK  status: ('A' for Active; 'I' for Inactive)
REMARK    1  A    between atoms: N_1  and  C_2
REMARK    2  A    between atoms: C_2  and  C_3
REMARK    3  A    between atoms: C_3  and  N_4
REMARK    4  A    between atoms: C_5  and  C_7
REMARK    5  A    between atoms: C_9  and  C_10
REMARK    6  A    between atoms: C_10  and  N_11
REMARK    7  A    between atoms: C_14  and  N_15
REMARK    8  A    between atoms: C_16  and  C_18
REMARK                            x       y       z     vdW  Elec       q    Type
REMARK                         _______ _______ _______ _____ _____    ______ ____
ROOT
ATOM      1  N   UNL     1      49.091   9.515  14.113  0.00  0.00    +0.000 NA
ATOM      2  C   UNL     1      47.978   9.114  14.991  0.00  0.00    +0.000 C 
ATOM      3  C   UNL     1      48.257   9.324  16.481  0.00  0.00    +0.000 C 
ATOM      4  C   UNL     1      49.527   8.607  16.932  0.00  0.00    +0.000 C 
ATOM      5  C   UNL     1      50.682   9.100  16.060  0.00  0.00    +0.000 C 
ATOM      6  C   UNL     1      50.385   8.948  14.560  0.00  0.00    +0.000 C 
ENDROOT
BRANCH   4   7
ATOM      7  N   UNL     1      49.368   7.156  16.857  0.00  0.00    +0.000 N 
ATOM      8  C   UNL     1      49.698   6.276  17.855  0.00  0.00    +0.000 C 
ATOM      9  O   UNL     1      50.059   6.649  18.969  0.00  0.00    +0.000 OA
ATOM     10  H   UNL     1      49.206   6.776  15.931  0.00  0.00    +0.000 HD
BRANCH   8  11
ATOM     11  C   UNL     1      49.566   4.840  17.531  0.00  0.00    +0.000 A 
ATOM     12  C   UNL     1      48.334   4.333  17.136  0.00  0.00    +0.000 A 
ATOM     13  S   UNL     1      48.340   2.652  16.842  0.00  0.00    +0.000 S 
ATOM     14  C   UNL     1      49.995   2.536  17.219  0.00  0.00    +0.000 A 
ATOM     15  N   UNL     1      50.641   1.339  17.168  0.00  0.00    +0.000 NA
ATOM     16  C   UNL     1      51.892   1.392  17.472  0.00  0.00    +0.000 A 
ATOM     17  N   UNL     1      52.561   2.533  17.824  0.00  0.00    +0.000 N 
ATOM     18  C   UNL     1      51.955   3.763  17.864  0.00  0.00    +0.000 A 
ATOM     19  O   UNL     1      52.606   4.769  18.119  0.00  0.00    +0.000 OA
ATOM     20  C   UNL     1      50.539   3.765  17.551  0.00  0.00    +0.000 A 
ATOM     21  H   UNL     1      53.549   2.515  18.027  0.00  0.00    +0.000 HD
ENDBRANCH   8  11
ENDBRANCH   4   7
BRANCH   1  22
ATOM     22  C   UNL     1      48.826   9.090  12.714  0.00  0.00    +0.000 C 
BRANCH  22  25
ATOM     23  C   UNL     1      45.314   7.717  11.954  0.00  0.00    +0.000 A 
ATOM     24  C   UNL     1      46.672   7.765  12.305  0.00  0.00    +0.000 A 
ATOM     25  C   UNL     1      47.355   8.992  12.331  0.00  0.00    +0.000 A 
ATOM     26  C   UNL     1      46.633  10.135  11.979  0.00  0.00    +0.000 A 
ATOM     27  C   UNL     1      45.296   9.994  11.610  0.00  0.00    +0.000 A 
ATOM     28  N   UNL     1      44.609   8.822  11.590  0.00  0.00    +0.000 NA
BRANCH  23  30
ATOM     29  N   UNL     1      44.339   5.756  10.765  0.00  0.00    +0.000 N 
ATOM     30  C   UNL     1      44.598   6.380  11.977  0.00  0.00    +0.000 C 
ATOM     31  O   UNL     1      44.276   5.875  13.048  0.00  0.00    +0.000 OA
ATOM     32  H   UNL     1      44.749   6.187   9.945  0.00  0.00    +0.000 HD
BRANCH  29  33
ATOM     33  C   UNL     1      43.838   4.377  10.673  0.00  0.00    +0.000 C 
BRANCH  33  34
ATOM     34  C   UNL     1      44.878   3.263  10.945  0.00  0.00    +0.000 C 
BRANCH  34  35
ATOM     35  N   UNL     1      44.940   2.867  12.365  0.00  0.00    +0.000 NA
ATOM     36  H   UNL     1      44.586   3.634  12.938  0.00  0.00    +0.000 HD
ATOM     37  H   UNL     1      45.917   2.759  12.643  0.00  0.00    +0.000 HD
ENDBRANCH  34  35
ENDBRANCH  33  34
ENDBRANCH  29  33
ENDBRANCH  23  30
ENDBRANCH  22  25
ENDBRANCH   1  22
TORSDOF 8
ENDMDL
