MODEL 1
REMARK VINA RESULT:    -7.963      0.000      0.000
REMARK INTER + INTRA:         -13.317
REMARK INTER:                 -11.687
REMARK INTRA:                  -1.630
REMARK UNBOUND:                -1.630
REMARK  Name = 
REMARK  9 active torsions:
REMARK  status: ('A' for Active; 'I' for Inactive)
REMARK    1  A    between atoms: C_1  and  O_2
REMARK    2  A    between atoms: O_2  and  C_3
REMARK    3  A    between atoms: C_10  and  C_11
REMARK    4  A    between atoms: N_13  and  C_14
REMARK    5  A    between atoms: C_14  and  C_15
REMARK    6  A    between atoms: C_18  and  C_19
REMARK    7  A    between atoms: C_19  and  C_20
REMARK    8  A    between atoms: C_20  and  O_21
REMARK    9  A    between atoms: O_21  and  C_22
REMARK                            x       y       z     vdW  Elec       q    Type
REMARK                         _______ _______ _______ _____ _____    ______ ____
ROOT
ATOM      1  C   UNL     1      47.015   7.896  13.222  0.00  0.00    +0.000 C 
ENDROOT
BRANCH   1   2
ATOM      2  C   UNL     1      46.087   6.934  12.519  0.00  0.00    +0.000 A 
ATOM      3  C   UNL     1      44.908   6.500  13.133  0.00  0.00    +0.000 A 
ATOM      4  C   UNL     1      44.075   5.566  12.505  0.00  0.00    +0.000 A 
ATOM      5  C   UNL     1      44.407   5.024  11.254  0.00  0.00    +0.000 A 
ATOM      6  C   UNL     1      45.581   5.473  10.635  0.00  0.00    +0.000 A 
ATOM      7  C   UNL     1      46.408   6.418  11.257  0.00  0.00    +0.000 A 
BRANCH   5   8
ATOM      8  C   UNL     1      43.574   3.970  10.540  0.00  0.00    +0.000 C 
BRANCH   8   9
ATOM      9  C   UNL     1      44.168   3.466   9.227  0.00  0.00    +0.000 C 
BRANCH   9  10
ATOM     10  O   UNL     1      45.017   2.326   9.429  0.00  0.00    +0.000 OA
BRANCH  10  11
ATOM     11  C   UNL     1      45.886   2.182   8.356  0.00  0.00    +0.000 A 
ATOM     12  C   UNL     1      46.134   3.293   7.569  0.00  0.00    +0.000 A 
ATOM     13  C   UNL     1      47.002   3.149   6.487  0.00  0.00    +0.000 A 
ATOM     14  C   UNL     1      47.587   1.911   6.234  0.00  0.00    +0.000 A 
ATOM     15  C   UNL     1      47.279   0.861   7.077  0.00  0.00    +0.000 A 
ATOM     16  N   UNL     1      46.445   0.971   8.127  0.00  0.00    +0.000 NA
ENDBRANCH  10  11
ENDBRANCH   9  10
ENDBRANCH   8   9
ENDBRANCH   5   8
ENDBRANCH   1   2
BRANCH   1  19
ATOM     17  C   UNL     1      48.803   6.890  14.602  0.00  0.00    +0.000 C 
ATOM     18  O   UNL     1      49.598   6.950  13.666  0.00  0.00    +0.000 OA
ATOM     19  N   UNL     1      47.516   7.341  14.462  0.00  0.00    +0.000 N 
ATOM     20  H   UNL     1      46.881   7.317  15.248  0.00  0.00    +0.000 HD
BRANCH  17  28
ATOM     21  C   UNL     1      47.618   4.247  16.470  0.00  0.00    +0.000 A 
ATOM     22  N   UNL     1      47.417   3.238  17.345  0.00  0.00    +0.000 NA
ATOM     23  C   UNL     1      48.234   3.144  18.396  0.00  0.00    +0.000 A 
ATOM     24  N   UNL     1      49.240   3.959  18.702  0.00  0.00    +0.000 NA
ATOM     25  C   UNL     1      49.411   4.943  17.805  0.00  0.00    +0.000 A 
ATOM     26  S   UNL     1      50.639   6.088  18.045  0.00  0.00    +0.000 S 
ATOM     27  C   UNL     1      50.241   6.889  16.600  0.00  0.00    +0.000 A 
ATOM     28  C   UNL     1      49.190   6.307  15.900  0.00  0.00    +0.000 A 
ATOM     29  C   UNL     1      48.668   5.162  16.646  0.00  0.00    +0.000 A 
BRANCH  21  31
ATOM     30  C   UNL     1      47.141   3.597  14.265  0.00  0.00    +0.000 C 
ATOM     31  O   UNL     1      46.756   4.368  15.399  0.00  0.00    +0.000 OA
ENDBRANCH  21  31
ENDBRANCH  17  28
ENDBRANCH   1  19
TORSDOF 8
ENDMDL
MODEL 2
REMARK VINA RESULT:    -7.665      1.517      1.698
REMARK INTER + INTRA:         -12.880
REMARK INTER:                 -11.551
REMARK INTRA:                  -1.329
REMARK UNBOUND:                -1.630
REMARK  Name = 
REMARK  9 active torsions:
REMARK  status: ('A' for Active; 'I' for Inactive)
REMARK    1  A    between atoms: C_1  and  O_2
REMARK    2  A    between atoms: O_2  and  C_3
REMARK    3  A    between atoms: C_10  and  C_11
REMARK    4  A    between atoms: N_13  and  C_14
REMARK    5  A    between atoms: C_14  and  C_15
REMARK    6  A    between atoms: C_18  and  C_19
REMARK    7  A    between atoms: C_19  and  C_20
REMARK    8  A    between atoms: C_20  and  O_21
REMARK    9  A    between atoms: O_21  and  C_22
REMARK                            x       y       z     vdW  Elec       q    Type
REMARK                         _______ _______ _______ _____ _____    ______ ____
ROOT
ATOM      1  C   UNL     1      48.401   6.644  13.524  0.00  0.00    +0.000 C 
ENDROOT
BRANCH   1   2
ATOM      2  C   UNL     1      47.162   6.114  12.841  0.00  0.00    +0.000 A 
ATOM      3  C   UNL     1      46.430   5.063  13.402  0.00  0.00    +0.000 A 
ATOM      4  C   UNL     1      45.313   4.536  12.742  0.00  0.00    +0.000 A 
ATOM      5  C   UNL     1      44.908   5.032  11.494  0.00  0.00    +0.000 A 
ATOM      6  C   UNL     1      45.634   6.095  10.943  0.00  0.00    +0.000 A 
ATOM      7  C   UNL     1      46.744   6.632  11.609  0.00  0.00    +0.000 A 
BRANCH   5   8
ATOM      8  C   UNL     1      43.736   4.471  10.700  0.00  0.00    +0.000 C 
BRANCH   8   9
ATOM      9  C   UNL     1      44.113   3.841   9.362  0.00  0.00    +0.000 C 
BRANCH   9  10
ATOM     10  O   UNL     1      44.837   2.614   9.536  0.00  0.00    +0.000 OA
BRANCH  10  11
ATOM     11  C   UNL     1      45.685   2.404   8.458  0.00  0.00    +0.000 A 
ATOM     12  C   UNL     1      45.889   3.453   7.580  0.00  0.00    +0.000 A 
ATOM     13  C   UNL     1      46.737   3.242   6.493  0.00  0.00    +0.000 A 
ATOM     14  C   UNL     1      47.347   2.002   6.326  0.00  0.00    +0.000 A 
ATOM     15  C   UNL     1      47.083   1.016   7.256  0.00  0.00    +0.000 A 
ATOM     16  N   UNL     1      46.269   1.191   8.313  0.00  0.00    +0.000 NA
ENDBRANCH  10  11
ENDBRANCH   9  10
ENDBRANCH   8   9
ENDBRANCH   5   8
ENDBRANCH   1   2
BRANCH   1  19
ATOM     17  C   UNL     1      48.958   7.479  15.783  0.00  0.00    +0.000 C 
ATOM     18  O   UNL     1      49.736   8.308  15.315  0.00  0.00    +0.000 OA
ATOM     19  N   UNL     1      48.261   6.628  14.965  0.00  0.00    +0.000 N 
ATOM     20  H   UNL     1      47.600   5.972  15.358  0.00  0.00    +0.000 HD
BRANCH  17  28
ATOM     21  C   UNL     1      48.828   4.782  17.926  0.00  0.00    +0.000 A 
ATOM     22  N   UNL     1      48.820   3.936  18.978  0.00  0.00    +0.000 NA
ATOM     23  C   UNL     1      48.708   4.453  20.203  0.00  0.00    +0.000 A 
ATOM     24  N   UNL     1      48.581   5.739  20.519  0.00  0.00    +0.000 NA
ATOM     25  C   UNL     1      48.601   6.548  19.447  0.00  0.00    +0.000 A 
ATOM     26  S   UNL     1      48.433   8.223  19.662  0.00  0.00    +0.000 S 
ATOM     27  C   UNL     1      48.574   8.499  17.991  0.00  0.00    +0.000 A 
ATOM     28  C   UNL     1      48.765   7.344  17.239  0.00  0.00    +0.000 A 
ATOM     29  C   UNL     1      48.740   6.171  18.112  0.00  0.00    +0.000 A 
BRANCH  21  31
ATOM     30  C   UNL     1      47.906   3.281  16.374  0.00  0.00    +0.000 C 
ATOM     31  O   UNL     1      48.911   4.251  16.656  0.00  0.00    +0.000 OA
ENDBRANCH  21  31
ENDBRANCH  17  28
ENDBRANCH   1  19
TORSDOF 8
ENDMDL
MODEL 3
REMARK VINA RESULT:    -7.108      1.966      3.363
REMARK INTER + INTRA:         -12.063
REMARK INTER:                 -10.716
REMARK INTRA:                  -1.346
REMARK UNBOUND:                -1.630
REMARK  Name = 
REMARK  9 active torsions:
REMARK  status: ('A' for Active; 'I' for Inactive)
REMARK    1  A    between atoms: C_1  and  O_2
REMARK    2  A    between atoms: O_2  and  C_3
REMARK    3  A    between atoms: C_10  and  C_11
REMARK    4  A    between atoms: N_13  and  C_14
REMARK    5  A    between atoms: C_14  and  C_15
REMARK    6  A    between atoms: C_18  and  C_19
REMARK    7  A    between atoms: C_19  and  C_20
REMARK    8  A    between atoms: C_20  and  O_21
REMARK    9  A    between atoms: O_21  and  C_22
REMARK                            x       y       z     vdW  Elec       q    Type
REMARK                         _______ _______ _______ _____ _____    ______ ____
ROOT
ATOM      1  C   UNL     1      47.195   3.959  14.999  0.00  0.00    +0.000 C 
ENDROOT
BRANCH   1   2
ATOM      2  C   UNL     1      46.411   4.262  13.744  0.00  0.00    +0.000 A 
ATOM      3  C   UNL     1      46.093   5.579  13.399  0.00  0.00    +0.000 A 
ATOM      4  C   UNL     1      45.319   5.856  12.265  0.00  0.00    +0.000 A 
ATOM      5  C   UNL     1      44.824   4.822  11.455  0.00  0.00    +0.000 A 
ATOM      6  C   UNL     1      45.157   3.505  11.796  0.00  0.00    +0.000 A 
ATOM      7  C   UNL     1      45.943   3.228  12.922  0.00  0.00    +0.000 A 
BRANCH   5   8
ATOM      8  C   UNL     1      43.937   5.050  10.240  0.00  0.00    +0.000 C 
BRANCH   8   9
ATOM      9  C   UNL     1      44.200   4.107   9.070  0.00  0.00    +0.000 C 
BRANCH   9  10
ATOM     10  O   UNL     1      45.348   4.510   8.309  0.00  0.00    +0.000 OA
BRANCH  10  11
ATOM     11  C   UNL     1      46.013   3.393   7.821  0.00  0.00    +0.000 A 
ATOM     12  C   UNL     1      46.824   3.554   6.711  0.00  0.00    +0.000 A 
ATOM     13  C   UNL     1      47.489   2.433   6.217  0.00  0.00    +0.000 A 
ATOM     14  C   UNL     1      47.323   1.201   6.846  0.00  0.00    +0.000 A 
ATOM     15  C   UNL     1      46.494   1.140   7.949  0.00  0.00    +0.000 A 
ATOM     16  N   UNL     1      45.840   2.206   8.446  0.00  0.00    +0.000 NA
ENDBRANCH  10  11
ENDBRANCH   9  10
ENDBRANCH   8   9
ENDBRANCH   5   8
ENDBRANCH   1   2
BRANCH   1  19
ATOM     17  C   UNL     1      48.574   5.231  16.610  0.00  0.00    +0.000 C 
ATOM     18  O   UNL     1      49.274   4.245  16.832  0.00  0.00    +0.000 OA
ATOM     19  N   UNL     1      47.536   5.170  15.717  0.00  0.00    +0.000 N 
ATOM     20  H   UNL     1      46.988   5.995  15.517  0.00  0.00    +0.000 HD
BRANCH  17  28
ATOM     21  C   UNL     1      48.619   8.527  15.602  0.00  0.00    +0.000 A 
ATOM     22  N   UNL     1      48.610   9.873  15.502  0.00  0.00    +0.000 NA
ATOM     23  C   UNL     1      48.787  10.589  16.614  0.00  0.00    +0.000 A 
ATOM     24  N   UNL     1      48.994  10.120  17.842  0.00  0.00    +0.000 NA
ATOM     25  C   UNL     1      48.987   8.779  17.900  0.00  0.00    +0.000 A 
ATOM     26  S   UNL     1      49.252   8.005  19.387  0.00  0.00    +0.000 S 
ATOM     27  C   UNL     1      49.078   6.472  18.676  0.00  0.00    +0.000 A 
ATOM     28  C   UNL     1      48.802   6.507  17.313  0.00  0.00    +0.000 A 
ATOM     29  C   UNL     1      48.788   7.892  16.843  0.00  0.00    +0.000 A 
BRANCH  21  31
ATOM     30  C   UNL     1      49.693   7.540  13.761  0.00  0.00    +0.000 C 
ATOM     31  O   UNL     1      48.469   7.782  14.450  0.00  0.00    +0.000 OA
ENDBRANCH  21  31
ENDBRANCH  17  28
ENDBRANCH   1  19
TORSDOF 8
ENDMDL
MODEL 4
REMARK VINA RESULT:    -6.868      2.596      3.346
REMARK INTER + INTRA:         -11.711
REMARK INTER:                 -10.771
REMARK INTRA:                  -0.940
REMARK UNBOUND:                -1.630
REMARK  Name = 
REMARK  9 active torsions:
REMARK  status: ('A' for Active; 'I' for Inactive)
REMARK    1  A    between atoms: C_1  and  O_2
REMARK    2  A    between atoms: O_2  and  C_3
REMARK    3  A    between atoms: C_10  and  C_11
REMARK    4  A    between atoms: N_13  and  C_14
REMARK    5  A    between atoms: C_14  and  C_15
REMARK    6  A    between atoms: C_18  and  C_19
REMARK    7  A    between atoms: C_19  and  C_20
REMARK    8  A    between atoms: C_20  and  O_21
REMARK    9  A    between atoms: O_21  and  C_22
REMARK                            x       y       z     vdW  Elec       q    Type
REMARK                         _______ _______ _______ _____ _____    ______ ____
ROOT
ATOM      1  C   UNL     1      47.490   4.584  14.977  0.00  0.00    +0.000 C 
ENDROOT
BRANCH   1   2
ATOM      2  C   UNL     1      46.577   4.580  13.774  0.00  0.00    +0.000 A 
ATOM      3  C   UNL     1      46.134   5.780  13.207  0.00  0.00    +0.000 A 
ATOM      4  C   UNL     1      45.244   5.775  12.126  0.00  0.00    +0.000 A 
ATOM      5  C   UNL     1      44.756   4.572  11.593  0.00  0.00    +0.000 A 
ATOM      6  C   UNL     1      45.214   3.373  12.154  0.00  0.00    +0.000 A 
ATOM      7  C   UNL     1      46.115   3.376  13.226  0.00  0.00    +0.000 A 
BRANCH   5   8
ATOM      8  C   UNL     1      43.749   4.498  10.454  0.00  0.00    +0.000 C 
BRANCH   8   9
ATOM      9  C   UNL     1      44.345   4.135   9.097  0.00  0.00    +0.000 C 
BRANCH   9  10
ATOM     10  O   UNL     1      44.436   2.714   8.917  0.00  0.00    +0.000 OA
BRANCH  10  11
ATOM     11  C   UNL     1      45.531   2.402   8.123  0.00  0.00    +0.000 A 
ATOM     12  C   UNL     1      45.951   3.344   7.200  0.00  0.00    +0.000 A 
ATOM     13  C   UNL     1      47.047   3.031   6.398  0.00  0.00    +0.000 A 
ATOM     14  C   UNL     1      47.681   1.800   6.547  0.00  0.00    +0.000 A 
ATOM     15  C   UNL     1      47.190   0.926   7.497  0.00  0.00    +0.000 A 
ATOM     16  N   UNL     1      46.133   1.202   8.284  0.00  0.00    +0.000 NA
ENDBRANCH  10  11
ENDBRANCH   9  10
ENDBRANCH   8   9
ENDBRANCH   5   8
ENDBRANCH   1   2
BRANCH   1  19
ATOM     17  C   UNL     1      48.791   6.255  16.253  0.00  0.00    +0.000 C 
ATOM     18  O   UNL     1      49.622   5.406  16.570  0.00  0.00    +0.000 OA
ATOM     19  N   UNL     1      47.717   5.928  15.466  0.00  0.00    +0.000 N 
ATOM     20  H   UNL     1      47.058   6.640  15.183  0.00  0.00    +0.000 HD
BRANCH  17  28
ATOM     21  C   UNL     1      47.685   7.901  19.072  0.00  0.00    +0.000 A 
ATOM     22  N   UNL     1      47.452   8.755  20.092  0.00  0.00    +0.000 NA
ATOM     23  C   UNL     1      47.931   9.996  19.997  0.00  0.00    +0.000 A 
ATOM     24  N   UNL     1      48.616  10.513  18.980  0.00  0.00    +0.000 NA
ATOM     25  C   UNL     1      48.833   9.631  17.991  0.00  0.00    +0.000 A 
ATOM     26  S   UNL     1      49.679  10.123  16.604  0.00  0.00    +0.000 S 
ATOM     27  C   UNL     1      49.559   8.571  15.922  0.00  0.00    +0.000 A 
ATOM     28  C   UNL     1      48.898   7.648  16.726  0.00  0.00    +0.000 A 
ATOM     29  C   UNL     1      48.429   8.298  17.949  0.00  0.00    +0.000 A 
BRANCH  21  31
ATOM     30  C   UNL     1      47.716   5.846  20.207  0.00  0.00    +0.000 C 
ATOM     31  O   UNL     1      47.164   6.626  19.151  0.00  0.00    +0.000 OA
ENDBRANCH  21  31
ENDBRANCH  17  28
ENDBRANCH   1  19
TORSDOF 8
ENDMDL
MODEL 5
REMARK VINA RESULT:    -6.752      4.545      9.094
REMARK INTER + INTRA:         -11.540
REMARK INTER:                 -10.544
REMARK INTRA:                  -0.996
REMARK UNBOUND:                -1.630
REMARK  Name = 
REMARK  9 active torsions:
REMARK  status: ('A' for Active; 'I' for Inactive)
REMARK    1  A    between atoms: C_1  and  O_2
REMARK    2  A    between atoms: O_2  and  C_3
REMARK    3  A    between atoms: C_10  and  C_11
REMARK    4  A    between atoms: N_13  and  C_14
REMARK    5  A    between atoms: C_14  and  C_15
REMARK    6  A    between atoms: C_18  and  C_19
REMARK    7  A    between atoms: C_19  and  C_20
REMARK    8  A    between atoms: C_20  and  O_21
REMARK    9  A    between atoms: O_21  and  C_22
REMARK                            x       y       z     vdW  Elec       q    Type
REMARK                         _______ _______ _______ _____ _____    ______ ____
ROOT
ATOM      1  C   UNL     1      47.175   3.425  16.773  0.00  0.00    +0.000 C 
ENDROOT
BRANCH   1   2
ATOM      2  C   UNL     1      48.657   3.460  17.063  0.00  0.00    +0.000 A 
ATOM      3  C   UNL     1      49.428   2.295  16.994  0.00  0.00    +0.000 A 
ATOM      4  C   UNL     1      50.791   2.318  17.315  0.00  0.00    +0.000 A 
ATOM      5  C   UNL     1      51.417   3.502  17.733  0.00  0.00    +0.000 A 
ATOM      6  C   UNL     1      50.646   4.669  17.786  0.00  0.00    +0.000 A 
ATOM      7  C   UNL     1      49.285   4.651  17.451  0.00  0.00    +0.000 A 
BRANCH   5   8
ATOM      8  C   UNL     1      52.880   3.585  18.146  0.00  0.00    +0.000 C 
BRANCH   8   9
ATOM      9  C   UNL     1      53.717   2.361  17.783  0.00  0.00    +0.000 C 
BRANCH   9  10
ATOM     10  O   UNL     1      53.648   1.348  18.797  0.00  0.00    +0.000 OA
BRANCH  10  11
ATOM     11  C   UNL     1      54.093   0.135  18.291  0.00  0.00    +0.000 A 
ATOM     12  C   UNL     1      54.434   0.078  16.951  0.00  0.00    +0.000 A 
ATOM     13  C   UNL     1      54.876  -1.142  16.439  0.00  0.00    +0.000 A 
ATOM     14  C   UNL     1      54.964  -2.250  17.278  0.00  0.00    +0.000 A 
ATOM     15  C   UNL     1      54.603  -2.094  18.601  0.00  0.00    +0.000 A 
ATOM     16  N   UNL     1      54.171  -0.930  19.122  0.00  0.00    +0.000 NA
ENDBRANCH  10  11
ENDBRANCH   9  10
ENDBRANCH   8   9
ENDBRANCH   5   8
ENDBRANCH   1   2
BRANCH   1  19
ATOM     17  C   UNL     1      46.842   4.193  14.447  0.00  0.00    +0.000 C 
ATOM     18  O   UNL     1      47.197   3.102  14.006  0.00  0.00    +0.000 OA
ATOM     19  N   UNL     1      46.800   4.427  15.797  0.00  0.00    +0.000 N 
ATOM     20  H   UNL     1      46.476   5.316  16.150  0.00  0.00    +0.000 HD
BRANCH  17  28
ATOM     21  C   UNL     1      44.006   4.955  12.643  0.00  0.00    +0.000 A 
ATOM     22  N   UNL     1      43.019   5.528  11.921  0.00  0.00    +0.000 NA
ATOM     23  C   UNL     1      43.257   6.714  11.358  0.00  0.00    +0.000 A 
ATOM     24  N   UNL     1      44.389   7.411  11.411  0.00  0.00    +0.000 NA
ATOM     25  C   UNL     1      45.341   6.813  12.144  0.00  0.00    +0.000 A 
ATOM     26  S   UNL     1      46.859   7.553  12.306  0.00  0.00    +0.000 S 
ATOM     27  C   UNL     1      47.420   6.295  13.302  0.00  0.00    +0.000 A 
ATOM     28  C   UNL     1      46.477   5.302  13.546  0.00  0.00    +0.000 A 
ATOM     29  C   UNL     1      45.243   5.596  12.817  0.00  0.00    +0.000 A 
BRANCH  21  31
ATOM     30  C   UNL     1      43.585   2.681  12.237  0.00  0.00    +0.000 C 
ATOM     31  O   UNL     1      43.777   3.714  13.199  0.00  0.00    +0.000 OA
ENDBRANCH  21  31
ENDBRANCH  17  28
ENDBRANCH   1  19
TORSDOF 8
ENDMDL
MODEL 6
REMARK VINA RESULT:    -6.453      1.972      3.030
REMARK INTER + INTRA:         -11.101
REMARK INTER:                  -9.892
REMARK INTRA:                  -1.209
REMARK UNBOUND:                -1.630
REMARK  Name = 
REMARK  9 active torsions:
REMARK  status: ('A' for Active; 'I' for Inactive)
REMARK    1  A    between atoms: C_1  and  O_2
REMARK    2  A    between atoms: O_2  and  C_3
REMARK    3  A    between atoms: C_10  and  C_11
REMARK    4  A    between atoms: N_13  and  C_14
REMARK    5  A    between atoms: C_14  and  C_15
REMARK    6  A    between atoms: C_18  and  C_19
REMARK    7  A    between atoms: C_19  and  C_20
REMARK    8  A    between atoms: C_20  and  O_21
REMARK    9  A    between atoms: O_21  and  C_22
REMARK                            x       y       z     vdW  Elec       q    Type
REMARK                         _______ _______ _______ _____ _____    ______ ____
ROOT
ATOM      1  C   UNL     1      48.452   6.940  13.345  0.00  0.00    +0.000 C 
ENDROOT
BRANCH   1   2
ATOM      2  C   UNL     1      47.301   6.216  12.687  0.00  0.00    +0.000 A 
ATOM      3  C   UNL     1      46.819   6.624  11.439  0.00  0.00    +0.000 A 
ATOM      4  C   UNL     1      45.717   5.987  10.855  0.00  0.00    +0.000 A 
ATOM      5  C   UNL     1      45.054   4.938  11.510  0.00  0.00    +0.000 A 
ATOM      6  C   UNL     1      45.549   4.523  12.752  0.00  0.00    +0.000 A 
ATOM      7  C   UNL     1      46.660   5.150  13.332  0.00  0.00    +0.000 A 
BRANCH   5   8
ATOM      8  C   UNL     1      43.821   4.239  10.955  0.00  0.00    +0.000 C 
BRANCH   8   9
ATOM      9  C   UNL     1      44.056   3.457   9.665  0.00  0.00    +0.000 C 
BRANCH   9  10
ATOM     10  O   UNL     1      45.114   2.497   9.809  0.00  0.00    +0.000 OA
BRANCH  10  11
ATOM     11  C   UNL     1      45.811   2.374   8.615  0.00  0.00    +0.000 A 
ATOM     12  C   UNL     1      45.945   3.501   7.823  0.00  0.00    +0.000 A 
ATOM     13  C   UNL     1      46.640   3.379   6.621  0.00  0.00    +0.000 A 
ATOM     14  C   UNL     1      47.176   2.145   6.257  0.00  0.00    +0.000 A 
ATOM     15  C   UNL     1      46.993   1.079   7.114  0.00  0.00    +0.000 A 
ATOM     16  N   UNL     1      46.325   1.168   8.280  0.00  0.00    +0.000 NA
ENDBRANCH  10  11
ENDBRANCH   9  10
ENDBRANCH   8   9
ENDBRANCH   5   8
ENDBRANCH   1   2
BRANCH   1  19
ATOM     17  C   UNL     1      48.644   7.233  15.792  0.00  0.00    +0.000 C 
ATOM     18  O   UNL     1      48.360   8.426  15.700  0.00  0.00    +0.000 OA
ATOM     19  N   UNL     1      48.704   6.436  14.679  0.00  0.00    +0.000 N 
ATOM     20  H   UNL     1      48.906   5.450  14.769  0.00  0.00    +0.000 HD
BRANCH  17  28
ATOM     21  C   UNL     1      50.940   7.943  18.263  0.00  0.00    +0.000 A 
ATOM     22  N   UNL     1      51.663   8.044  19.399  0.00  0.00    +0.000 NA
ATOM     23  C   UNL     1      51.410   7.181  20.386  0.00  0.00    +0.000 A 
ATOM     24  N   UNL     1      50.517   6.196  20.376  0.00  0.00    +0.000 NA
ATOM     25  C   UNL     1      49.814   6.134  19.234  0.00  0.00    +0.000 A 
ATOM     26  S   UNL     1      48.640   4.925  19.039  0.00  0.00    +0.000 S 
ATOM     27  C   UNL     1      48.235   5.500  17.492  0.00  0.00    +0.000 A 
ATOM     28  C   UNL     1      48.959   6.619  17.095  0.00  0.00    +0.000 A 
ATOM     29  C   UNL     1      49.934   6.973  18.126  0.00  0.00    +0.000 A 
BRANCH  21  31
ATOM     30  C   UNL     1      52.181   8.309  16.303  0.00  0.00    +0.000 C 
ATOM     31  O   UNL     1      51.220   8.811  17.228  0.00  0.00    +0.000 OA
ENDBRANCH  21  31
ENDBRANCH  17  28
ENDBRANCH   1  19
TORSDOF 8
ENDMDL
MODEL 7
REMARK VINA RESULT:    -6.378      3.528      5.320
REMARK INTER + INTRA:         -10.991
REMARK INTER:                  -9.713
REMARK INTRA:                  -1.278
REMARK UNBOUND:                -1.630
REMARK  Name = 
REMARK  9 active torsions:
REMARK  status: ('A' for Active; 'I' for Inactive)
REMARK    1  A    between atoms: C_1  and  O_2
REMARK    2  A    between atoms: O_2  and  C_3
REMARK    3  A    between atoms: C_10  and  C_11
REMARK    4  A    between atoms: N_13  and  C_14
REMARK    5  A    between atoms: C_14  and  C_15
REMARK    6  A    between atoms: C_18  and  C_19
REMARK    7  A    between atoms: C_19  and  C_20
REMARK    8  A    between atoms: C_20  and  O_21
REMARK    9  A    between atoms: O_21  and  C_22
REMARK                            x       y       z     vdW  Elec       q    Type
REMARK                         _______ _______ _______ _____ _____    ______ ____
ROOT
ATOM      1  C   UNL     1      48.694   6.780  14.336  0.00  0.00    +0.000 C 
ENDROOT
BRANCH   1   2
ATOM      2  C   UNL     1      47.665   6.184  13.405  0.00  0.00    +0.000 A 
ATOM      3  C   UNL     1      47.388   6.779  12.170  0.00  0.00    +0.000 A 
ATOM      4  C   UNL     1      46.396   6.258  11.330  0.00  0.00    +0.000 A 
ATOM      5  C   UNL     1      45.639   5.139  11.709  0.00  0.00    +0.000 A 
ATOM      6  C   UNL     1      45.931   4.536  12.940  0.00  0.00    +0.000 A 
ATOM      7  C   UNL     1      46.932   5.048  13.775  0.00  0.00    +0.000 A 
BRANCH   5   8
ATOM      8  C   UNL     1      44.514   4.553  10.868  0.00  0.00    +0.000 C 
BRANCH   8   9
ATOM      9  C   UNL     1      44.655   3.066  10.558  0.00  0.00    +0.000 C 
BRANCH   9  10
ATOM     10  O   UNL     1      44.231   2.757   9.222  0.00  0.00    +0.000 OA
BRANCH  10  11
ATOM     11  C   UNL     1      45.333   2.478   8.425  0.00  0.00    +0.000 A 
ATOM     12  C   UNL     1      45.840   3.498   7.639  0.00  0.00    +0.000 A 
ATOM     13  C   UNL     1      46.943   3.218   6.833  0.00  0.00    +0.000 A 
ATOM     14  C   UNL     1      47.497   1.941   6.844  0.00  0.00    +0.000 A 
ATOM     15  C   UNL     1      46.922   0.989   7.662  0.00  0.00    +0.000 A 
ATOM     16  N   UNL     1      45.857   1.231   8.449  0.00  0.00    +0.000 NA
ENDBRANCH  10  11
ENDBRANCH   9  10
ENDBRANCH   8   9
ENDBRANCH   5   8
ENDBRANCH   1   2
BRANCH   1  19
ATOM     17  C   UNL     1      50.756   8.137  14.199  0.00  0.00    +0.000 C 
ATOM     18  O   UNL     1      50.697   8.398  15.399  0.00  0.00    +0.000 OA
ATOM     19  N   UNL     1      49.810   7.342  13.605  0.00  0.00    +0.000 N 
ATOM     20  H   UNL     1      49.886   7.107  12.626  0.00  0.00    +0.000 HD
BRANCH  17  28
ATOM     21  C   UNL     1      50.766   9.902  11.239  0.00  0.00    +0.000 A 
ATOM     22  N   UNL     1      51.054  10.657  10.158  0.00  0.00    +0.000 NA
ATOM     23  C   UNL     1      52.333  10.952   9.917  0.00  0.00    +0.000 A 
ATOM     24  N   UNL     1      53.390  10.565  10.627  0.00  0.00    +0.000 NA
ATOM     25  C   UNL     1      53.061   9.824  11.697  0.00  0.00    +0.000 A 
ATOM     26  S   UNL     1      54.286   9.228  12.710  0.00  0.00    +0.000 S 
ATOM     27  C   UNL     1      53.147   8.490  13.733  0.00  0.00    +0.000 A 
ATOM     28  C   UNL     1      51.826   8.687  13.346  0.00  0.00    +0.000 A 
ATOM     29  C   UNL     1      51.779   9.454  12.102  0.00  0.00    +0.000 A 
BRANCH  21  31
ATOM     30  C   UNL     1      48.671  10.636  12.006  0.00  0.00    +0.000 C 
ATOM     31  O   UNL     1      49.449   9.566  11.474  0.00  0.00    +0.000 OA
ENDBRANCH  21  31
ENDBRANCH  17  28
ENDBRANCH   1  19
TORSDOF 8
ENDMDL
MODEL 8
REMARK VINA RESULT:    -6.246      3.663      8.555
REMARK INTER + INTRA:         -10.798
REMARK INTER:                  -9.450
REMARK INTRA:                  -1.348
REMARK UNBOUND:                -1.630
REMARK  Name = 
REMARK  9 active torsions:
REMARK  status: ('A' for Active; 'I' for Inactive)
REMARK    1  A    between atoms: C_1  and  O_2
REMARK    2  A    between atoms: O_2  and  C_3
REMARK    3  A    between atoms: C_10  and  C_11
REMARK    4  A    between atoms: N_13  and  C_14
REMARK    5  A    between atoms: C_14  and  C_15
REMARK    6  A    between atoms: C_18  and  C_19
REMARK    7  A    between atoms: C_19  and  C_20
REMARK    8  A    between atoms: C_20  and  O_21
REMARK    9  A    between atoms: O_21  and  C_22
REMARK                            x       y       z     vdW  Elec       q    Type
REMARK                         _______ _______ _______ _____ _____    ______ ____
ROOT
ATOM      1  C   UNL     1      47.215   3.405  17.107  0.00  0.00    +0.000 C 
ENDROOT
BRANCH   1   2
ATOM      2  C   UNL     1      48.682   3.365  17.467  0.00  0.00    +0.000 A 
ATOM      3  C   UNL     1      49.267   4.405  18.197  0.00  0.00    +0.000 A 
ATOM      4  C   UNL     1      50.638   4.395  18.484  0.00  0.00    +0.000 A 
ATOM      5  C   UNL     1      51.466   3.356  18.032  0.00  0.00    +0.000 A 
ATOM      6  C   UNL     1      50.873   2.309  17.314  0.00  0.00    +0.000 A 
ATOM      7  C   UNL     1      49.499   2.311  17.039  0.00  0.00    +0.000 A 
BRANCH   5   8
ATOM      8  C   UNL     1      52.969   3.310  18.264  0.00  0.00    +0.000 C 
BRANCH   8   9
ATOM      9  C   UNL     1      53.790   4.182  17.318  0.00  0.00    +0.000 C 
BRANCH   9  10
ATOM     10  O   UNL     1      53.777   5.560  17.718  0.00  0.00    +0.000 OA
BRANCH  10  11
ATOM     11  C   UNL     1      53.523   6.373  16.622  0.00  0.00    +0.000 A 
ATOM     12  C   UNL     1      52.282   6.981  16.540  0.00  0.00    +0.000 A 
ATOM     13  C   UNL     1      52.023   7.794  15.437  0.00  0.00    +0.000 A 
ATOM     14  C   UNL     1      53.005   7.970  14.465  0.00  0.00    +0.000 A 
ATOM     15  C   UNL     1      54.213   7.324  14.636  0.00  0.00    +0.000 A 
ATOM     16  N   UNL     1      54.490   6.533  15.689  0.00  0.00    +0.000 NA
ENDBRANCH  10  11
ENDBRANCH   9  10
ENDBRANCH   8   9
ENDBRANCH   5   8
ENDBRANCH   1   2
BRANCH   1  19
ATOM     17  C   UNL     1      47.070   4.161  14.758  0.00  0.00    +0.000 C 
ATOM     18  O   UNL     1      47.418   3.054  14.351  0.00  0.00    +0.000 OA
ATOM     19  N   UNL     1      46.942   4.409  16.100  0.00  0.00    +0.000 N 
ATOM     20  H   UNL     1      46.623   5.312  16.423  0.00  0.00    +0.000 HD
BRANCH  17  28
ATOM     21  C   UNL     1      44.387   5.003  12.764  0.00  0.00    +0.000 A 
ATOM     22  N   UNL     1      43.472   5.602  11.973  0.00  0.00    +0.000 NA
ATOM     23  C   UNL     1      43.788   6.773  11.417  0.00  0.00    +0.000 A 
ATOM     24  N   UNL     1      44.938   7.431  11.540  0.00  0.00    +0.000 NA
ATOM     25  C   UNL     1      45.818   6.807  12.339  0.00  0.00    +0.000 A 
ATOM     26  S   UNL     1      47.348   7.495  12.595  0.00  0.00    +0.000 S 
ATOM     27  C   UNL     1      47.796   6.229  13.636  0.00  0.00    +0.000 A 
ATOM     28  C   UNL     1      46.804   5.273  13.826  0.00  0.00    +0.000 A 
ATOM     29  C   UNL     1      45.633   5.601  13.014  0.00  0.00    +0.000 A 
BRANCH  21  31
ATOM     30  C   UNL     1      43.618   2.821  12.362  0.00  0.00    +0.000 C 
ATOM     31  O   UNL     1      44.078   3.776  13.314  0.00  0.00    +0.000 OA
ENDBRANCH  21  31
ENDBRANCH  17  28
ENDBRANCH   1  19
TORSDOF 8
ENDMDL
MODEL 9
REMARK VINA RESULT:    -5.886      2.445      4.205
REMARK INTER + INTRA:         -10.269
REMARK INTER:                  -9.523
REMARK INTRA:                  -0.746
REMARK UNBOUND:                -1.630
REMARK  Name = 
REMARK  9 active torsions:
REMARK  status: ('A' for Active; 'I' for Inactive)
REMARK    1  A    between atoms: C_1  and  O_2
REMARK    2  A    between atoms: O_2  and  C_3
REMARK    3  A    between atoms: C_10  and  C_11
REMARK    4  A    between atoms: N_13  and  C_14
REMARK    5  A    between atoms: C_14  and  C_15
REMARK    6  A    between atoms: C_18  and  C_19
REMARK    7  A    between atoms: C_19  and  C_20
REMARK    8  A    between atoms: C_20  and  O_21
REMARK    9  A    between atoms: O_21  and  C_22
REMARK                            x       y       z     vdW  Elec       q    Type
REMARK                         _______ _______ _______ _____ _____    ______ ____
ROOT
ATOM      1  C   UNL     1      47.313   5.274  14.706  0.00  0.00    +0.000 C 
ENDROOT
BRANCH   1   2
ATOM      2  C   UNL     1      46.508   5.084  13.442  0.00  0.00    +0.000 A 
ATOM      3  C   UNL     1      46.462   6.084  12.466  0.00  0.00    +0.000 A 
ATOM      4  C   UNL     1      45.673   5.930  11.319  0.00  0.00    +0.000 A 
ATOM      5  C   UNL     1      44.891   4.780  11.126  0.00  0.00    +0.000 A 
ATOM      6  C   UNL     1      44.952   3.774  12.099  0.00  0.00    +0.000 A 
ATOM      7  C   UNL     1      45.752   3.921  13.240  0.00  0.00    +0.000 A 
BRANCH   5   8
ATOM      8  C   UNL     1      43.973   4.572   9.930  0.00  0.00    +0.000 C 
BRANCH   8   9
ATOM      9  C   UNL     1      44.156   3.240   9.208  0.00  0.00    +0.000 C 
BRANCH   9  10
ATOM     10  O   UNL     1      45.484   2.720   9.375  0.00  0.00    +0.000 OA
BRANCH  10  11
ATOM     11  C   UNL     1      46.106   2.597   8.141  0.00  0.00    +0.000 A 
ATOM     12  C   UNL     1      46.639   1.366   7.803  0.00  0.00    +0.000 A 
ATOM     13  C   UNL     1      47.269   1.241   6.566  0.00  0.00    +0.000 A 
ATOM     14  C   UNL     1      47.342   2.343   5.716  0.00  0.00    +0.000 A 
ATOM     15  C   UNL     1      46.780   3.530   6.140  0.00  0.00    +0.000 A 
ATOM     16  N   UNL     1      46.166   3.679   7.329  0.00  0.00    +0.000 NA
ENDBRANCH  10  11
ENDBRANCH   9  10
ENDBRANCH   8   9
ENDBRANCH   5   8
ENDBRANCH   1   2
BRANCH   1  19
ATOM     17  C   UNL     1      49.024   6.877  15.491  0.00  0.00    +0.000 C 
ATOM     18  O   UNL     1      49.612   5.990  16.107  0.00  0.00    +0.000 OA
ATOM     19  N   UNL     1      47.888   6.601  14.775  0.00  0.00    +0.000 N 
ATOM     20  H   UNL     1      47.431   7.331  14.245  0.00  0.00    +0.000 HD
BRANCH  17  28
ATOM     21  C   UNL     1      50.193   9.046  13.080  0.00  0.00    +0.000 A 
ATOM     22  N   UNL     1      50.594  10.104  12.345  0.00  0.00    +0.000 NA
ATOM     23  C   UNL     1      50.786  11.268  12.968  0.00  0.00    +0.000 A 
ATOM     24  N   UNL     1      50.642  11.512  14.268  0.00  0.00    +0.000 NA
ATOM     25  C   UNL     1      50.235  10.437  14.962  0.00  0.00    +0.000 A 
ATOM     26  S   UNL     1      50.015  10.561  16.640  0.00  0.00    +0.000 S 
ATOM     27  C   UNL     1      49.520   8.938  16.743  0.00  0.00    +0.000 A 
ATOM     28  C   UNL     1      49.495   8.274  15.521  0.00  0.00    +0.000 A 
ATOM     29  C   UNL     1      49.963   9.166  14.460  0.00  0.00    +0.000 A 
BRANCH  21  31
ATOM     30  C   UNL     1      49.104   7.876  11.359  0.00  0.00    +0.000 C 
ATOM     31  O   UNL     1      50.024   7.832  12.446  0.00  0.00    +0.000 OA
ENDBRANCH  21  31
ENDBRANCH  17  28
ENDBRANCH   1  19
TORSDOF 8
ENDMDL
