MODEL 1
REMARK VINA RESULT:    -7.349      0.000      0.000
REMARK INTER + INTRA:          -9.912
REMARK INTER:                  -9.497
REMARK INTRA:                  -0.415
REMARK UNBOUND:                -0.415
REMARK  Name = 
REMARK  6 active torsions:
REMARK  status: ('A' for Active; 'I' for Inactive)
REMARK    1  A    between atoms: C_1  and  S_2
REMARK    2  A    between atoms: S_2  and  C_3
REMARK    3  A    between atoms: C_6  and  C_7
REMARK    4  A    between atoms: C_7  and  O_8
REMARK    5  A    between atoms: O_8  and  C_9
REMARK    6  A    between atoms: C_12  and  C_13
REMARK                            x       y       z     vdW  Elec       q    Type
REMARK                         _______ _______ _______ _____ _____    ______ ____
ROOT
ATOM      1  C   UNL     1      43.729   3.071  11.634  0.00  0.00    +0.000 C 
ENDROOT
BRANCH   1   5
ATOM      2  C   UNL     1      46.682   5.391  13.535  0.00  0.00    +0.000 A 
ATOM      3  C   UNL     1      46.799   4.009  13.441  0.00  0.00    +0.000 A 
ATOM      4  N   UNL     1      45.873   3.226  12.828  0.00  0.00    +0.000 NA
ATOM      5  C   UNL     1      44.813   3.882  12.288  0.00  0.00    +0.000 A 
ATOM      6  C   UNL     1      44.699   5.264  12.385  0.00  0.00    +0.000 A 
ATOM      7  N   UNL     1      45.619   6.038  13.008  0.00  0.00    +0.000 NA
BRANCH   2   9
ATOM      8  C   UNL     1      48.934   6.855  12.939  0.00  0.00    +0.000 C 
ATOM      9  S   UNL     1      47.939   6.341  14.363  0.00  0.00    +0.000 S 
ENDBRANCH   2   9
ENDBRANCH   1   5
BRANCH   1  10
ATOM     10  O   UNL     1      43.499   3.537  10.302  0.00  0.00    +0.000 OA
BRANCH  10  11
ATOM     11  C   UNL     1      44.483   3.263   9.390  0.00  0.00    +0.000 A 
ATOM     12  C   UNL     1      45.154   4.206   8.610  0.00  0.00    +0.000 A 
ATOM     13  C   UNL     1      46.154   3.803   7.719  0.00  0.00    +0.000 A 
ATOM     14  C   UNL     1      46.488   2.451   7.602  0.00  0.00    +0.000 A 
ATOM     15  C   UNL     1      45.814   1.503   8.376  0.00  0.00    +0.000 A 
ATOM     16  C   UNL     1      44.815   1.910   9.265  0.00  0.00    +0.000 A 
BRANCH  14  17
ATOM     17  C   UNL     1      47.519   2.048   6.694  0.00  0.00    +0.000 C 
ATOM     18  N   UNL     1      48.354   1.717   5.957  0.00  0.00    +0.000 NA
ENDBRANCH  14  17
ENDBRANCH  10  11
ENDBRANCH   1  10
TORSDOF 5
ENDMDL
MODEL 2
REMARK VINA RESULT:    -7.285      0.158      1.149
REMARK INTER + INTRA:          -9.829
REMARK INTER:                  -9.396
REMARK INTRA:                  -0.433
REMARK UNBOUND:                -0.415
REMARK  Name = 
REMARK  6 active torsions:
REMARK  status: ('A' for Active; 'I' for Inactive)
REMARK    1  A    between atoms: C_1  and  S_2
REMARK    2  A    between atoms: S_2  and  C_3
REMARK    3  A    between atoms: C_6  and  C_7
REMARK    4  A    between atoms: C_7  and  O_8
REMARK    5  A    between atoms: O_8  and  C_9
REMARK    6  A    between atoms: C_12  and  C_13
REMARK                            x       y       z     vdW  Elec       q    Type
REMARK                         _______ _______ _______ _____ _____    ______ ____
ROOT
ATOM      1  C   UNL     1      43.724   3.257  11.570  0.00  0.00    +0.000 C 
ENDROOT
BRANCH   1   5
ATOM      2  C   UNL     1      46.768   5.388  13.549  0.00  0.00    +0.000 A 
ATOM      3  C   UNL     1      46.737   3.998  13.556  0.00  0.00    +0.000 A 
ATOM      4  N   UNL     1      45.777   3.274  12.922  0.00  0.00    +0.000 NA
ATOM      5  C   UNL     1      44.841   3.996  12.256  0.00  0.00    +0.000 A 
ATOM      6  C   UNL     1      44.874   5.386  12.252  0.00  0.00    +0.000 A 
ATOM      7  N   UNL     1      45.825   6.103  12.895  0.00  0.00    +0.000 NA
BRANCH   2   9
ATOM      8  C   UNL     1      48.903   7.038  13.013  0.00  0.00    +0.000 C 
ATOM      9  S   UNL     1      48.058   6.259  14.413  0.00  0.00    +0.000 S 
ENDBRANCH   2   9
ENDBRANCH   1   5
BRANCH   1  10
ATOM     10  O   UNL     1      43.618   3.678  10.208  0.00  0.00    +0.000 OA
BRANCH  10  11
ATOM     11  C   UNL     1      44.569   3.192   9.351  0.00  0.00    +0.000 A 
ATOM     12  C   UNL     1      44.912   1.848   9.195  0.00  0.00    +0.000 A 
ATOM     13  C   UNL     1      45.895   1.471   8.275  0.00  0.00    +0.000 A 
ATOM     14  C   UNL     1      46.545   2.440   7.505  0.00  0.00    +0.000 A 
ATOM     15  C   UNL     1      46.210   3.787   7.664  0.00  0.00    +0.000 A 
ATOM     16  C   UNL     1      45.227   4.159   8.585  0.00  0.00    +0.000 A 
BRANCH  14  17
ATOM     17  C   UNL     1      47.545   2.046   6.560  0.00  0.00    +0.000 C 
ATOM     18  N   UNL     1      48.359   1.728   5.794  0.00  0.00    +0.000 NA
ENDBRANCH  14  17
ENDBRANCH  10  11
ENDBRANCH   1  10
TORSDOF 5
ENDMDL
MODEL 3
REMARK VINA RESULT:    -6.115      2.794      5.926
REMARK INTER + INTRA:          -8.317
REMARK INTER:                  -7.845
REMARK INTRA:                  -0.472
REMARK UNBOUND:                -0.415
REMARK  Name = 
REMARK  6 active torsions:
REMARK  status: ('A' for Active; 'I' for Inactive)
REMARK    1  A    between atoms: C_1  and  S_2
REMARK    2  A    between atoms: S_2  and  C_3
REMARK    3  A    between atoms: C_6  and  C_7
REMARK    4  A    between atoms: C_7  and  O_8
REMARK    5  A    between atoms: O_8  and  C_9
REMARK    6  A    between atoms: C_12  and  C_13
REMARK                            x       y       z     vdW  Elec       q    Type
REMARK                         _______ _______ _______ _____ _____    ______ ____
ROOT
ATOM      1  C   UNL     1      43.421   4.809  10.616  0.00  0.00    +0.000 C 
ENDROOT
BRANCH   1   5
ATOM      2  C   UNL     1      45.888   2.340   8.263  0.00  0.00    +0.000 A 
ATOM      3  C   UNL     1      44.939   1.802   9.126  0.00  0.00    +0.000 A 
ATOM      4  N   UNL     1      44.119   2.565   9.895  0.00  0.00    +0.000 NA
ATOM      5  C   UNL     1      44.268   3.908   9.760  0.00  0.00    +0.000 A 
ATOM      6  C   UNL     1      45.217   4.442   8.897  0.00  0.00    +0.000 A 
ATOM      7  N   UNL     1      46.041   3.678   8.142  0.00  0.00    +0.000 NA
BRANCH   2   9
ATOM      8  C   UNL     1      47.976   2.499   6.478  0.00  0.00    +0.000 C 
ATOM      9  S   UNL     1      46.929   1.267   7.296  0.00  0.00    +0.000 S 
ENDBRANCH   2   9
ENDBRANCH   1   5
BRANCH   1  10
ATOM     10  O   UNL     1      43.709   4.588  12.000  0.00  0.00    +0.000 OA
BRANCH  10  11
ATOM     11  C   UNL     1      44.865   5.148  12.472  0.00  0.00    +0.000 A 
ATOM     12  C   UNL     1      45.278   6.464  12.256  0.00  0.00    +0.000 A 
ATOM     13  C   UNL     1      46.479   6.927  12.804  0.00  0.00    +0.000 A 
ATOM     14  C   UNL     1      47.277   6.073  13.570  0.00  0.00    +0.000 A 
ATOM     15  C   UNL     1      46.870   4.753  13.782  0.00  0.00    +0.000 A 
ATOM     16  C   UNL     1      45.669   4.294  13.233  0.00  0.00    +0.000 A 
BRANCH  14  17
ATOM     17  C   UNL     1      48.501   6.556  14.134  0.00  0.00    +0.000 C 
ATOM     18  N   UNL     1      49.494   6.946  14.593  0.00  0.00    +0.000 NA
ENDBRANCH  14  17
ENDBRANCH  10  11
ENDBRANCH   1  10
TORSDOF 5
ENDMDL
MODEL 4
REMARK VINA RESULT:    -5.226      4.453      8.173
REMARK INTER + INTRA:          -7.169
REMARK INTER:                  -6.883
REMARK INTRA:                  -0.286
REMARK UNBOUND:                -0.415
REMARK  Name = 
REMARK  6 active torsions:
REMARK  status: ('A' for Active; 'I' for Inactive)
REMARK    1  A    between atoms: C_1  and  S_2
REMARK    2  A    between atoms: S_2  and  C_3
REMARK    3  A    between atoms: C_6  and  C_7
REMARK    4  A    between atoms: C_7  and  O_8
REMARK    5  A    between atoms: O_8  and  C_9
REMARK    6  A    between atoms: C_12  and  C_13
REMARK                            x       y       z     vdW  Elec       q    Type
REMARK                         _______ _______ _______ _____ _____    ______ ____
ROOT
ATOM      1  C   UNL     1      46.777   5.063  14.420  0.00  0.00    +0.000 C 
ENDROOT
BRANCH   1   5
ATOM      2  C   UNL     1      45.061   4.171  10.681  0.00  0.00    +0.000 A 
ATOM      3  C   UNL     1      45.069   3.240  11.713  0.00  0.00    +0.000 A 
ATOM      4  N   UNL     1      45.604   3.492  12.936  0.00  0.00    +0.000 NA
ATOM      5  C   UNL     1      46.127   4.734  13.103  0.00  0.00    +0.000 A 
ATOM      6  C   UNL     1      46.120   5.662  12.070  0.00  0.00    +0.000 A 
ATOM      7  N   UNL     1      45.596   5.402  10.848  0.00  0.00    +0.000 NA
BRANCH   2   9
ATOM      8  C   UNL     1      45.018   2.088   8.884  0.00  0.00    +0.000 C 
ATOM      9  S   UNL     1      44.346   3.756   9.104  0.00  0.00    +0.000 S 
ENDBRANCH   2   9
ENDBRANCH   1   5
BRANCH   1  10
ATOM     10  O   UNL     1      46.815   3.903  15.255  0.00  0.00    +0.000 OA
BRANCH  10  11
ATOM     11  C   UNL     1      47.519   4.023  16.423  0.00  0.00    +0.000 A 
ATOM     12  C   UNL     1      47.621   3.047  17.415  0.00  0.00    +0.000 A 
ATOM     13  C   UNL     1      48.384   3.283  18.563  0.00  0.00    +0.000 A 
ATOM     14  C   UNL     1      49.050   4.501  18.726  0.00  0.00    +0.000 A 
ATOM     15  C   UNL     1      48.945   5.483  17.738  0.00  0.00    +0.000 A 
ATOM     16  C   UNL     1      48.181   5.243  16.592  0.00  0.00    +0.000 A 
BRANCH  14  17
ATOM     17  C   UNL     1      49.836   4.732  19.900  0.00  0.00    +0.000 C 
ATOM     18  N   UNL     1      50.476   4.921  20.851  0.00  0.00    +0.000 NA
ENDBRANCH  14  17
ENDBRANCH  10  11
ENDBRANCH   1  10
TORSDOF 5
ENDMDL
MODEL 5
REMARK VINA RESULT:    -5.096      4.512      6.091
REMARK INTER + INTRA:          -7.001
REMARK INTER:                  -6.676
REMARK INTRA:                  -0.325
REMARK UNBOUND:                -0.415
REMARK  Name = 
REMARK  6 active torsions:
REMARK  status: ('A' for Active; 'I' for Inactive)
REMARK    1  A    between atoms: C_1  and  S_2
REMARK    2  A    between atoms: S_2  and  C_3
REMARK    3  A    between atoms: C_6  and  C_7
REMARK    4  A    between atoms: C_7  and  O_8
REMARK    5  A    between atoms: O_8  and  C_9
REMARK    6  A    between atoms: C_12  and  C_13
REMARK                            x       y       z     vdW  Elec       q    Type
REMARK                         _______ _______ _______ _____ _____    ______ ____
ROOT
ATOM      1  C   UNL     1      47.521   4.316  16.157  0.00  0.00    +0.000 C 
ENDROOT
BRANCH   1   5
ATOM      2  C   UNL     1      51.020   2.268  17.291  0.00  0.00    +0.000 A 
ATOM      3  C   UNL     1      50.864   3.627  17.542  0.00  0.00    +0.000 A 
ATOM      4  N   UNL     1      49.747   4.321  17.201  0.00  0.00    +0.000 NA
ATOM      5  C   UNL     1      48.766   3.598  16.602  0.00  0.00    +0.000 A 
ATOM      6  C   UNL     1      48.925   2.240  16.352  0.00  0.00    +0.000 A 
ATOM      7  N   UNL     1      50.045   1.555  16.683  0.00  0.00    +0.000 NA
BRANCH   2   9
ATOM      8  C   UNL     1      53.643   2.853  17.882  0.00  0.00    +0.000 C 
ATOM      9  S   UNL     1      52.521   1.436  17.765  0.00  0.00    +0.000 S 
ENDBRANCH   2   9
ENDBRANCH   1   5
BRANCH   1  10
ATOM     10  O   UNL     1      47.834   5.249  15.120  0.00  0.00    +0.000 OA
BRANCH  10  11
ATOM     11  C   UNL     1      47.056   5.183  13.996  0.00  0.00    +0.000 A 
ATOM     12  C   UNL     1      46.786   6.245  13.130  0.00  0.00    +0.000 A 
ATOM     13  C   UNL     1      45.984   6.050  12.001  0.00  0.00    +0.000 A 
ATOM     14  C   UNL     1      45.444   4.790  11.732  0.00  0.00    +0.000 A 
ATOM     15  C   UNL     1      45.706   3.727  12.599  0.00  0.00    +0.000 A 
ATOM     16  C   UNL     1      46.508   3.925  13.727  0.00  0.00    +0.000 A 
BRANCH  14  17
ATOM     17  C   UNL     1      44.630   4.597  10.570  0.00  0.00    +0.000 C 
ATOM     18  N   UNL     1      43.971   4.444   9.626  0.00  0.00    +0.000 NA
ENDBRANCH  14  17
ENDBRANCH  10  11
ENDBRANCH   1  10
TORSDOF 5
ENDMDL
MODEL 6
REMARK VINA RESULT:    -5.038      4.689      7.797
REMARK INTER + INTRA:          -6.926
REMARK INTER:                  -6.621
REMARK INTRA:                  -0.306
REMARK UNBOUND:                -0.415
REMARK  Name = 
REMARK  6 active torsions:
REMARK  status: ('A' for Active; 'I' for Inactive)
REMARK    1  A    between atoms: C_1  and  S_2
REMARK    2  A    between atoms: S_2  and  C_3
REMARK    3  A    between atoms: C_6  and  C_7
REMARK    4  A    between atoms: C_7  and  O_8
REMARK    5  A    between atoms: O_8  and  C_9
REMARK    6  A    between atoms: C_12  and  C_13
REMARK                            x       y       z     vdW  Elec       q    Type
REMARK                         _______ _______ _______ _____ _____    ______ ____
ROOT
ATOM      1  C   UNL     1      47.388   5.074  15.213  0.00  0.00    +0.000 C 
ENDROOT
BRANCH   1   5
ATOM      2  C   UNL     1      45.040   4.404  11.785  0.00  0.00    +0.000 A 
ATOM      3  C   UNL     1      45.584   3.347  12.506  0.00  0.00    +0.000 A 
ATOM      4  N   UNL     1      46.339   3.521  13.622  0.00  0.00    +0.000 NA
ATOM      5  C   UNL     1      46.524   4.809  14.011  0.00  0.00    +0.000 A 
ATOM      6  C   UNL     1      45.980   5.863  13.288  0.00  0.00    +0.000 A 
ATOM      7  N   UNL     1      45.238   5.685  12.169  0.00  0.00    +0.000 NA
BRANCH   2   9
ATOM      8  C   UNL     1      44.895   2.596   9.715  0.00  0.00    +0.000 C 
ATOM      9  S   UNL     1      44.068   4.088  10.327  0.00  0.00    +0.000 S 
ENDBRANCH   2   9
ENDBRANCH   1   5
BRANCH   1  10
ATOM     10  O   UNL     1      47.428   3.919  16.056  0.00  0.00    +0.000 OA
BRANCH  10  11
ATOM     11  C   UNL     1      48.646   3.611  16.600  0.00  0.00    +0.000 A 
ATOM     12  C   UNL     1      49.496   4.508  17.249  0.00  0.00    +0.000 A 
ATOM     13  C   UNL     1      50.715   4.070  17.777  0.00  0.00    +0.000 A 
ATOM     14  C   UNL     1      51.093   2.730  17.655  0.00  0.00    +0.000 A 
ATOM     15  C   UNL     1      50.248   1.831  16.999  0.00  0.00    +0.000 A 
ATOM     16  C   UNL     1      49.030   2.273  16.474  0.00  0.00    +0.000 A 
BRANCH  14  17
ATOM     17  C   UNL     1      52.339   2.288  18.205  0.00  0.00    +0.000 C 
ATOM     18  N   UNL     1      53.351   1.929  18.647  0.00  0.00    +0.000 NA
ENDBRANCH  14  17
ENDBRANCH  10  11
ENDBRANCH   1  10
TORSDOF 5
ENDMDL
MODEL 7
REMARK VINA RESULT:    -4.883      3.264      6.703
REMARK INTER + INTRA:          -6.725
REMARK INTER:                  -6.422
REMARK INTRA:                  -0.303
REMARK UNBOUND:                -0.415
REMARK  Name = 
REMARK  6 active torsions:
REMARK  status: ('A' for Active; 'I' for Inactive)
REMARK    1  A    between atoms: C_1  and  S_2
REMARK    2  A    between atoms: S_2  and  C_3
REMARK    3  A    between atoms: C_6  and  C_7
REMARK    4  A    between atoms: C_7  and  O_8
REMARK    5  A    between atoms: O_8  and  C_9
REMARK    6  A    between atoms: C_12  and  C_13
REMARK                            x       y       z     vdW  Elec       q    Type
REMARK                         _______ _______ _______ _____ _____    ______ ____
ROOT
ATOM      1  C   UNL     1      44.952   5.656  11.413  0.00  0.00    +0.000 C 
ENDROOT
BRANCH   1   5
ATOM      2  C   UNL     1      45.857   3.532   7.893  0.00  0.00    +0.000 A 
ATOM      3  C   UNL     1      45.054   2.980   8.884  0.00  0.00    +0.000 A 
ATOM      4  N   UNL     1      44.732   3.635  10.029  0.00  0.00    +0.000 NA
ATOM      5  C   UNL     1      45.234   4.891  10.148  0.00  0.00    +0.000 A 
ATOM      6  C   UNL     1      46.037   5.441   9.156  0.00  0.00    +0.000 A 
ATOM      7  N   UNL     1      46.366   4.779   8.022  0.00  0.00    +0.000 NA
BRANCH   2   9
ATOM      8  C   UNL     1      47.964   2.169   6.765  0.00  0.00    +0.000 C 
ATOM      9  S   UNL     1      46.238   2.600   6.425  0.00  0.00    +0.000 S 
ENDBRANCH   2   9
ENDBRANCH   1   5
BRANCH   1  10
ATOM     10  O   UNL     1      46.096   6.426  11.788  0.00  0.00    +0.000 OA
BRANCH  10  11
ATOM     11  C   UNL     1      46.691   6.083  12.973  0.00  0.00    +0.000 A 
ATOM     12  C   UNL     1      47.693   6.809  13.620  0.00  0.00    +0.000 A 
ATOM     13  C   UNL     1      48.215   6.362  14.837  0.00  0.00    +0.000 A 
ATOM     14  C   UNL     1      47.740   5.181  15.415  0.00  0.00    +0.000 A 
ATOM     15  C   UNL     1      46.743   4.448  14.767  0.00  0.00    +0.000 A 
ATOM     16  C   UNL     1      46.223   4.899  13.550  0.00  0.00    +0.000 A 
BRANCH  14  17
ATOM     17  C   UNL     1      48.274   4.734  16.666  0.00  0.00    +0.000 C 
ATOM     18  N   UNL     1      48.705   4.371  17.682  0.00  0.00    +0.000 NA
ENDBRANCH  14  17
ENDBRANCH  10  11
ENDBRANCH   1  10
TORSDOF 5
ENDMDL
MODEL 8
REMARK VINA RESULT:    -4.781      5.072      6.548
REMARK INTER + INTRA:          -6.594
REMARK INTER:                  -6.294
REMARK INTRA:                  -0.300
REMARK UNBOUND:                -0.415
REMARK  Name = 
REMARK  6 active torsions:
REMARK  status: ('A' for Active; 'I' for Inactive)
REMARK    1  A    between atoms: C_1  and  S_2
REMARK    2  A    between atoms: S_2  and  C_3
REMARK    3  A    between atoms: C_6  and  C_7
REMARK    4  A    between atoms: C_7  and  O_8
REMARK    5  A    between atoms: O_8  and  C_9
REMARK    6  A    between atoms: C_12  and  C_13
REMARK                            x       y       z     vdW  Elec       q    Type
REMARK                         _______ _______ _______ _____ _____    ______ ____
ROOT
ATOM      1  C   UNL     1      47.151   3.741  15.930  0.00  0.00    +0.000 C 
ENDROOT
BRANCH   1   5
ATOM      2  C   UNL     1      50.967   3.186  17.619  0.00  0.00    +0.000 A 
ATOM      3  C   UNL     1      50.266   2.128  17.052  0.00  0.00    +0.000 A 
ATOM      4  N   UNL     1      49.037   2.267  16.490  0.00  0.00    +0.000 NA
ATOM      5  C   UNL     1      48.527   3.525  16.497  0.00  0.00    +0.000 A 
ATOM      6  C   UNL     1      49.229   4.582  17.065  0.00  0.00    +0.000 A 
ATOM      7  N   UNL     1      50.448   4.435  17.636  0.00  0.00    +0.000 NA
BRANCH   2   9
ATOM      8  C   UNL     1      52.857   1.199  17.836  0.00  0.00    +0.000 C 
ATOM      9  S   UNL     1      52.570   2.915  18.343  0.00  0.00    +0.000 S 
ENDBRANCH   2   9
ENDBRANCH   1   5
BRANCH   1  10
ATOM     10  O   UNL     1      47.187   3.661  14.503  0.00  0.00    +0.000 OA
BRANCH  10  11
ATOM     11  C   UNL     1      46.555   4.669  13.826  0.00  0.00    +0.000 A 
ATOM     12  C   UNL     1      45.192   4.718  13.528  0.00  0.00    +0.000 A 
ATOM     13  C   UNL     1      44.658   5.813  12.841  0.00  0.00    +0.000 A 
ATOM     14  C   UNL     1      45.487   6.866  12.444  0.00  0.00    +0.000 A 
ATOM     15  C   UNL     1      46.853   6.817  12.734  0.00  0.00    +0.000 A 
ATOM     16  C   UNL     1      47.382   5.721  13.422  0.00  0.00    +0.000 A 
BRANCH  14  17
ATOM     17  C   UNL     1      44.931   7.986  11.747  0.00  0.00    +0.000 C 
ATOM     18  N   UNL     1      44.483   8.896  11.180  0.00  0.00    +0.000 NA
ENDBRANCH  14  17
ENDBRANCH  10  11
ENDBRANCH   1  10
TORSDOF 5
ENDMDL
MODEL 9
REMARK VINA RESULT:    -4.719      4.815      7.592
REMARK INTER + INTRA:          -6.513
REMARK INTER:                  -6.174
REMARK INTRA:                  -0.339
REMARK UNBOUND:                -0.415
REMARK  Name = 
REMARK  6 active torsions:
REMARK  status: ('A' for Active; 'I' for Inactive)
REMARK    1  A    between atoms: C_1  and  S_2
REMARK    2  A    between atoms: S_2  and  C_3
REMARK    3  A    between atoms: C_6  and  C_7
REMARK    4  A    between atoms: C_7  and  O_8
REMARK    5  A    between atoms: O_8  and  C_9
REMARK    6  A    between atoms: C_12  and  C_13
REMARK                            x       y       z     vdW  Elec       q    Type
REMARK                         _______ _______ _______ _____ _____    ______ ____
ROOT
ATOM      1  C   UNL     1      46.938   3.828  14.210  0.00  0.00    +0.000 C 
ENDROOT
BRANCH   1   5
ATOM      2  C   UNL     1      45.730   7.583  12.739  0.00  0.00    +0.000 A 
ATOM      3  C   UNL     1      47.040   7.352  13.142  0.00  0.00    +0.000 A 
ATOM      4  N   UNL     1      47.472   6.153  13.614  0.00  0.00    +0.000 NA
ATOM      5  C   UNL     1      46.538   5.168  13.656  0.00  0.00    +0.000 A 
ATOM      6  C   UNL     1      45.228   5.402  13.253  0.00  0.00    +0.000 A 
ATOM      7  N   UNL     1      44.800   6.602  12.796  0.00  0.00    +0.000 NA
BRANCH   2   9
ATOM      8  C   UNL     1      46.854  10.022  12.141  0.00  0.00    +0.000 C 
ATOM      9  S   UNL     1      45.246   9.188  12.141  0.00  0.00    +0.000 S 
ENDBRANCH   2   9
ENDBRANCH   1   5
BRANCH   1  10
ATOM     10  O   UNL     1      46.842   3.836  15.637  0.00  0.00    +0.000 OA
BRANCH  10  11
ATOM     11  C   UNL     1      48.021   3.705  16.321  0.00  0.00    +0.000 A 
ATOM     12  C   UNL     1      48.669   2.501  16.601  0.00  0.00    +0.000 A 
ATOM     13  C   UNL     1      49.880   2.496  17.299  0.00  0.00    +0.000 A 
ATOM     14  C   UNL     1      50.451   3.699  17.724  0.00  0.00    +0.000 A 
ATOM     15  C   UNL     1      49.802   4.906  17.452  0.00  0.00    +0.000 A 
ATOM     16  C   UNL     1      48.591   4.906  16.754  0.00  0.00    +0.000 A 
BRANCH  14  17
ATOM     17  C   UNL     1      51.696   3.686  18.432  0.00  0.00    +0.000 C 
ATOM     18  N   UNL     1      52.706   3.672  19.005  0.00  0.00    +0.000 NA
ENDBRANCH  14  17
ENDBRANCH  10  11
ENDBRANCH   1  10
TORSDOF 5
ENDMDL
