MODEL 1
REMARK VINA RESULT:    -8.031      0.000      0.000
REMARK INTER + INTRA:         -11.904
REMARK INTER:                 -11.317
REMARK INTRA:                  -0.588
REMARK UNBOUND:                -0.588
REMARK  Name = 
REMARK  8 active torsions:
REMARK  status: ('A' for Active; 'I' for Inactive)
REMARK    1  A    between atoms: N_1  and  C_2
REMARK    2  A    between atoms: C_2  and  C_3
REMARK    3  A    between atoms: C_7  and  C_8
REMARK    4  A    between atoms: C_8  and  C_9
REMARK    5  A    between atoms: C_9  and  N_10
REMARK    6  A    between atoms: N_10  and  C_11
REMARK    7  A    between atoms: CA_14  and  C_15
REMARK    8  A    between atoms: C_15  and  OXT_17
REMARK                            x       y       z     vdW  Elec       q    Type
REMARK                         _______ _______ _______ _____ _____    ______ ____
ROOT
ATOM      1  C   UNL     1      43.393   4.448  10.989  0.00  0.00    +0.000 C 
ENDROOT
BRANCH   1   2
ATOM      2  N   UNL     1      43.661   4.680   9.561  0.00  0.00    +0.000 N 
ATOM      3  H   UNL     1      43.880   5.653   9.361  0.00  0.00    +0.000 HD
BRANCH   2   4
ATOM      4  C   UNL     1      44.552   3.797   8.926  0.00  0.00    +0.000 A 
ATOM      5  C   UNL     1      45.521   4.218   8.006  0.00  0.00    +0.000 A 
ATOM      6  C   UNL     1      46.425   3.315   7.451  0.00  0.00    +0.000 A 
ATOM      7  CA  UNL     1      46.360   1.995   7.854  0.00  0.00    +0.000 A 
ATOM      8  N   UNL     1      45.473   1.520   8.774  0.00  0.00    +0.000 NA
ATOM      9  C   UNL     1      44.616   2.443   9.292  0.00  0.00    +0.000 A 
BRANCH   7  10
ATOM     10  C   UNL     1      47.309   0.997   7.277  0.00  0.00    +0.000 C 
ATOM     11  O   UNL     1      48.191   1.254   6.478  0.00  0.00    +0.000 OA
BRANCH  10  12
ATOM     12  OXT UNL     1      47.052  -0.244   7.758  0.00  0.00    +0.000 OA
ATOM     13  HXT UNL     1      47.316  -0.906   7.076  0.00  0.00    +0.000 HD
ENDBRANCH  10  12
ENDBRANCH   7  10
ENDBRANCH   2   4
ENDBRANCH   1   2
BRANCH   1  14
ATOM     14  C   UNL     1      43.465   5.749  11.799  0.00  0.00    +0.000 C 
BRANCH  14  19
ATOM     15  C   UNL     1      46.639   5.337  13.886  0.00  0.00    +0.000 A 
ATOM     16  C   UNL     1      47.525   6.177  13.200  0.00  0.00    +0.000 A 
ATOM     17  C   UNL     1      47.086   6.909  12.096  0.00  0.00    +0.000 A 
ATOM     18  C   UNL     1      45.767   6.799  11.659  0.00  0.00    +0.000 A 
ATOM     19  C   UNL     1      44.865   5.963  12.328  0.00  0.00    +0.000 A 
ATOM     20  C   UNL     1      45.311   5.242  13.448  0.00  0.00    +0.000 A 
BRANCH  15  21
ATOM     21  C   UNL     1      47.126   4.472  15.020  0.00  0.00    +0.000 C 
BRANCH  21  22
ATOM     22  N   UNL     1      47.444   3.134  14.535  0.00  0.00    +0.000 NA
ATOM     23  H   UNL     1      48.219   2.755  15.074  0.00  0.00    +0.000 HD
ATOM     24  H   UNL     1      47.767   3.202  13.571  0.00  0.00    +0.000 HD
ENDBRANCH  21  22
ENDBRANCH  15  21
ENDBRANCH  14  19
ENDBRANCH   1  14
TORSDOF 8
ENDMDL
MODEL 2
REMARK VINA RESULT:    -7.821      1.475      1.983
REMARK INTER + INTRA:         -11.610
REMARK INTER:                 -10.999
REMARK INTRA:                  -0.610
REMARK UNBOUND:                -0.588
REMARK  Name = 
REMARK  8 active torsions:
REMARK  status: ('A' for Active; 'I' for Inactive)
REMARK    1  A    between atoms: N_1  and  C_2
REMARK    2  A    between atoms: C_2  and  C_3
REMARK    3  A    between atoms: C_7  and  C_8
REMARK    4  A    between atoms: C_8  and  C_9
REMARK    5  A    between atoms: C_9  and  N_10
REMARK    6  A    between atoms: N_10  and  C_11
REMARK    7  A    between atoms: CA_14  and  C_15
REMARK    8  A    between atoms: C_15  and  OXT_17
REMARK                            x       y       z     vdW  Elec       q    Type
REMARK                         _______ _______ _______ _____ _____    ______ ____
ROOT
ATOM      1  C   UNL     1      43.088   4.257  11.155  0.00  0.00    +0.000 C 
ENDROOT
BRANCH   1   2
ATOM      2  N   UNL     1      43.776   4.781   9.965  0.00  0.00    +0.000 N 
ATOM      3  H   UNL     1      44.250   5.663  10.148  0.00  0.00    +0.000 HD
BRANCH   2   4
ATOM      4  C   UNL     1      44.589   3.885   9.250  0.00  0.00    +0.000 A 
ATOM      5  C   UNL     1      45.569   4.300   8.339  0.00  0.00    +0.000 A 
ATOM      6  C   UNL     1      46.395   3.376   7.701  0.00  0.00    +0.000 A 
ATOM      7  CA  UNL     1      46.241   2.039   8.013  0.00  0.00    +0.000 A 
ATOM      8  N   UNL     1      45.338   1.564   8.917  0.00  0.00    +0.000 NA
ATOM      9  C   UNL     1      44.560   2.507   9.518  0.00  0.00    +0.000 A 
BRANCH   7  10
ATOM     10  C   UNL     1      47.104   1.020   7.345  0.00  0.00    +0.000 C 
ATOM     11  O   UNL     1      47.913   1.258   6.467  0.00  0.00    +0.000 OA
BRANCH  10  12
ATOM     12  OXT UNL     1      46.860  -0.217   7.845  0.00  0.00    +0.000 OA
ATOM     13  HXT UNL     1      47.488  -0.853   7.427  0.00  0.00    +0.000 HD
ENDBRANCH  10  12
ENDBRANCH   7  10
ENDBRANCH   2   4
ENDBRANCH   1   2
BRANCH   1  14
ATOM     14  C   UNL     1      43.206   5.215  12.348  0.00  0.00    +0.000 C 
BRANCH  14  19
ATOM     15  C   UNL     1      46.483   7.071  12.999  0.00  0.00    +0.000 A 
ATOM     16  C   UNL     1      47.294   6.030  13.471  0.00  0.00    +0.000 A 
ATOM     17  C   UNL     1      46.798   4.727  13.533  0.00  0.00    +0.000 A 
ATOM     18  C   UNL     1      45.489   4.453  13.141  0.00  0.00    +0.000 A 
ATOM     19  C   UNL     1      44.660   5.478  12.670  0.00  0.00    +0.000 A 
ATOM     20  C   UNL     1      45.171   6.783  12.595  0.00  0.00    +0.000 A 
BRANCH  15  21
ATOM     21  C   UNL     1      46.976   8.494  13.016  0.00  0.00    +0.000 C 
BRANCH  21  22
ATOM     22  N   UNL     1      46.999   9.005  14.381  0.00  0.00    +0.000 NA
ATOM     23  H   UNL     1      47.514   8.359  14.975  0.00  0.00    +0.000 HD
ATOM     24  H   UNL     1      46.045   9.030  14.740  0.00  0.00    +0.000 HD
ENDBRANCH  21  22
ENDBRANCH  15  21
ENDBRANCH  14  19
ENDBRANCH   1  14
TORSDOF 8
ENDMDL
MODEL 3
REMARK VINA RESULT:    -6.813      3.559      6.584
REMARK INTER + INTRA:         -10.188
REMARK INTER:                  -9.547
REMARK INTRA:                  -0.641
REMARK UNBOUND:                -0.588
REMARK  Name = 
REMARK  8 active torsions:
REMARK  status: ('A' for Active; 'I' for Inactive)
REMARK    1  A    between atoms: N_1  and  C_2
REMARK    2  A    between atoms: C_2  and  C_3
REMARK    3  A    between atoms: C_7  and  C_8
REMARK    4  A    between atoms: C_8  and  C_9
REMARK    5  A    between atoms: C_9  and  N_10
REMARK    6  A    between atoms: N_10  and  C_11
REMARK    7  A    between atoms: CA_14  and  C_15
REMARK    8  A    between atoms: C_15  and  OXT_17
REMARK                            x       y       z     vdW  Elec       q    Type
REMARK                         _______ _______ _______ _____ _____    ______ ____
ROOT
ATOM      1  C   UNL     1      44.605   2.914  11.948  0.00  0.00    +0.000 C 
ENDROOT
BRANCH   1   2
ATOM      2  N   UNL     1      44.341   4.223  12.566  0.00  0.00    +0.000 N 
ATOM      3  H   UNL     1      43.675   4.162  13.333  0.00  0.00    +0.000 HD
BRANCH   2   4
ATOM      4  C   UNL     1      45.456   5.011  12.898  0.00  0.00    +0.000 A 
ATOM      5  C   UNL     1      45.647   6.311  12.413  0.00  0.00    +0.000 A 
ATOM      6  C   UNL     1      46.737   7.078  12.821  0.00  0.00    +0.000 A 
ATOM      7  CA  UNL     1      47.612   6.531  13.740  0.00  0.00    +0.000 A 
ATOM      8  N   UNL     1      47.470   5.290  14.286  0.00  0.00    +0.000 NA
ATOM      9  C   UNL     1      46.385   4.584  13.860  0.00  0.00    +0.000 A 
BRANCH   7  10
ATOM     10  C   UNL     1      48.795   7.320  14.196  0.00  0.00    +0.000 C 
ATOM     11  O   UNL     1      48.772   8.171  15.066  0.00  0.00    +0.000 OA
BRANCH  10  12
ATOM     12  OXT UNL     1      49.904   6.965  13.503  0.00  0.00    +0.000 OA
ATOM     13  HXT UNL     1      50.134   6.033  13.734  0.00  0.00    +0.000 HD
ENDBRANCH  10  12
ENDBRANCH   7  10
ENDBRANCH   2   4
ENDBRANCH   1   2
BRANCH   1  14
ATOM     14  C   UNL     1      43.972   2.805  10.555  0.00  0.00    +0.000 C 
BRANCH  14  19
ATOM     15  C   UNL     1      46.520   2.331   7.746  0.00  0.00    +0.000 A 
ATOM     16  C   UNL     1      46.736   3.656   7.351  0.00  0.00    +0.000 A 
ATOM     17  C   UNL     1      46.099   4.703   8.020  0.00  0.00    +0.000 A 
ATOM     18  C   UNL     1      45.229   4.435   9.076  0.00  0.00    +0.000 A 
ATOM     19  C   UNL     1      44.995   3.116   9.486  0.00  0.00    +0.000 A 
ATOM     20  C   UNL     1      45.654   2.072   8.818  0.00  0.00    +0.000 A 
BRANCH  15  21
ATOM     21  C   UNL     1      47.129   1.191   6.972  0.00  0.00    +0.000 C 
BRANCH  21  22
ATOM     22  N   UNL     1      48.309   1.646   6.246  0.00  0.00    +0.000 NA
ATOM     23  H   UNL     1      48.898   2.192   6.870  0.00  0.00    +0.000 HD
ATOM     24  H   UNL     1      48.014   2.275   5.501  0.00  0.00    +0.000 HD
ENDBRANCH  21  22
ENDBRANCH  15  21
ENDBRANCH  14  19
ENDBRANCH   1  14
TORSDOF 8
ENDMDL
MODEL 4
REMARK VINA RESULT:    -6.741      1.754      2.350
REMARK INTER + INTRA:         -10.086
REMARK INTER:                  -9.577
REMARK INTRA:                  -0.510
REMARK UNBOUND:                -0.588
REMARK  Name = 
REMARK  8 active torsions:
REMARK  status: ('A' for Active; 'I' for Inactive)
REMARK    1  A    between atoms: N_1  and  C_2
REMARK    2  A    between atoms: C_2  and  C_3
REMARK    3  A    between atoms: C_7  and  C_8
REMARK    4  A    between atoms: C_8  and  C_9
REMARK    5  A    between atoms: C_9  and  N_10
REMARK    6  A    between atoms: N_10  and  C_11
REMARK    7  A    between atoms: CA_14  and  C_15
REMARK    8  A    between atoms: C_15  and  OXT_17
REMARK                            x       y       z     vdW  Elec       q    Type
REMARK                         _______ _______ _______ _____ _____    ______ ____
ROOT
ATOM      1  C   UNL     1      43.961   4.737  11.195  0.00  0.00    +0.000 C 
ENDROOT
BRANCH   1   2
ATOM      2  N   UNL     1      43.795   3.488  10.436  0.00  0.00    +0.000 N 
ATOM      3  H   UNL     1      42.829   3.326  10.161  0.00  0.00    +0.000 HD
BRANCH   2   4
ATOM      4  C   UNL     1      44.689   3.261   9.375  0.00  0.00    +0.000 A 
ATOM      5  C   UNL     1      45.232   4.291   8.597  0.00  0.00    +0.000 A 
ATOM      6  C   UNL     1      46.164   4.023   7.597  0.00  0.00    +0.000 A 
ATOM      7  CA  UNL     1      46.563   2.713   7.412  0.00  0.00    +0.000 A 
ATOM      8  N   UNL     1      46.110   1.663   8.155  0.00  0.00    +0.000 NA
ATOM      9  C   UNL     1      45.206   1.980   9.124  0.00  0.00    +0.000 A 
BRANCH   7  10
ATOM     10  C   UNL     1      47.556   2.386   6.346  0.00  0.00    +0.000 C 
ATOM     11  O   UNL     1      48.468   1.587   6.463  0.00  0.00    +0.000 OA
BRANCH  10  12
ATOM     12  OXT UNL     1      47.310   3.105   5.224  0.00  0.00    +0.000 OA
ATOM     13  HXT UNL     1      47.381   4.064   5.444  0.00  0.00    +0.000 HD
ENDBRANCH  10  12
ENDBRANCH   7  10
ENDBRANCH   2   4
ENDBRANCH   1   2
BRANCH   1  14
ATOM     14  C   UNL     1      45.319   4.796  11.905  0.00  0.00    +0.000 C 
BRANCH  14  19
ATOM     15  C   UNL     1      47.576   7.845  12.367  0.00  0.00    +0.000 A 
ATOM     16  C   UNL     1      46.666   8.889  12.161  0.00  0.00    +0.000 A 
ATOM     17  C   UNL     1      45.319   8.610  11.921  0.00  0.00    +0.000 A 
ATOM     18  C   UNL     1      44.873   7.290  11.869  0.00  0.00    +0.000 A 
ATOM     19  C   UNL     1      45.767   6.230  12.069  0.00  0.00    +0.000 A 
ATOM     20  C   UNL     1      47.116   6.521  12.326  0.00  0.00    +0.000 A 
BRANCH  15  21
ATOM     21  C   UNL     1      49.046   8.131  12.533  0.00  0.00    +0.000 C 
BRANCH  21  22
ATOM     22  N   UNL     1      49.786   6.888  12.716  0.00  0.00    +0.000 NA
ATOM     23  H   UNL     1      49.204   6.220  13.216  0.00  0.00    +0.000 HD
ATOM     24  H   UNL     1      50.593   7.071  13.311  0.00  0.00    +0.000 HD
ENDBRANCH  21  22
ENDBRANCH  15  21
ENDBRANCH  14  19
ENDBRANCH   1  14
TORSDOF 8
ENDMDL
MODEL 5
REMARK VINA RESULT:    -6.728      1.730      2.847
REMARK INTER + INTRA:         -10.068
REMARK INTER:                  -9.461
REMARK INTRA:                  -0.607
REMARK UNBOUND:                -0.588
REMARK  Name = 
REMARK  8 active torsions:
REMARK  status: ('A' for Active; 'I' for Inactive)
REMARK    1  A    between atoms: N_1  and  C_2
REMARK    2  A    between atoms: C_2  and  C_3
REMARK    3  A    between atoms: C_7  and  C_8
REMARK    4  A    between atoms: C_8  and  C_9
REMARK    5  A    between atoms: C_9  and  N_10
REMARK    6  A    between atoms: N_10  and  C_11
REMARK    7  A    between atoms: CA_14  and  C_15
REMARK    8  A    between atoms: C_15  and  OXT_17
REMARK                            x       y       z     vdW  Elec       q    Type
REMARK                         _______ _______ _______ _____ _____    ______ ____
ROOT
ATOM      1  C   UNL     1      43.954   4.778  11.271  0.00  0.00    +0.000 C 
ENDROOT
BRANCH   1   2
ATOM      2  N   UNL     1      43.730   3.559  10.477  0.00  0.00    +0.000 N 
ATOM      3  H   UNL     1      42.764   3.467  10.173  0.00  0.00    +0.000 HD
BRANCH   2   4
ATOM      4  C   UNL     1      44.637   3.300   9.434  0.00  0.00    +0.000 A 
ATOM      5  C   UNL     1      45.207   4.309   8.648  0.00  0.00    +0.000 A 
ATOM      6  C   UNL     1      46.151   4.009   7.667  0.00  0.00    +0.000 A 
ATOM      7  CA  UNL     1      46.532   2.690   7.510  0.00  0.00    +0.000 A 
ATOM      8  N   UNL     1      46.052   1.661   8.264  0.00  0.00    +0.000 NA
ATOM      9  C   UNL     1      45.138   2.008   9.213  0.00  0.00    +0.000 A 
BRANCH   7  10
ATOM     10  C   UNL     1      47.536   2.329   6.466  0.00  0.00    +0.000 C 
ATOM     11  O   UNL     1      48.351   1.429   6.563  0.00  0.00    +0.000 OA
BRANCH  10  12
ATOM     12  OXT UNL     1      47.424   3.146   5.390  0.00  0.00    +0.000 OA
ATOM     13  HXT UNL     1      47.586   4.074   5.682  0.00  0.00    +0.000 HD
ENDBRANCH  10  12
ENDBRANCH   7  10
ENDBRANCH   2   4
ENDBRANCH   1   2
BRANCH   1  14
ATOM     14  C   UNL     1      45.153   4.628  12.216  0.00  0.00    +0.000 C 
BRANCH  14  19
ATOM     15  C   UNL     1      45.820   8.390  12.291  0.00  0.00    +0.000 A 
ATOM     16  C   UNL     1      47.110   8.426  12.835  0.00  0.00    +0.000 A 
ATOM     17  C   UNL     1      47.780   7.238  13.132  0.00  0.00    +0.000 A 
ATOM     18  C   UNL     1      47.164   6.008  12.905  0.00  0.00    +0.000 A 
ATOM     19  C   UNL     1      45.874   5.949  12.364  0.00  0.00    +0.000 A 
ATOM     20  C   UNL     1      45.214   7.149  12.053  0.00  0.00    +0.000 A 
BRANCH  15  21
ATOM     21  C   UNL     1      45.053   9.665  12.054  0.00  0.00    +0.000 C 
BRANCH  21  22
ATOM     22  N   UNL     1      43.732   9.368  11.513  0.00  0.00    +0.000 NA
ATOM     23  H   UNL     1      43.032   9.503  12.240  0.00  0.00    +0.000 HD
ATOM     24  H   UNL     1      43.696   8.383  11.256  0.00  0.00    +0.000 HD
ENDBRANCH  21  22
ENDBRANCH  15  21
ENDBRANCH  14  19
ENDBRANCH   1  14
TORSDOF 8
ENDMDL
MODEL 6
REMARK VINA RESULT:    -6.571      3.485      6.528
REMARK INTER + INTRA:          -9.848
REMARK INTER:                  -9.290
REMARK INTRA:                  -0.558
REMARK UNBOUND:                -0.588
REMARK  Name = 
REMARK  8 active torsions:
REMARK  status: ('A' for Active; 'I' for Inactive)
REMARK    1  A    between atoms: N_1  and  C_2
REMARK    2  A    between atoms: C_2  and  C_3
REMARK    3  A    between atoms: C_7  and  C_8
REMARK    4  A    between atoms: C_8  and  C_9
REMARK    5  A    between atoms: C_9  and  N_10
REMARK    6  A    between atoms: N_10  and  C_11
REMARK    7  A    between atoms: CA_14  and  C_15
REMARK    8  A    between atoms: C_15  and  OXT_17
REMARK                            x       y       z     vdW  Elec       q    Type
REMARK                         _______ _______ _______ _____ _____    ______ ____
ROOT
ATOM      1  C   UNL     1      43.193   4.122  11.079  0.00  0.00    +0.000 C 
ENDROOT
BRANCH   1   2
ATOM      2  N   UNL     1      43.222   4.959  12.288  0.00  0.00    +0.000 N 
ATOM      3  H   UNL     1      42.629   4.591  13.029  0.00  0.00    +0.000 HD
BRANCH   2   4
ATOM      4  C   UNL     1      44.485   5.346  12.768  0.00  0.00    +0.000 A 
ATOM      5  C   UNL     1      45.439   4.433  13.234  0.00  0.00    +0.000 A 
ATOM      6  C   UNL     1      46.703   4.857  13.640  0.00  0.00    +0.000 A 
ATOM      7  CA  UNL     1      47.001   6.203  13.544  0.00  0.00    +0.000 A 
ATOM      8  N   UNL     1      46.139   7.145  13.064  0.00  0.00    +0.000 NA
ATOM      9  C   UNL     1      44.920   6.677  12.673  0.00  0.00    +0.000 A 
BRANCH   7  10
ATOM     10  C   UNL     1      48.342   6.697  13.975  0.00  0.00    +0.000 C 
ATOM     11  O   UNL     1      49.354   6.648  13.300  0.00  0.00    +0.000 OA
BRANCH  10  12
ATOM     12  OXT UNL     1      48.286   7.206  15.230  0.00  0.00    +0.000 OA
ATOM     13  HXT UNL     1      48.807   8.043  15.253  0.00  0.00    +0.000 HD
ENDBRANCH  10  12
ENDBRANCH   7  10
ENDBRANCH   2   4
ENDBRANCH   1   2
BRANCH   1  14
ATOM     14  C   UNL     1      43.980   4.759   9.927  0.00  0.00    +0.000 C 
BRANCH  14  19
ATOM     15  C   UNL     1      46.361   3.107   7.436  0.00  0.00    +0.000 A 
ATOM     16  C   UNL     1      46.231   1.758   7.791  0.00  0.00    +0.000 A 
ATOM     17  C   UNL     1      45.343   1.380   8.799  0.00  0.00    +0.000 A 
ATOM     18  C   UNL     1      44.590   2.342   9.471  0.00  0.00    +0.000 A 
ATOM     19  C   UNL     1      44.706   3.696   9.134  0.00  0.00    +0.000 A 
ATOM     20  C   UNL     1      45.590   4.066   8.108  0.00  0.00    +0.000 A 
BRANCH  15  21
ATOM     21  C   UNL     1      47.384   3.535   6.416  0.00  0.00    +0.000 C 
BRANCH  21  22
ATOM     22  N   UNL     1      48.499   2.597   6.393  0.00  0.00    +0.000 NA
ATOM     23  H   UNL     1      48.163   1.668   6.637  0.00  0.00    +0.000 HD
ATOM     24  H   UNL     1      49.168   2.862   7.114  0.00  0.00    +0.000 HD
ENDBRANCH  21  22
ENDBRANCH  15  21
ENDBRANCH  14  19
ENDBRANCH   1  14
TORSDOF 8
ENDMDL
MODEL 7
REMARK VINA RESULT:    -6.413      3.822      6.973
REMARK INTER + INTRA:          -9.624
REMARK INTER:                  -9.114
REMARK INTRA:                  -0.510
REMARK UNBOUND:                -0.588
REMARK  Name = 
REMARK  8 active torsions:
REMARK  status: ('A' for Active; 'I' for Inactive)
REMARK    1  A    between atoms: N_1  and  C_2
REMARK    2  A    between atoms: C_2  and  C_3
REMARK    3  A    between atoms: C_7  and  C_8
REMARK    4  A    between atoms: C_8  and  C_9
REMARK    5  A    between atoms: C_9  and  N_10
REMARK    6  A    between atoms: N_10  and  C_11
REMARK    7  A    between atoms: CA_14  and  C_15
REMARK    8  A    between atoms: C_15  and  OXT_17
REMARK                            x       y       z     vdW  Elec       q    Type
REMARK                         _______ _______ _______ _____ _____    ______ ____
ROOT
ATOM      1  C   UNL     1      45.601   6.522  12.245  0.00  0.00    +0.000 C 
ENDROOT
BRANCH   1   2
ATOM      2  N   UNL     1      47.016   6.258  12.550  0.00  0.00    +0.000 N 
ATOM      3  H   UNL     1      47.597   7.086  12.441  0.00  0.00    +0.000 HD
BRANCH   2   4
ATOM      4  C   UNL     1      47.295   5.571  13.744  0.00  0.00    +0.000 A 
ATOM      5  C   UNL     1      47.999   6.144  14.810  0.00  0.00    +0.000 A 
ATOM      6  C   UNL     1      48.197   5.445  16.000  0.00  0.00    +0.000 A 
ATOM      7  CA  UNL     1      47.654   4.180  16.111  0.00  0.00    +0.000 A 
ATOM      8  N   UNL     1      46.923   3.573  15.132  0.00  0.00    +0.000 NA
ATOM      9  C   UNL     1      46.753   4.300  13.993  0.00  0.00    +0.000 A 
BRANCH   7  10
ATOM     10  C   UNL     1      47.850   3.398  17.368  0.00  0.00    +0.000 C 
ATOM     11  O   UNL     1      48.885   3.353  18.007  0.00  0.00    +0.000 OA
BRANCH  10  12
ATOM     12  OXT UNL     1      46.716   2.736  17.703  0.00  0.00    +0.000 OA
ATOM     13  HXT UNL     1      46.915   1.770  17.739  0.00  0.00    +0.000 HD
ENDBRANCH  10  12
ENDBRANCH   7  10
ENDBRANCH   2   4
ENDBRANCH   1   2
BRANCH   1  14
ATOM     14  C   UNL     1      45.343   6.568  10.733  0.00  0.00    +0.000 C 
BRANCH  14  19
ATOM     15  C   UNL     1      45.448   3.417   8.574  0.00  0.00    +0.000 A 
ATOM     16  C   UNL     1      44.655   2.544   9.329  0.00  0.00    +0.000 A 
ATOM     17  C   UNL     1      44.049   2.987  10.507  0.00  0.00    +0.000 A 
ATOM     18  C   UNL     1      44.243   4.295  10.948  0.00  0.00    +0.000 A 
ATOM     19  C   UNL     1      45.035   5.183  10.210  0.00  0.00    +0.000 A 
ATOM     20  C   UNL     1      45.626   4.734   9.018  0.00  0.00    +0.000 A 
BRANCH  15  21
ATOM     21  C   UNL     1      46.180   2.923   7.353  0.00  0.00    +0.000 C 
BRANCH  21  22
ATOM     22  N   UNL     1      46.683   4.049   6.575  0.00  0.00    +0.000 NA
ATOM     23  H   UNL     1      47.160   3.701   5.747  0.00  0.00    +0.000 HD
ATOM     24  H   UNL     1      47.384   4.543   7.126  0.00  0.00    +0.000 HD
ENDBRANCH  21  22
ENDBRANCH  15  21
ENDBRANCH  14  19
ENDBRANCH   1  14
TORSDOF 8
ENDMDL
MODEL 8
REMARK VINA RESULT:    -6.203      3.964      6.672
REMARK INTER + INTRA:          -9.329
REMARK INTER:                  -8.912
REMARK INTRA:                  -0.417
REMARK UNBOUND:                -0.588
REMARK  Name = 
REMARK  8 active torsions:
REMARK  status: ('A' for Active; 'I' for Inactive)
REMARK    1  A    between atoms: N_1  and  C_2
REMARK    2  A    between atoms: C_2  and  C_3
REMARK    3  A    between atoms: C_7  and  C_8
REMARK    4  A    between atoms: C_8  and  C_9
REMARK    5  A    between atoms: C_9  and  N_10
REMARK    6  A    between atoms: N_10  and  C_11
REMARK    7  A    between atoms: CA_14  and  C_15
REMARK    8  A    between atoms: C_15  and  OXT_17
REMARK                            x       y       z     vdW  Elec       q    Type
REMARK                         _______ _______ _______ _____ _____    ______ ____
ROOT
ATOM      1  C   UNL     1      46.057   7.301  12.728  0.00  0.00    +0.000 C 
ENDROOT
BRANCH   1   2
ATOM      2  N   UNL     1      47.385   6.706  12.942  0.00  0.00    +0.000 N 
ATOM      3  H   UNL     1      48.133   7.391  12.871  0.00  0.00    +0.000 HD
BRANCH   2   4
ATOM      4  C   UNL     1      47.539   5.872  14.062  0.00  0.00    +0.000 A 
ATOM      5  C   UNL     1      48.266   6.245  15.200  0.00  0.00    +0.000 A 
ATOM      6  C   UNL     1      48.338   5.410  16.314  0.00  0.00    +0.000 A 
ATOM      7  CA  UNL     1      47.648   4.214  16.278  0.00  0.00    +0.000 A 
ATOM      8  N   UNL     1      46.888   3.801  15.223  0.00  0.00    +0.000 NA
ATOM      9  C   UNL     1      46.844   4.656  14.163  0.00  0.00    +0.000 A 
BRANCH   7  10
ATOM     10  C   UNL     1      47.706   3.290  17.449  0.00  0.00    +0.000 C 
ATOM     11  O   UNL     1      48.717   3.007  18.064  0.00  0.00    +0.000 OA
BRANCH  10  12
ATOM     12  OXT UNL     1      46.474   2.801  17.736  0.00  0.00    +0.000 OA
ATOM     13  HXT UNL     1      45.978   2.686  16.892  0.00  0.00    +0.000 HD
ENDBRANCH  10  12
ENDBRANCH   7  10
ENDBRANCH   2   4
ENDBRANCH   1   2
BRANCH   1  14
ATOM     14  C   UNL     1      45.646   7.260  11.251  0.00  0.00    +0.000 C 
BRANCH  14  19
ATOM     15  C   UNL     1      44.257   3.700  11.285  0.00  0.00    +0.000 A 
ATOM     16  C   UNL     1      44.575   3.273   9.990  0.00  0.00    +0.000 A 
ATOM     17  C   UNL     1      45.278   4.114   9.125  0.00  0.00    +0.000 A 
ATOM     18  C   UNL     1      45.654   5.392   9.539  0.00  0.00    +0.000 A 
ATOM     19  C   UNL     1      45.343   5.841  10.828  0.00  0.00    +0.000 A 
ATOM     20  C   UNL     1      44.650   4.982  11.697  0.00  0.00    +0.000 A 
BRANCH  15  21
ATOM     21  C   UNL     1      43.419   2.838  12.192  0.00  0.00    +0.000 C 
BRANCH  21  22
ATOM     22  N   UNL     1      43.068   1.591  11.523  0.00  0.00    +0.000 NA
ATOM     23  H   UNL     1      43.879   0.977  11.508  0.00  0.00    +0.000 HD
ATOM     24  H   UNL     1      42.839   1.792  10.550  0.00  0.00    +0.000 HD
ENDBRANCH  21  22
ENDBRANCH  15  21
ENDBRANCH  14  19
ENDBRANCH   1  14
TORSDOF 8
ENDMDL
MODEL 9
REMARK VINA RESULT:    -6.182      3.607      6.962
REMARK INTER + INTRA:          -9.300
REMARK INTER:                  -8.888
REMARK INTRA:                  -0.412
REMARK UNBOUND:                -0.588
REMARK  Name = 
REMARK  8 active torsions:
REMARK  status: ('A' for Active; 'I' for Inactive)
REMARK    1  A    between atoms: N_1  and  C_2
REMARK    2  A    between atoms: C_2  and  C_3
REMARK    3  A    between atoms: C_7  and  C_8
REMARK    4  A    between atoms: C_8  and  C_9
REMARK    5  A    between atoms: C_9  and  N_10
REMARK    6  A    between atoms: N_10  and  C_11
REMARK    7  A    between atoms: CA_14  and  C_15
REMARK    8  A    between atoms: C_15  and  OXT_17
REMARK                            x       y       z     vdW  Elec       q    Type
REMARK                         _______ _______ _______ _____ _____    ______ ____
ROOT
ATOM      1  C   UNL     1      44.906   5.149  10.628  0.00  0.00    +0.000 C 
ENDROOT
BRANCH   1   2
ATOM      2  N   UNL     1      45.674   6.123  11.420  0.00  0.00    +0.000 N 
ATOM      3  H   UNL     1      45.171   6.997  11.553  0.00  0.00    +0.000 HD
BRANCH   2   4
ATOM      4  C   UNL     1      46.254   5.660  12.614  0.00  0.00    +0.000 A 
ATOM      5  C   UNL     1      47.293   6.332  13.270  0.00  0.00    +0.000 A 
ATOM      6  C   UNL     1      47.793   5.870  14.486  0.00  0.00    +0.000 A 
ATOM      7  CA  UNL     1      47.216   4.745  15.043  0.00  0.00    +0.000 A 
ATOM      8  N   UNL     1      46.176   4.062  14.484  0.00  0.00    +0.000 NA
ATOM      9  C   UNL     1      45.720   4.559  13.300  0.00  0.00    +0.000 A 
BRANCH   7  10
ATOM     10  C   UNL     1      47.729   4.216  16.342  0.00  0.00    +0.000 C 
ATOM     11  O   UNL     1      47.682   3.050  16.688  0.00  0.00    +0.000 OA
BRANCH  10  12
ATOM     12  OXT UNL     1      48.252   5.215  17.094  0.00  0.00    +0.000 OA
ATOM     13  HXT UNL     1      47.918   5.121  18.018  0.00  0.00    +0.000 HD
ENDBRANCH  10  12
ENDBRANCH   7  10
ENDBRANCH   2   4
ENDBRANCH   1   2
BRANCH   1  14
ATOM     14  C   UNL     1      45.300   5.184   9.146  0.00  0.00    +0.000 C 
BRANCH  14  19
ATOM     15  C   UNL     1      46.745   2.280   7.125  0.00  0.00    +0.000 A 
ATOM     16  C   UNL     1      46.195   1.182   7.799  0.00  0.00    +0.000 A 
ATOM     17  C   UNL     1      45.323   1.380   8.871  0.00  0.00    +0.000 A 
ATOM     18  C   UNL     1      45.006   2.671   9.290  0.00  0.00    +0.000 A 
ATOM     19  C   UNL     1      45.547   3.783   8.633  0.00  0.00    +0.000 A 
ATOM     20  C   UNL     1      46.410   3.575   7.545  0.00  0.00    +0.000 A 
BRANCH  15  21
ATOM     21  C   UNL     1      47.758   2.078   6.029  0.00  0.00    +0.000 C 
BRANCH  21  22
ATOM     22  N   UNL     1      48.978   2.819   6.324  0.00  0.00    +0.000 NA
ATOM     23  H   UNL     1      49.774   2.185   6.293  0.00  0.00    +0.000 HD
ATOM     24  H   UNL     1      48.926   3.172   7.279  0.00  0.00    +0.000 HD
ENDBRANCH  21  22
ENDBRANCH  15  21
ENDBRANCH  14  19
ENDBRANCH   1  14
TORSDOF 8
ENDMDL
