MODEL 1
REMARK VINA RESULT:    -6.734      0.000      0.000
REMARK INTER + INTRA:         -10.382
REMARK INTER:                  -8.899
REMARK INTRA:                  -1.483
REMARK UNBOUND:                -1.483
REMARK  Name = 
REMARK  6 active torsions:
REMARK  status: ('A' for Active; 'I' for Inactive)
REMARK    1  A    between atoms: N_3  and  C_4
REMARK    2  A    between atoms: C_4  and  C_5
REMARK    3  A    between atoms: C_8  and  C_20
REMARK    4  A    between atoms: C_9  and  O_10
REMARK    5  A    between atoms: C_9  and  C_11
REMARK    6  A    between atoms: C_11  and  C_12
REMARK                            x       y       z     vdW  Elec       q    Type
REMARK                         _______ _______ _______ _____ _____    ______ ____
ROOT
ATOM      1  C   UNL     1      44.821   3.557   9.707  0.00  0.00    +0.000 C 
ATOM      2  C   UNL     1      45.625   4.543   9.277  0.00  0.00    +0.000 C 
ATOM      3  C   UNL     1      45.876   5.809   9.933  0.00  0.00    +0.000 C 
ATOM      4  C   UNL     1      45.886   6.202  11.224  0.00  0.00    +0.000 C 
ATOM      5  C   UNL     1      45.856   5.169  12.399  0.00  0.00    +0.000 C 
ATOM      6  C   UNL     1      45.442   3.696  12.120  0.00  0.00    +0.000 C 
ATOM      7  C   UNL     1      44.308   3.478  11.119  0.00  0.00    +0.000 C 
ENDROOT
BRANCH   4   8
ATOM      8  C   UNL     1      45.971   7.652  11.584  0.00  0.00    +0.000 A 
ATOM      9  C   UNL     1      44.867   8.497  11.580  0.00  0.00    +0.000 A 
ATOM     10  S   UNL     1      45.148  10.075  12.147  0.00  0.00    +0.000 S 
ATOM     11  C   UNL     1      46.791   9.742  12.377  0.00  0.00    +0.000 A 
ATOM     12  N   UNL     1      47.595  10.700  12.910  0.00  0.00    +0.000 NA
ATOM     13  C   UNL     1      48.817  10.331  13.083  0.00  0.00    +0.000 A 
ATOM     14  N   UNL     1      49.313   9.107  12.730  0.00  0.00    +0.000 N 
ATOM     15  C   UNL     1      48.588   8.224  11.961  0.00  0.00    +0.000 A 
ATOM     16  O   UNL     1      49.186   7.389  11.289  0.00  0.00    +0.000 OA
ATOM     17  C   UNL     1      47.145   8.468  11.945  0.00  0.00    +0.000 A 
ATOM     18  H   UNL     1      50.308   8.943  12.761  0.00  0.00    +0.000 HD
ENDBRANCH   4   8
BRANCH   5  19
ATOM     19  O   UNL     1      44.856   5.570  13.369  0.00  0.00    +0.000 OA
ATOM     20  H   UNL     1      45.211   5.398  14.257  0.00  0.00    +0.000 HD
ENDBRANCH   5  19
BRANCH   1  21
ATOM     21  C   UNL     1      44.420   2.447   8.767  0.00  0.00    +0.000 C 
BRANCH  21  24
ATOM     22  O   UNL     1      46.630   2.026   7.041  0.00  0.00    +0.000 OA
ATOM     23  C   UNL     1      46.415   1.269   7.982  0.00  0.00    +0.000 C 
ATOM     24  N   UNL     1      45.398   1.394   8.885  0.00  0.00    +0.000 N 
ATOM     25  H   UNL     1      45.266   0.668   9.577  0.00  0.00    +0.000 HD
ENDBRANCH  21  24
ENDBRANCH   1  21
BRANCH   5  26
ATOM     26  C   UNL     1      47.228   5.135  13.172  0.00  0.00    +0.000 C 
BRANCH  26  27
ATOM     27  C   UNL     1      47.248   5.385  14.705  0.00  0.00    +0.000 C 
ATOM     28  C   UNL     1      48.448   6.216  15.181  0.00  0.00    +0.000 C 
ATOM     29  C   UNL     1      48.592   6.223  16.697  0.00  0.00    +0.000 C 
ATOM     30  O   UNL     1      48.644   4.900  17.215  0.00  0.00    +0.000 OA
ATOM     31  C   UNL     1      47.446   4.181  16.935  0.00  0.00    +0.000 C 
ATOM     32  C   UNL     1      47.262   4.021  15.432  0.00  0.00    +0.000 C 
ENDBRANCH  26  27
ENDBRANCH   5  26
TORSDOF 6
ENDMDL
MODEL 2
REMARK VINA RESULT:    -6.611      1.635      2.368
REMARK INTER + INTRA:         -10.220
REMARK INTER:                  -9.151
REMARK INTRA:                  -1.069
REMARK UNBOUND:                -1.483
REMARK  Name = 
REMARK  6 active torsions:
REMARK  status: ('A' for Active; 'I' for Inactive)
REMARK    1  A    between atoms: N_3  and  C_4
REMARK    2  A    between atoms: C_4  and  C_5
REMARK    3  A    between atoms: C_8  and  C_20
REMARK    4  A    between atoms: C_9  and  O_10
REMARK    5  A    between atoms: C_9  and  C_11
REMARK    6  A    between atoms: C_11  and  C_12
REMARK                            x       y       z     vdW  Elec       q    Type
REMARK                         _______ _______ _______ _____ _____    ______ ____
ROOT
ATOM      1  C   UNL     1      44.818   3.637   9.710  0.00  0.00    +0.000 C 
ATOM      2  C   UNL     1      45.636   4.632   9.328  0.00  0.00    +0.000 C 
ATOM      3  C   UNL     1      45.893   5.866  10.039  0.00  0.00    +0.000 C 
ATOM      4  C   UNL     1      45.895   6.205  11.346  0.00  0.00    +0.000 C 
ATOM      5  C   UNL     1      45.845   5.125  12.475  0.00  0.00    +0.000 C 
ATOM      6  C   UNL     1      45.419   3.669  12.132  0.00  0.00    +0.000 C 
ATOM      7  C   UNL     1      44.292   3.504  11.113  0.00  0.00    +0.000 C 
ENDROOT
BRANCH   4   8
ATOM      8  C   UNL     1      45.991   7.638  11.766  0.00  0.00    +0.000 A 
ATOM      9  C   UNL     1      47.075   8.149  12.471  0.00  0.00    +0.000 A 
ATOM     10  S   UNL     1      47.052   9.827  12.737  0.00  0.00    +0.000 S 
ATOM     11  C   UNL     1      45.549   9.968  11.975  0.00  0.00    +0.000 A 
ATOM     12  N   UNL     1      44.992  11.200  11.826  0.00  0.00    +0.000 NA
ATOM     13  C   UNL     1      43.868  11.202  11.196  0.00  0.00    +0.000 A 
ATOM     14  N   UNL     1      43.234  10.078  10.743  0.00  0.00    +0.000 N 
ATOM     15  C   UNL     1      43.646   8.815  11.106  0.00  0.00    +0.000 A 
ATOM     16  O   UNL     1      42.833   7.896  11.088  0.00  0.00    +0.000 OA
ATOM     17  C   UNL     1      45.023   8.737  11.596  0.00  0.00    +0.000 A 
ATOM     18  H   UNL     1      42.291  10.144  10.389  0.00  0.00    +0.000 HD
ENDBRANCH   4   8
BRANCH   5  19
ATOM     19  O   UNL     1      44.840   5.496  13.453  0.00  0.00    +0.000 OA
ATOM     20  H   UNL     1      44.379   6.287  13.127  0.00  0.00    +0.000 HD
ENDBRANCH   5  19
BRANCH   1  21
ATOM     21  C   UNL     1      44.415   2.571   8.721  0.00  0.00    +0.000 C 
BRANCH  21  24
ATOM     22  O   UNL     1      46.672   2.061   7.082  0.00  0.00    +0.000 OA
ATOM     23  C   UNL     1      46.379   1.303   8.001  0.00  0.00    +0.000 C 
ATOM     24  N   UNL     1      45.333   1.468   8.863  0.00  0.00    +0.000 N 
ATOM     25  H   UNL     1      45.135   0.740   9.537  0.00  0.00    +0.000 HD
ENDBRANCH  21  24
ENDBRANCH   1  21
BRANCH   5  26
ATOM     26  C   UNL     1      47.209   5.045  13.259  0.00  0.00    +0.000 C 
BRANCH  26  27
ATOM     27  C   UNL     1      47.204   5.098  14.811  0.00  0.00    +0.000 C 
ATOM     28  C   UNL     1      48.335   5.949  15.405  0.00  0.00    +0.000 C 
ATOM     29  C   UNL     1      48.472   5.773  16.911  0.00  0.00    +0.000 C 
ATOM     30  O   UNL     1      48.621   4.402  17.258  0.00  0.00    +0.000 OA
ATOM     31  C   UNL     1      47.482   3.638  16.873  0.00  0.00    +0.000 C 
ATOM     32  C   UNL     1      47.318   3.658  15.360  0.00  0.00    +0.000 C 
ENDBRANCH  26  27
ENDBRANCH   5  26
TORSDOF 6
ENDMDL
MODEL 3
REMARK VINA RESULT:    -5.797      3.086      5.455
REMARK INTER + INTRA:          -9.144
REMARK INTER:                  -7.634
REMARK INTRA:                  -1.510
REMARK UNBOUND:                -1.483
REMARK  Name = 
REMARK  6 active torsions:
REMARK  status: ('A' for Active; 'I' for Inactive)
REMARK    1  A    between atoms: N_3  and  C_4
REMARK    2  A    between atoms: C_4  and  C_5
REMARK    3  A    between atoms: C_8  and  C_20
REMARK    4  A    between atoms: C_9  and  O_10
REMARK    5  A    between atoms: C_9  and  C_11
REMARK    6  A    between atoms: C_11  and  C_12
REMARK                            x       y       z     vdW  Elec       q    Type
REMARK                         _______ _______ _______ _____ _____    ______ ____
ROOT
ATOM      1  C   UNL     1      45.207   6.828  12.012  0.00  0.00    +0.000 C 
ATOM      2  C   UNL     1      45.285   8.033  12.601  0.00  0.00    +0.000 C 
ATOM      3  C   UNL     1      46.350   8.514  13.455  0.00  0.00    +0.000 C 
ATOM      4  C   UNL     1      47.674   8.263  13.524  0.00  0.00    +0.000 C 
ATOM      5  C   UNL     1      48.423   7.482  12.394  0.00  0.00    +0.000 C 
ATOM      6  C   UNL     1      47.608   6.662  11.354  0.00  0.00    +0.000 C 
ATOM      7  C   UNL     1      46.388   5.906  11.877  0.00  0.00    +0.000 C 
ENDROOT
BRANCH   4   8
ATOM      8  C   UNL     1      48.491   8.761  14.674  0.00  0.00    +0.000 A 
ATOM      9  C   UNL     1      49.042  10.037  14.713  0.00  0.00    +0.000 A 
ATOM     10  S   UNL     1      49.824  10.455  16.163  0.00  0.00    +0.000 S 
ATOM     11  C   UNL     1      49.525   8.922  16.813  0.00  0.00    +0.000 A 
ATOM     12  N   UNL     1      49.909   8.655  18.089  0.00  0.00    +0.000 NA
ATOM     13  C   UNL     1      49.598   7.475  18.501  0.00  0.00    +0.000 A 
ATOM     14  N   UNL     1      48.976   6.527  17.736  0.00  0.00    +0.000 N 
ATOM     15  C   UNL     1      48.813   6.684  16.378  0.00  0.00    +0.000 A 
ATOM     16  O   UNL     1      48.699   5.686  15.672  0.00  0.00    +0.000 OA
ATOM     17  C   UNL     1      48.912   8.065  15.904  0.00  0.00    +0.000 A 
ATOM     18  H   UNL     1      48.897   5.581  18.078  0.00  0.00    +0.000 HD
ENDBRANCH   4   8
BRANCH   5  19
ATOM     19  O   UNL     1      49.253   6.453  12.987  0.00  0.00    +0.000 OA
ATOM     20  H   UNL     1      49.457   5.796  12.299  0.00  0.00    +0.000 HD
ENDBRANCH   5  19
BRANCH   1  21
ATOM     21  C   UNL     1      43.899   6.362  11.419  0.00  0.00    +0.000 C 
BRANCH  21  24
ATOM     22  O   UNL     1      43.022   3.686  11.089  0.00  0.00    +0.000 OA
ATOM     23  C   UNL     1      43.747   4.217  10.253  0.00  0.00    +0.000 C 
ATOM     24  N   UNL     1      44.203   5.503  10.301  0.00  0.00    +0.000 N 
ATOM     25  H   UNL     1      44.860   5.815   9.599  0.00  0.00    +0.000 HD
ENDBRANCH  21  24
ENDBRANCH   1  21
BRANCH   5  26
ATOM     26  C   UNL     1      49.398   8.424  11.592  0.00  0.00    +0.000 C 
BRANCH  26  27
ATOM     27  C   UNL     1      50.933   8.272  11.778  0.00  0.00    +0.000 C 
ATOM     28  C   UNL     1      51.666   9.605  11.983  0.00  0.00    +0.000 C 
ATOM     29  C   UNL     1      53.180   9.460  11.896  0.00  0.00    +0.000 C 
ATOM     30  O   UNL     1      53.569   8.839  10.678  0.00  0.00    +0.000 OA
ATOM     31  C   UNL     1      53.039   7.521  10.570  0.00  0.00    +0.000 C 
ATOM     32  C   UNL     1      51.518   7.562  10.536  0.00  0.00    +0.000 C 
ENDBRANCH  26  27
ENDBRANCH   5  26
TORSDOF 6
ENDMDL
MODEL 4
REMARK VINA RESULT:    -5.120      2.267      6.037
REMARK INTER + INTRA:          -8.250
REMARK INTER:                  -7.221
REMARK INTRA:                  -1.029
REMARK UNBOUND:                -1.483
REMARK  Name = 
REMARK  6 active torsions:
REMARK  status: ('A' for Active; 'I' for Inactive)
REMARK    1  A    between atoms: N_3  and  C_4
REMARK    2  A    between atoms: C_4  and  C_5
REMARK    3  A    between atoms: C_8  and  C_20
REMARK    4  A    between atoms: C_9  and  O_10
REMARK    5  A    between atoms: C_9  and  C_11
REMARK    6  A    between atoms: C_11  and  C_12
REMARK                            x       y       z     vdW  Elec       q    Type
REMARK                         _______ _______ _______ _____ _____    ______ ____
ROOT
ATOM      1  C   UNL     1      47.445   9.548  12.601  0.00  0.00    +0.000 C 
ATOM      2  C   UNL     1      46.159   9.168  12.670  0.00  0.00    +0.000 C 
ATOM      3  C   UNL     1      45.642   7.823  12.528  0.00  0.00    +0.000 C 
ATOM      4  C   UNL     1      46.142   6.599  12.802  0.00  0.00    +0.000 C 
ATOM      5  C   UNL     1      47.445   6.414  13.647  0.00  0.00    +0.000 C 
ATOM      6  C   UNL     1      48.394   7.625  13.877  0.00  0.00    +0.000 C 
ATOM      7  C   UNL     1      48.591   8.578  12.699  0.00  0.00    +0.000 C 
ENDROOT
BRANCH   4   8
ATOM      8  C   UNL     1      45.440   5.362  12.339  0.00  0.00    +0.000 A 
ATOM      9  C   UNL     1      44.873   4.442  13.214  0.00  0.00    +0.000 A 
ATOM     10  S   UNL     1      44.007   3.174  12.486  0.00  0.00    +0.000 S 
ATOM     11  C   UNL     1      44.390   3.746  10.941  0.00  0.00    +0.000 A 
ATOM     12  N   UNL     1      43.885   3.108   9.852  0.00  0.00    +0.000 NA
ATOM     13  C   UNL     1      44.203   3.647   8.726  0.00  0.00    +0.000 A 
ATOM     14  N   UNL     1      45.014   4.740   8.593  0.00  0.00    +0.000 N 
ATOM     15  C   UNL     1      45.737   5.240   9.653  0.00  0.00    +0.000 A 
ATOM     16  O   UNL     1      46.763   5.876   9.427  0.00  0.00    +0.000 OA
ATOM     17  C   UNL     1      45.244   4.844  10.972  0.00  0.00    +0.000 A 
ATOM     18  H   UNL     1      45.335   5.016   7.677  0.00  0.00    +0.000 HD
ENDBRANCH   4   8
BRANCH   5  19
ATOM     19  O   UNL     1      48.327   5.481  12.975  0.00  0.00    +0.000 OA
ATOM     20  H   UNL     1      47.799   4.970  12.338  0.00  0.00    +0.000 HD
ENDBRANCH   5  19
BRANCH   1  21
ATOM     21  C   UNL     1      47.792  11.009  12.451  0.00  0.00    +0.000 C 
BRANCH  21  24
ATOM     22  O   UNL     1      49.928  11.351  10.618  0.00  0.00    +0.000 OA
ATOM     23  C   UNL     1      48.765  11.515  10.264  0.00  0.00    +0.000 C 
ATOM     24  N   UNL     1      47.664  11.351  11.056  0.00  0.00    +0.000 N 
ATOM     25  H   UNL     1      46.755  11.590  10.684  0.00  0.00    +0.000 HD
ENDBRANCH  21  24
ENDBRANCH   1  21
BRANCH   5  26
ATOM     26  C   UNL     1      47.133   5.785  15.058  0.00  0.00    +0.000 C 
BRANCH  26  27
ATOM     27  C   UNL     1      48.205   4.903  15.755  0.00  0.00    +0.000 C 
ATOM     28  C   UNL     1      47.683   3.528  16.195  0.00  0.00    +0.000 C 
ATOM     29  C   UNL     1      48.661   2.793  17.103  0.00  0.00    +0.000 C 
ATOM     30  O   UNL     1      49.023   3.591  18.223  0.00  0.00    +0.000 OA
ATOM     31  C   UNL     1      49.681   4.789  17.821  0.00  0.00    +0.000 C 
ATOM     32  C   UNL     1      48.744   5.656  16.992  0.00  0.00    +0.000 C 
ENDBRANCH  26  27
ENDBRANCH   5  26
TORSDOF 6
ENDMDL
MODEL 5
REMARK VINA RESULT:    -5.065      1.960      2.570
REMARK INTER + INTRA:          -8.176
REMARK INTER:                  -6.621
REMARK INTRA:                  -1.556
REMARK UNBOUND:                -1.483
REMARK  Name = 
REMARK  6 active torsions:
REMARK  status: ('A' for Active; 'I' for Inactive)
REMARK    1  A    between atoms: N_3  and  C_4
REMARK    2  A    between atoms: C_4  and  C_5
REMARK    3  A    between atoms: C_8  and  C_20
REMARK    4  A    between atoms: C_9  and  O_10
REMARK    5  A    between atoms: C_9  and  C_11
REMARK    6  A    between atoms: C_11  and  C_12
REMARK                            x       y       z     vdW  Elec       q    Type
REMARK                         _______ _______ _______ _____ _____    ______ ____
ROOT
ATOM      1  C   UNL     1      44.922   5.398  11.133  0.00  0.00    +0.000 C 
ATOM      2  C   UNL     1      45.948   5.836  10.385  0.00  0.00    +0.000 C 
ATOM      3  C   UNL     1      46.824   6.950  10.679  0.00  0.00    +0.000 C 
ATOM      4  C   UNL     1      47.265   7.510  11.826  0.00  0.00    +0.000 C 
ATOM      5  C   UNL     1      47.064   6.813  13.211  0.00  0.00    +0.000 C 
ATOM      6  C   UNL     1      46.038   5.653  13.350  0.00  0.00    +0.000 C 
ATOM      7  C   UNL     1      44.731   5.795  12.571  0.00  0.00    +0.000 C 
ENDROOT
BRANCH   4   8
ATOM      8  C   UNL     1      48.007   8.809  11.809  0.00  0.00    +0.000 A 
ATOM      9  C   UNL     1      47.369  10.044  11.852  0.00  0.00    +0.000 A 
ATOM     10  S   UNL     1      48.394  11.396  11.958  0.00  0.00    +0.000 S 
ATOM     11  C   UNL     1      49.767  10.411  11.890  0.00  0.00    +0.000 A 
ATOM     12  N   UNL     1      50.998  10.978  11.992  0.00  0.00    +0.000 NA
ATOM     13  C   UNL     1      51.974  10.137  11.971  0.00  0.00    +0.000 A 
ATOM     14  N   UNL     1      51.827   8.787  11.813  0.00  0.00    +0.000 N 
ATOM     15  C   UNL     1      50.624   8.224  11.452  0.00  0.00    +0.000 A 
ATOM     16  O   UNL     1      50.622   7.139  10.878  0.00  0.00    +0.000 OA
ATOM     17  C   UNL     1      49.454   9.068  11.699  0.00  0.00    +0.000 A 
ATOM     18  H   UNL     1      52.641   8.210  11.660  0.00  0.00    +0.000 HD
ENDBRANCH   4   8
BRANCH   5  19
ATOM     19  O   UNL     1      46.543   7.774  14.164  0.00  0.00    +0.000 OA
ATOM     20  H   UNL     1      46.238   7.287  14.948  0.00  0.00    +0.000 HD
ENDBRANCH   5  19
BRANCH   1  21
ATOM     21  C   UNL     1      43.915   4.439  10.544  0.00  0.00    +0.000 C 
BRANCH  21  24
ATOM     22  O   UNL     1      44.605   2.929   8.246  0.00  0.00    +0.000 OA
ATOM     23  C   UNL     1      44.781   2.475   9.371  0.00  0.00    +0.000 C 
ATOM     24  N   UNL     1      44.509   3.125  10.541  0.00  0.00    +0.000 N 
ATOM     25  H   UNL     1      44.617   2.626  11.414  0.00  0.00    +0.000 HD
ENDBRANCH  21  24
ENDBRANCH   1  21
BRANCH   5  26
ATOM     26  C   UNL     1      48.432   6.305  13.805  0.00  0.00    +0.000 C 
BRANCH  26  27
ATOM     27  C   UNL     1      48.954   6.902  15.141  0.00  0.00    +0.000 C 
ATOM     28  C   UNL     1      50.434   7.310  15.101  0.00  0.00    +0.000 C 
ATOM     29  C   UNL     1      50.989   7.638  16.480  0.00  0.00    +0.000 C 
ATOM     30  O   UNL     1      50.774   6.568  17.391  0.00  0.00    +0.000 OA
ATOM     31  C   UNL     1      49.385   6.309  17.575  0.00  0.00    +0.000 C 
ATOM     32  C   UNL     1      48.751   5.862  16.266  0.00  0.00    +0.000 C 
ENDBRANCH  26  27
ENDBRANCH   5  26
TORSDOF 6
ENDMDL
MODEL 6
REMARK VINA RESULT:    -5.061      2.319      6.546
REMARK INTER + INTRA:          -8.171
REMARK INTER:                  -7.498
REMARK INTRA:                  -0.673
REMARK UNBOUND:                -1.483
REMARK  Name = 
REMARK  6 active torsions:
REMARK  status: ('A' for Active; 'I' for Inactive)
REMARK    1  A    between atoms: N_3  and  C_4
REMARK    2  A    between atoms: C_4  and  C_5
REMARK    3  A    between atoms: C_8  and  C_20
REMARK    4  A    between atoms: C_9  and  O_10
REMARK    5  A    between atoms: C_9  and  C_11
REMARK    6  A    between atoms: C_11  and  C_12
REMARK                            x       y       z     vdW  Elec       q    Type
REMARK                         _______ _______ _______ _____ _____    ______ ____
ROOT
ATOM      1  C   UNL     1      47.863   9.844  12.739  0.00  0.00    +0.000 C 
ATOM      2  C   UNL     1      46.576   9.562  12.477  0.00  0.00    +0.000 C 
ATOM      3  C   UNL     1      46.046   8.316  11.965  0.00  0.00    +0.000 C 
ATOM      4  C   UNL     1      46.431   7.026  12.074  0.00  0.00    +0.000 C 
ATOM      5  C   UNL     1      47.523   6.578  13.099  0.00  0.00    +0.000 C 
ATOM      6  C   UNL     1      48.451   7.641  13.752  0.00  0.00    +0.000 C 
ATOM      7  C   UNL     1      48.924   8.785  12.856  0.00  0.00    +0.000 C 
ENDROOT
BRANCH   4   8
ATOM      8  C   UNL     1      45.791   5.962  11.239  0.00  0.00    +0.000 A 
ATOM      9  C   UNL     1      46.058   5.801   9.884  0.00  0.00    +0.000 A 
ATOM     10  S   UNL     1      45.331   4.453   9.148  0.00  0.00    +0.000 S 
ATOM     11  C   UNL     1      44.557   4.031  10.592  0.00  0.00    +0.000 A 
ATOM     12  N   UNL     1      43.803   2.901  10.636  0.00  0.00    +0.000 NA
ATOM     13  C   UNL     1      43.292   2.649  11.792  0.00  0.00    +0.000 A 
ATOM     14  N   UNL     1      43.435   3.448  12.892  0.00  0.00    +0.000 N 
ATOM     15  C   UNL     1      43.972   4.713  12.805  0.00  0.00    +0.000 A 
ATOM     16  O   UNL     1      43.670   5.548  13.653  0.00  0.00    +0.000 OA
ATOM     17  C   UNL     1      44.778   4.956  11.608  0.00  0.00    +0.000 A 
ATOM     18  H   UNL     1      42.889   3.263  13.720  0.00  0.00    +0.000 HD
ENDBRANCH   4   8
BRANCH   5  19
ATOM     19  O   UNL     1      48.487   5.724  12.435  0.00  0.00    +0.000 OA
ATOM     20  H   UNL     1      48.697   6.119  11.572  0.00  0.00    +0.000 HD
ENDBRANCH   5  19
BRANCH   1  21
ATOM     21  C   UNL     1      48.291  11.274  12.962  0.00  0.00    +0.000 C 
BRANCH  21  24
ATOM     22  O   UNL     1      48.937  11.516  15.712  0.00  0.00    +0.000 OA
ATOM     23  C   UNL     1      49.819  11.403  14.867  0.00  0.00    +0.000 C 
ATOM     24  N   UNL     1      49.618  11.254  13.524  0.00  0.00    +0.000 N 
ATOM     25  H   UNL     1      50.420  11.249  12.907  0.00  0.00    +0.000 HD
ENDBRANCH  21  24
ENDBRANCH   1  21
BRANCH   5  26
ATOM     26  C   UNL     1      46.902   5.716  14.263  0.00  0.00    +0.000 C 
BRANCH  26  27
ATOM     27  C   UNL     1      47.841   4.900  15.194  0.00  0.00    +0.000 C 
ATOM     28  C   UNL     1      47.184   3.646  15.789  0.00  0.00    +0.000 C 
ATOM     29  C   UNL     1      48.021   3.016  16.894  0.00  0.00    +0.000 C 
ATOM     30  O   UNL     1      48.334   3.963  17.907  0.00  0.00    +0.000 OA
ATOM     31  C   UNL     1      49.109   5.042  17.392  0.00  0.00    +0.000 C 
ATOM     32  C   UNL     1      48.315   5.813  16.347  0.00  0.00    +0.000 C 
ENDBRANCH  26  27
ENDBRANCH   5  26
TORSDOF 6
ENDMDL
MODEL 7
REMARK VINA RESULT:    -4.811      4.686      7.538
REMARK INTER + INTRA:          -7.841
REMARK INTER:                  -7.276
REMARK INTRA:                  -0.565
REMARK UNBOUND:                -1.483
REMARK  Name = 
REMARK  6 active torsions:
REMARK  status: ('A' for Active; 'I' for Inactive)
REMARK    1  A    between atoms: N_3  and  C_4
REMARK    2  A    between atoms: C_4  and  C_5
REMARK    3  A    between atoms: C_8  and  C_20
REMARK    4  A    between atoms: C_9  and  O_10
REMARK    5  A    between atoms: C_9  and  C_11
REMARK    6  A    between atoms: C_11  and  C_12
REMARK                            x       y       z     vdW  Elec       q    Type
REMARK                         _______ _______ _______ _____ _____    ______ ____
ROOT
ATOM      1  C   UNL     1      47.024   4.933  14.883  0.00  0.00    +0.000 C 
ATOM      2  C   UNL     1      47.263   4.269  16.026  0.00  0.00    +0.000 C 
ATOM      3  C   UNL     1      48.534   4.138  16.706  0.00  0.00    +0.000 C 
ATOM      4  C   UNL     1      49.626   4.927  16.796  0.00  0.00    +0.000 C 
ATOM      5  C   UNL     1      49.611   6.413  16.310  0.00  0.00    +0.000 C 
ATOM      6  C   UNL     1      48.467   6.907  15.379  0.00  0.00    +0.000 C 
ATOM      7  C   UNL     1      47.985   5.934  14.304  0.00  0.00    +0.000 C 
ENDROOT
BRANCH   4   8
ATOM      8  C   UNL     1      50.892   4.416  17.409  0.00  0.00    +0.000 A 
ATOM      9  C   UNL     1      51.850   5.251  17.971  0.00  0.00    +0.000 A 
ATOM     10  S   UNL     1      53.152   4.467  18.733  0.00  0.00    +0.000 S 
ATOM     11  C   UNL     1      52.543   2.950  18.301  0.00  0.00    +0.000 A 
ATOM     12  N   UNL     1      53.192   1.830  18.717  0.00  0.00    +0.000 NA
ATOM     13  C   UNL     1      52.623   0.727  18.371  0.00  0.00    +0.000 A 
ATOM     14  N   UNL     1      51.489   0.647  17.611  0.00  0.00    +0.000 N 
ATOM     15  C   UNL     1      50.966   1.747  16.969  0.00  0.00    +0.000 A 
ATOM     16  O   UNL     1      50.276   1.580  15.967  0.00  0.00    +0.000 OA
ATOM     17  C   UNL     1      51.403   3.036  17.508  0.00  0.00    +0.000 A 
ATOM     18  H   UNL     1      51.185  -0.248  17.258  0.00  0.00    +0.000 HD
ENDBRANCH   4   8
BRANCH   5  19
ATOM     19  O   UNL     1      50.779   6.664  15.489  0.00  0.00    +0.000 OA
ATOM     20  H   UNL     1      51.209   7.473  15.815  0.00  0.00    +0.000 HD
ENDBRANCH   5  19
BRANCH   1  21
ATOM     21  C   UNL     1      45.729   4.712  14.139  0.00  0.00    +0.000 C 
BRANCH  21  24
ATOM     22  O   UNL     1      43.816   4.729  12.047  0.00  0.00    +0.000 OA
ATOM     23  C   UNL     1      44.739   5.537  12.060  0.00  0.00    +0.000 C 
ATOM     24  N   UNL     1      45.697   5.632  13.029  0.00  0.00    +0.000 N 
ATOM     25  H   UNL     1      46.459   6.284  12.901  0.00  0.00    +0.000 HD
ENDBRANCH  21  24
ENDBRANCH   1  21
BRANCH   5  26
ATOM     26  C   UNL     1      49.701   7.417  17.520  0.00  0.00    +0.000 C 
BRANCH  26  27
ATOM     27  C   UNL     1      48.472   7.605  18.451  0.00  0.00    +0.000 C 
ATOM     28  C   UNL     1      48.165   9.073  18.781  0.00  0.00    +0.000 C 
ATOM     29  C   UNL     1      47.135   9.219  19.894  0.00  0.00    +0.000 C 
ATOM     30  O   UNL     1      47.527   8.500  21.056  0.00  0.00    +0.000 OA
ATOM     31  C   UNL     1      47.631   7.103  20.796  0.00  0.00    +0.000 C 
ATOM     32  C   UNL     1      48.720   6.835  19.767  0.00  0.00    +0.000 C 
ENDBRANCH  26  27
ENDBRANCH   5  26
TORSDOF 6
ENDMDL
MODEL 8
REMARK VINA RESULT:    -4.809      3.612      4.989
REMARK INTER + INTRA:          -7.839
REMARK INTER:                  -6.133
REMARK INTRA:                  -1.706
REMARK UNBOUND:                -1.483
REMARK  Name = 
REMARK  6 active torsions:
REMARK  status: ('A' for Active; 'I' for Inactive)
REMARK    1  A    between atoms: N_3  and  C_4
REMARK    2  A    between atoms: C_4  and  C_5
REMARK    3  A    between atoms: C_8  and  C_20
REMARK    4  A    between atoms: C_9  and  O_10
REMARK    5  A    between atoms: C_9  and  C_11
REMARK    6  A    between atoms: C_11  and  C_12
REMARK                            x       y       z     vdW  Elec       q    Type
REMARK                         _______ _______ _______ _____ _____    ______ ____
ROOT
ATOM      1  C   UNL     1      46.243   7.219  12.126  0.00  0.00    +0.000 C 
ATOM      2  C   UNL     1      47.456   6.646  12.047  0.00  0.00    +0.000 C 
ATOM      3  C   UNL     1      48.738   7.315  12.112  0.00  0.00    +0.000 C 
ATOM      4  C   UNL     1      49.175   8.433  12.730  0.00  0.00    +0.000 C 
ATOM      5  C   UNL     1      48.314   9.164  13.812  0.00  0.00    +0.000 C 
ATOM      6  C   UNL     1      46.797   8.843  13.938  0.00  0.00    +0.000 C 
ATOM      7  C   UNL     1      46.032   8.619  12.634  0.00  0.00    +0.000 C 
ENDROOT
BRANCH   4   8
ATOM      8  C   UNL     1      50.528   8.997  12.430  0.00  0.00    +0.000 A 
ATOM      9  C   UNL     1      51.674   8.618  13.120  0.00  0.00    +0.000 A 
ATOM     10  S   UNL     1      53.131   9.275  12.540  0.00  0.00    +0.000 S 
ATOM     11  C   UNL     1      52.307  10.162  11.359  0.00  0.00    +0.000 A 
ATOM     12  N   UNL     1      53.017  10.911  10.475  0.00  0.00    +0.000 NA
ATOM     13  C   UNL     1      52.298  11.513   9.591  0.00  0.00    +0.000 A 
ATOM     14  N   UNL     1      50.932  11.465   9.542  0.00  0.00    +0.000 N 
ATOM     15  C   UNL     1      50.187  10.930  10.569  0.00  0.00    +0.000 A 
ATOM     16  O   UNL     1      49.028  11.306  10.723  0.00  0.00    +0.000 OA
ATOM     17  C   UNL     1      50.925  10.031  11.457  0.00  0.00    +0.000 A 
ATOM     18  H   UNL     1      50.433  12.077   8.914  0.00  0.00    +0.000 HD
ENDBRANCH   4   8
BRANCH   5  19
ATOM     19  O   UNL     1      48.285  10.585  13.527  0.00  0.00    +0.000 OA
ATOM     20  H   UNL     1      49.124  10.825  13.100  0.00  0.00    +0.000 HD
ENDBRANCH   5  19
BRANCH   1  21
ATOM     21  C   UNL     1      45.014   6.440  11.725  0.00  0.00    +0.000 C 
BRANCH  21  24
ATOM     22  O   UNL     1      42.645   4.891  11.896  0.00  0.00    +0.000 OA
ATOM     23  C   UNL     1      43.060   5.514  12.868  0.00  0.00    +0.000 C 
ATOM     24  N   UNL     1      44.199   6.267  12.902  0.00  0.00    +0.000 N 
ATOM     25  H   UNL     1      44.406   6.803  13.733  0.00  0.00    +0.000 HD
ENDBRANCH  21  24
ENDBRANCH   1  21
BRANCH   5  26
ATOM     26  C   UNL     1      48.947   9.017  15.248  0.00  0.00    +0.000 C 
BRANCH  26  27
ATOM     27  C   UNL     1      48.591   7.781  16.118  0.00  0.00    +0.000 C 
ATOM     28  C   UNL     1      48.358   8.112  17.598  0.00  0.00    +0.000 C 
ATOM     29  C   UNL     1      48.275   6.867  18.472  0.00  0.00    +0.000 C 
ATOM     30  O   UNL     1      49.420   6.042  18.302  0.00  0.00    +0.000 OA
ATOM     31  C   UNL     1      49.535   5.577  16.960  0.00  0.00    +0.000 C 
ATOM     32  C   UNL     1      49.734   6.747  16.008  0.00  0.00    +0.000 C 
ENDBRANCH  26  27
ENDBRANCH   5  26
TORSDOF 6
ENDMDL
MODEL 9
REMARK VINA RESULT:    -4.759      3.618      5.123
REMARK INTER + INTRA:          -7.773
REMARK INTER:                  -6.251
REMARK INTRA:                  -1.522
REMARK UNBOUND:                -1.483
REMARK  Name = 
REMARK  6 active torsions:
REMARK  status: ('A' for Active; 'I' for Inactive)
REMARK    1  A    between atoms: N_3  and  C_4
REMARK    2  A    between atoms: C_4  and  C_5
REMARK    3  A    between atoms: C_8  and  C_20
REMARK    4  A    between atoms: C_9  and  O_10
REMARK    5  A    between atoms: C_9  and  C_11
REMARK    6  A    between atoms: C_11  and  C_12
REMARK                            x       y       z     vdW  Elec       q    Type
REMARK                         _______ _______ _______ _____ _____    ______ ____
ROOT
ATOM      1  C   UNL     1      46.219   6.436  12.892  0.00  0.00    +0.000 C 
ATOM      2  C   UNL     1      47.441   5.933  13.132  0.00  0.00    +0.000 C 
ATOM      3  C   UNL     1      48.711   6.578  12.880  0.00  0.00    +0.000 C 
ATOM      4  C   UNL     1      49.115   7.867  12.866  0.00  0.00    +0.000 C 
ATOM      5  C   UNL     1      48.213   9.017  13.423  0.00  0.00    +0.000 C 
ATOM      6  C   UNL     1      46.697   8.761  13.663  0.00  0.00    +0.000 C 
ATOM      7  C   UNL     1      45.974   7.897  12.630  0.00  0.00    +0.000 C 
ENDROOT
BRANCH   4   8
ATOM      8  C   UNL     1      50.469   8.241  12.351  0.00  0.00    +0.000 A 
ATOM      9  C   UNL     1      50.738   8.433  11.001  0.00  0.00    +0.000 A 
ATOM     10  S   UNL     1      52.304   8.983  10.635  0.00  0.00    +0.000 S 
ATOM     11  C   UNL     1      52.744   8.940  12.268  0.00  0.00    +0.000 A 
ATOM     12  N   UNL     1      53.984   9.359  12.634  0.00  0.00    +0.000 NA
ATOM     13  C   UNL     1      54.203   9.325  13.903  0.00  0.00    +0.000 A 
ATOM     14  N   UNL     1      53.308   8.869  14.830  0.00  0.00    +0.000 N 
ATOM     15  C   UNL     1      52.158   8.206  14.465  0.00  0.00    +0.000 A 
ATOM     16  O   UNL     1      51.640   7.428  15.261  0.00  0.00    +0.000 OA
ATOM     17  C   UNL     1      51.737   8.427  13.081  0.00  0.00    +0.000 A 
ATOM     18  H   UNL     1      53.602   8.736  15.786  0.00  0.00    +0.000 HD
ENDBRANCH   4   8
BRANCH   5  19
ATOM     19  O   UNL     1      48.173  10.105  12.467  0.00  0.00    +0.000 OA
ATOM     20  H   UNL     1      47.768  10.875  12.902  0.00  0.00    +0.000 HD
ENDBRANCH   5  19
BRANCH   1  21
ATOM     21  C   UNL     1      45.013   5.529  12.910  0.00  0.00    +0.000 C 
BRANCH  21  24
ATOM     22  O   UNL     1      43.270   4.931  10.755  0.00  0.00    +0.000 OA
ATOM     23  C   UNL     1      43.107   5.940  11.432  0.00  0.00    +0.000 C 
ATOM     24  N   UNL     1      43.869   6.308  12.504  0.00  0.00    +0.000 N 
ATOM     25  H   UNL     1      43.696   7.203  12.944  0.00  0.00    +0.000 HD
ENDBRANCH  21  24
ENDBRANCH   1  21
BRANCH   5  26
ATOM     26  C   UNL     1      48.804   9.622  14.752  0.00  0.00    +0.000 C 
BRANCH  26  27
ATOM     27  C   UNL     1      48.165   9.241  16.116  0.00  0.00    +0.000 C 
ATOM     28  C   UNL     1      48.310  10.328  17.191  0.00  0.00    +0.000 C 
ATOM     29  C   UNL     1      47.919   9.835  18.578  0.00  0.00    +0.000 C 
ATOM     30  O   UNL     1      48.641   8.662  18.930  0.00  0.00    +0.000 OA
ATOM     31  C   UNL     1      48.362   7.588  18.036  0.00  0.00    +0.000 C 
ATOM     32  C   UNL     1      48.820   7.939  16.628  0.00  0.00    +0.000 C 
ENDBRANCH  26  27
ENDBRANCH   5  26
TORSDOF 6
ENDMDL
