MODEL 1
REMARK VINA RESULT:    -8.677      0.000      0.000
REMARK INTER + INTRA:         -11.503
REMARK INTER:                 -10.706
REMARK INTRA:                  -0.797
REMARK UNBOUND:                -0.797
REMARK  Name = 
REMARK  5 active torsions:
REMARK  status: ('A' for Active; 'I' for Inactive)
REMARK    1  A    between atoms: C_1  and  C_2
REMARK    2  A    between atoms: C_2  and  N_3
REMARK    3  A    between atoms: C_2  and  C_13
REMARK    4  A    between atoms: C_7  and  C_8
REMARK    5  A    between atoms: C_16  and  C_17
REMARK                            x       y       z     vdW  Elec       q    Type
REMARK                         _______ _______ _______ _____ _____    ______ ____
ROOT
ATOM      1  C   UNL     1      42.274   5.472  11.575  0.00  0.00    +0.000 C 
ATOM      2  C   UNL     1      43.547   4.690  11.230  0.00  0.00    +0.000 C 
ENDROOT
BRANCH   2   3
ATOM      3  N   UNL     1      43.875   4.784   9.810  0.00  0.00    +0.000 N 
ATOM      4  C   UNL     1      44.746   3.929   9.170  0.00  0.00    +0.000 A 
ATOM      5  C   UNL     1      44.981   2.598   9.531  0.00  0.00    +0.000 A 
ATOM      6  N   UNL     1      45.797   1.746   8.858  0.00  0.00    +0.000 NA
ATOM      7  C   UNL     1      46.370   2.276   7.748  0.00  0.00    +0.000 A 
ATOM      8  C   UNL     1      46.150   3.586   7.361  0.00  0.00    +0.000 A 
ATOM      9  N   UNL     1      45.346   4.435   8.068  0.00  0.00    +0.000 NA
ATOM     10  H   UNL     1      44.068   5.724   9.465  0.00  0.00    +0.000 HD
BRANCH   7  11
ATOM     11  C   UNL     1      47.248   1.382   6.944  0.00  0.00    +0.000 C 
ATOM     12  N   UNL     1      48.288   1.981   6.288  0.00  0.00    +0.000 N 
ATOM     13  O   UNL     1      47.057   0.171   6.873  0.00  0.00    +0.000 OA
ATOM     14  H   UNL     1      48.434   2.983   6.364  0.00  0.00    +0.000 HD
ATOM     15  H   UNL     1      48.923   1.415   5.743  0.00  0.00    +0.000 HD
ENDBRANCH   7  11
ENDBRANCH   2   3
BRANCH   2  16
ATOM     16  C   UNL     1      44.715   5.250  12.031  0.00  0.00    +0.000 A 
ATOM     17  C   UNL     1      45.158   4.576  13.177  0.00  0.00    +0.000 A 
ATOM     18  C   UNL     1      46.276   5.032  13.880  0.00  0.00    +0.000 A 
ATOM     19  C   UNL     1      46.973   6.171  13.453  0.00  0.00    +0.000 A 
ATOM     20  C   UNL     1      46.503   6.863  12.341  0.00  0.00    +0.000 A 
ATOM     21  F   UNL     1      47.139   7.962  11.918  0.00  0.00    +0.000 F 
ATOM     22  C   UNL     1      45.388   6.417  11.632  0.00  0.00    +0.000 A 
BRANCH  19  23
ATOM     23  C   UNL     1      48.221   6.628  14.146  0.00  0.00    +0.000 C 
ATOM     24  F   UNL     1      49.310   6.631  13.321  0.00  0.00    +0.000 F 
ATOM     25  F   UNL     1      48.127   7.900  14.621  0.00  0.00    +0.000 F 
ATOM     26  F   UNL     1      48.569   5.845  15.203  0.00  0.00    +0.000 F 
ENDBRANCH  19  23
ENDBRANCH   2  16
TORSDOF 4
ENDMDL
MODEL 2
REMARK VINA RESULT:    -8.186      4.713      6.924
REMARK INTER + INTRA:         -10.898
REMARK INTER:                 -11.096
REMARK INTRA:                   0.198
REMARK UNBOUND:                -0.797
REMARK  Name = 
REMARK  5 active torsions:
REMARK  status: ('A' for Active; 'I' for Inactive)
REMARK    1  A    between atoms: C_1  and  C_2
REMARK    2  A    between atoms: C_2  and  N_3
REMARK    3  A    between atoms: C_2  and  C_13
REMARK    4  A    between atoms: C_7  and  C_8
REMARK    5  A    between atoms: C_16  and  C_17
REMARK                            x       y       z     vdW  Elec       q    Type
REMARK                         _______ _______ _______ _____ _____    ______ ____
ROOT
ATOM      1  C   UNL     1      43.235   3.742  11.406  0.00  0.00    +0.000 C 
ATOM      2  C   UNL     1      44.051   4.736  10.573  0.00  0.00    +0.000 C 
ENDROOT
BRANCH   2   3
ATOM      3  N   UNL     1      45.014   5.469  11.390  0.00  0.00    +0.000 N 
ATOM      4  C   UNL     1      45.661   4.927  12.479  0.00  0.00    +0.000 A 
ATOM      5  C   UNL     1      45.975   3.574  12.639  0.00  0.00    +0.000 A 
ATOM      6  N   UNL     1      46.664   3.058  13.689  0.00  0.00    +0.000 NA
ATOM      7  C   UNL     1      47.078   3.978  14.597  0.00  0.00    +0.000 A 
ATOM      8  C   UNL     1      46.791   5.325  14.461  0.00  0.00    +0.000 A 
ATOM      9  N   UNL     1      46.071   5.819  13.410  0.00  0.00    +0.000 NA
ATOM     10  H   UNL     1      44.742   6.419  11.643  0.00  0.00    +0.000 HD
BRANCH   7  11
ATOM     11  C   UNL     1      47.872   3.481  15.754  0.00  0.00    +0.000 C 
ATOM     12  N   UNL     1      47.801   4.222  16.902  0.00  0.00    +0.000 N 
ATOM     13  O   UNL     1      48.551   2.460  15.690  0.00  0.00    +0.000 OA
ATOM     14  H   UNL     1      47.229   5.061  16.938  0.00  0.00    +0.000 HD
ATOM     15  H   UNL     1      48.308   3.918  17.721  0.00  0.00    +0.000 HD
ENDBRANCH   7  11
ENDBRANCH   2   3
BRANCH   2  16
ATOM     16  C   UNL     1      44.815   3.981   9.493  0.00  0.00    +0.000 A 
ATOM     17  C   UNL     1      45.588   4.691   8.564  0.00  0.00    +0.000 A 
ATOM     18  C   UNL     1      46.356   4.012   7.615  0.00  0.00    +0.000 A 
ATOM     19  C   UNL     1      46.365   2.610   7.573  0.00  0.00    +0.000 A 
ATOM     20  C   UNL     1      45.562   1.911   8.468  0.00  0.00    +0.000 A 
ATOM     21  F   UNL     1      45.539   0.573   8.443  0.00  0.00    +0.000 F 
ATOM     22  C   UNL     1      44.792   2.579   9.420  0.00  0.00    +0.000 A 
BRANCH  19  23
ATOM     23  C   UNL     1      47.245   1.864   6.617  0.00  0.00    +0.000 C 
ATOM     24  F   UNL     1      48.546   1.813   7.028  0.00  0.00    +0.000 F 
ATOM     25  F   UNL     1      46.868   0.566   6.455  0.00  0.00    +0.000 F 
ATOM     26  F   UNL     1      47.279   2.414   5.372  0.00  0.00    +0.000 F 
ENDBRANCH  19  23
ENDBRANCH   2  16
TORSDOF 4
ENDMDL
MODEL 3
REMARK VINA RESULT:    -8.165      4.837      7.267
REMARK INTER + INTRA:         -10.872
REMARK INTER:                 -10.490
REMARK INTRA:                  -0.382
REMARK UNBOUND:                -0.797
REMARK  Name = 
REMARK  5 active torsions:
REMARK  status: ('A' for Active; 'I' for Inactive)
REMARK    1  A    between atoms: C_1  and  C_2
REMARK    2  A    between atoms: C_2  and  N_3
REMARK    3  A    between atoms: C_2  and  C_13
REMARK    4  A    between atoms: C_7  and  C_8
REMARK    5  A    between atoms: C_16  and  C_17
REMARK                            x       y       z     vdW  Elec       q    Type
REMARK                         _______ _______ _______ _____ _____    ______ ____
ROOT
ATOM      1  C   UNL     1      43.082   2.922  11.445  0.00  0.00    +0.000 C 
ATOM      2  C   UNL     1      44.143   3.972  11.099  0.00  0.00    +0.000 C 
ENDROOT
BRANCH   2   3
ATOM      3  N   UNL     1      45.131   4.120  12.164  0.00  0.00    +0.000 N 
ATOM      4  C   UNL     1      45.707   5.324  12.509  0.00  0.00    +0.000 A 
ATOM      5  C   UNL     1      45.103   6.577  12.370  0.00  0.00    +0.000 A 
ATOM      6  N   UNL     1      45.656   7.752  12.766  0.00  0.00    +0.000 NA
ATOM      7  C   UNL     1      46.870   7.629  13.361  0.00  0.00    +0.000 A 
ATOM      8  C   UNL     1      47.489   6.402  13.521  0.00  0.00    +0.000 A 
ATOM      9  N   UNL     1      46.926   5.234  13.090  0.00  0.00    +0.000 NA
ATOM     10  H   UNL     1      45.869   3.417  12.180  0.00  0.00    +0.000 HD
BRANCH   7  11
ATOM     11  C   UNL     1      47.515   8.878  13.853  0.00  0.00    +0.000 C 
ATOM     12  N   UNL     1      47.570   9.039  15.210  0.00  0.00    +0.000 N 
ATOM     13  O   UNL     1      47.978   9.719  13.087  0.00  0.00    +0.000 OA
ATOM     14  H   UNL     1      47.186   8.330  15.828  0.00  0.00    +0.000 HD
ATOM     15  H   UNL     1      48.012   9.862  15.595  0.00  0.00    +0.000 HD
ENDBRANCH   7  11
ENDBRANCH   2   3
BRANCH   2  16
ATOM     16  C   UNL     1      44.869   3.555   9.826  0.00  0.00    +0.000 A 
ATOM     17  C   UNL     1      45.366   4.535   8.957  0.00  0.00    +0.000 A 
ATOM     18  C   UNL     1      46.101   4.172   7.826  0.00  0.00    +0.000 A 
ATOM     19  C   UNL     1      46.352   2.822   7.539  0.00  0.00    +0.000 A 
ATOM     20  C   UNL     1      45.819   1.851   8.380  0.00  0.00    +0.000 A 
ATOM     21  F   UNL     1      46.030   0.555   8.125  0.00  0.00    +0.000 F 
ATOM     22  C   UNL     1      45.084   2.203   9.512  0.00  0.00    +0.000 A 
BRANCH  19  23
ATOM     23  C   UNL     1      47.207   2.418   6.376  0.00  0.00    +0.000 C 
ATOM     24  F   UNL     1      47.100   1.089   6.081  0.00  0.00    +0.000 F 
ATOM     25  F   UNL     1      46.878   3.068   5.226  0.00  0.00    +0.000 F 
ATOM     26  F   UNL     1      48.534   2.638   6.579  0.00  0.00    +0.000 F 
ENDBRANCH  19  23
ENDBRANCH   2  16
TORSDOF 4
ENDMDL
MODEL 4
REMARK VINA RESULT:    -8.161      4.552      6.893
REMARK INTER + INTRA:         -10.867
REMARK INTER:                 -10.855
REMARK INTRA:                  -0.012
REMARK UNBOUND:                -0.797
REMARK  Name = 
REMARK  5 active torsions:
REMARK  status: ('A' for Active; 'I' for Inactive)
REMARK    1  A    between atoms: C_1  and  C_2
REMARK    2  A    between atoms: C_2  and  N_3
REMARK    3  A    between atoms: C_2  and  C_13
REMARK    4  A    between atoms: C_7  and  C_8
REMARK    5  A    between atoms: C_16  and  C_17
REMARK                            x       y       z     vdW  Elec       q    Type
REMARK                         _______ _______ _______ _____ _____    ______ ____
ROOT
ATOM      1  C   UNL     1      43.411   4.011  11.915  0.00  0.00    +0.000 C 
ATOM      2  C   UNL     1      43.485   4.654  10.526  0.00  0.00    +0.000 C 
ENDROOT
BRANCH   2   3
ATOM      3  N   UNL     1      43.947   6.037  10.589  0.00  0.00    +0.000 N 
ATOM      4  C   UNL     1      44.880   6.490  11.497  0.00  0.00    +0.000 A 
ATOM      5  C   UNL     1      45.905   5.718  12.054  0.00  0.00    +0.000 A 
ATOM      6  N   UNL     1      46.854   6.188  12.903  0.00  0.00    +0.000 NA
ATOM      7  C   UNL     1      46.766   7.517  13.165  0.00  0.00    +0.000 A 
ATOM      8  C   UNL     1      45.769   8.308  12.622  0.00  0.00    +0.000 A 
ATOM      9  N   UNL     1      44.807   7.809  11.791  0.00  0.00    +0.000 NA
ATOM     10  H   UNL     1      43.218   6.747  10.527  0.00  0.00    +0.000 HD
BRANCH   7  11
ATOM     11  C   UNL     1      47.801   8.102  14.061  0.00  0.00    +0.000 C 
ATOM     12  N   UNL     1      47.370   9.049  14.950  0.00  0.00    +0.000 N 
ATOM     13  O   UNL     1      48.978   7.756  14.014  0.00  0.00    +0.000 OA
ATOM     14  H   UNL     1      46.391   9.318  14.979  0.00  0.00    +0.000 HD
ATOM     15  H   UNL     1      48.030   9.465  15.591  0.00  0.00    +0.000 HD
ENDBRANCH   7  11
ENDBRANCH   2   3
BRANCH   2  16
ATOM     16  C   UNL     1      44.454   3.864   9.656  0.00  0.00    +0.000 A 
ATOM     17  C   UNL     1      44.496   2.466   9.755  0.00  0.00    +0.000 A 
ATOM     18  C   UNL     1      45.322   1.720   8.911  0.00  0.00    +0.000 A 
ATOM     19  C   UNL     1      46.125   2.355   7.953  0.00  0.00    +0.000 A 
ATOM     20  C   UNL     1      46.114   3.744   7.888  0.00  0.00    +0.000 A 
ATOM     21  F   UNL     1      46.880   4.379   6.993  0.00  0.00    +0.000 F 
ATOM     22  C   UNL     1      45.293   4.499   8.726  0.00  0.00    +0.000 A 
BRANCH  19  23
ATOM     23  C   UNL     1      46.955   1.567   6.985  0.00  0.00    +0.000 C 
ATOM     24  F   UNL     1      48.295   1.770   7.153  0.00  0.00    +0.000 F 
ATOM     25  F   UNL     1      46.778   0.223   7.108  0.00  0.00    +0.000 F 
ATOM     26  F   UNL     1      46.703   1.873   5.683  0.00  0.00    +0.000 F 
ENDBRANCH  19  23
ENDBRANCH   2  16
TORSDOF 4
ENDMDL
MODEL 5
REMARK VINA RESULT:    -6.669      4.963      6.944
REMARK INTER + INTRA:          -9.026
REMARK INTER:                  -8.422
REMARK INTRA:                  -0.603
REMARK UNBOUND:                -0.797
REMARK  Name = 
REMARK  5 active torsions:
REMARK  status: ('A' for Active; 'I' for Inactive)
REMARK    1  A    between atoms: C_1  and  C_2
REMARK    2  A    between atoms: C_2  and  N_3
REMARK    3  A    between atoms: C_2  and  C_13
REMARK    4  A    between atoms: C_7  and  C_8
REMARK    5  A    between atoms: C_16  and  C_17
REMARK                            x       y       z     vdW  Elec       q    Type
REMARK                         _______ _______ _______ _____ _____    ______ ____
ROOT
ATOM      1  C   UNL     1      42.857   5.102  12.858  0.00  0.00    +0.000 C 
ATOM      2  C   UNL     1      44.203   5.684  12.413  0.00  0.00    +0.000 C 
ENDROOT
BRANCH   2   3
ATOM      3  N   UNL     1      45.256   5.435  13.392  0.00  0.00    +0.000 N 
ATOM      4  C   UNL     1      46.427   6.159  13.454  0.00  0.00    +0.000 A 
ATOM      5  C   UNL     1      46.572   7.495  13.068  0.00  0.00    +0.000 A 
ATOM      6  N   UNL     1      47.716   8.216  13.188  0.00  0.00    +0.000 NA
ATOM      7  C   UNL     1      48.747   7.544  13.760  0.00  0.00    +0.000 A 
ATOM      8  C   UNL     1      48.632   6.225  14.161  0.00  0.00    +0.000 A 
ATOM      9  N   UNL     1      47.479   5.509  14.006  0.00  0.00    +0.000 NA
ATOM     10  H   UNL     1      45.499   4.456  13.537  0.00  0.00    +0.000 HD
BRANCH   7  11
ATOM     11  C   UNL     1      50.020   8.291  13.954  0.00  0.00    +0.000 C 
ATOM     12  N   UNL     1      51.083   7.887  13.194  0.00  0.00    +0.000 N 
ATOM     13  O   UNL     1      50.116   9.224  14.748  0.00  0.00    +0.000 OA
ATOM     14  H   UNL     1      50.984   7.118  12.539  0.00  0.00    +0.000 HD
ATOM     15  H   UNL     1      51.965   8.373  13.276  0.00  0.00    +0.000 HD
ENDBRANCH   7  11
ENDBRANCH   2   3
BRANCH   2  16
ATOM     16  C   UNL     1      44.615   5.046  11.092  0.00  0.00    +0.000 A 
ATOM     17  C   UNL     1      45.412   5.766  10.192  0.00  0.00    +0.000 A 
ATOM     18  C   UNL     1      45.864   5.170   9.012  0.00  0.00    +0.000 A 
ATOM     19  C   UNL     1      45.527   3.843   8.707  0.00  0.00    +0.000 A 
ATOM     20  C   UNL     1      44.699   3.147   9.582  0.00  0.00    +0.000 A 
ATOM     21  F   UNL     1      44.348   1.884   9.311  0.00  0.00    +0.000 F 
ATOM     22  C   UNL     1      44.242   3.733  10.762  0.00  0.00    +0.000 A 
BRANCH  19  23
ATOM     23  C   UNL     1      46.068   3.161   7.487  0.00  0.00    +0.000 C 
ATOM     24  F   UNL     1      45.103   2.897   6.558  0.00  0.00    +0.000 F 
ATOM     25  F   UNL     1      47.000   3.908   6.834  0.00  0.00    +0.000 F 
ATOM     26  F   UNL     1      46.653   1.961   7.754  0.00  0.00    +0.000 F 
ENDBRANCH  19  23
ENDBRANCH   2  16
TORSDOF 4
ENDMDL
MODEL 6
REMARK VINA RESULT:    -6.546      5.284      7.527
REMARK INTER + INTRA:          -8.874
REMARK INTER:                  -8.152
REMARK INTRA:                  -0.723
REMARK UNBOUND:                -0.797
REMARK  Name = 
REMARK  5 active torsions:
REMARK  status: ('A' for Active; 'I' for Inactive)
REMARK    1  A    between atoms: C_1  and  C_2
REMARK    2  A    between atoms: C_2  and  N_3
REMARK    3  A    between atoms: C_2  and  C_13
REMARK    4  A    between atoms: C_7  and  C_8
REMARK    5  A    between atoms: C_16  and  C_17
REMARK                            x       y       z     vdW  Elec       q    Type
REMARK                         _______ _______ _______ _____ _____    ______ ____
ROOT
ATOM      1  C   UNL     1      45.503   7.638  12.898  0.00  0.00    +0.000 C 
ATOM      2  C   UNL     1      46.284   6.321  12.849  0.00  0.00    +0.000 C 
ENDROOT
BRANCH   2   3
ATOM      3  N   UNL     1      46.007   5.479  14.009  0.00  0.00    +0.000 N 
ATOM      4  C   UNL     1      46.976   5.055  14.893  0.00  0.00    +0.000 A 
ATOM      5  C   UNL     1      48.152   5.748  15.195  0.00  0.00    +0.000 A 
ATOM      6  N   UNL     1      49.072   5.350  16.110  0.00  0.00    +0.000 NA
ATOM      7  C   UNL     1      48.752   4.206  16.768  0.00  0.00    +0.000 A 
ATOM      8  C   UNL     1      47.591   3.504  16.498  0.00  0.00    +0.000 A 
ATOM      9  N   UNL     1      46.692   3.908  15.553  0.00  0.00    +0.000 NA
ATOM     10  H   UNL     1      45.385   4.689  13.840  0.00  0.00    +0.000 HD
BRANCH   7  11
ATOM     11  C   UNL     1      49.703   3.735  17.813  0.00  0.00    +0.000 C 
ATOM     12  N   UNL     1      49.256   3.780  19.105  0.00  0.00    +0.000 N 
ATOM     13  O   UNL     1      50.826   3.323  17.536  0.00  0.00    +0.000 OA
ATOM     14  H   UNL     1      48.321   4.118  19.314  0.00  0.00    +0.000 HD
ATOM     15  H   UNL     1      49.856   3.455  19.849  0.00  0.00    +0.000 HD
ENDBRANCH   7  11
ENDBRANCH   2   3
BRANCH   2  16
ATOM     16  C   UNL     1      45.895   5.550  11.593  0.00  0.00    +0.000 A 
ATOM     17  C   UNL     1      46.297   6.022  10.337  0.00  0.00    +0.000 A 
ATOM     18  C   UNL     1      46.016   5.288   9.181  0.00  0.00    +0.000 A 
ATOM     19  C   UNL     1      45.325   4.070   9.258  0.00  0.00    +0.000 A 
ATOM     20  C   UNL     1      44.888   3.629  10.503  0.00  0.00    +0.000 A 
ATOM     21  F   UNL     1      44.214   2.477  10.607  0.00  0.00    +0.000 F 
ATOM     22  C   UNL     1      45.164   4.353  11.662  0.00  0.00    +0.000 A 
BRANCH  19  23
ATOM     23  C   UNL     1      45.086   3.231   8.040  0.00  0.00    +0.000 C 
ATOM     24  F   UNL     1      45.640   1.986   8.141  0.00  0.00    +0.000 F 
ATOM     25  F   UNL     1      43.763   3.016   7.797  0.00  0.00    +0.000 F 
ATOM     26  F   UNL     1      45.605   3.768   6.903  0.00  0.00    +0.000 F 
ENDBRANCH  19  23
ENDBRANCH   2  16
TORSDOF 4
ENDMDL
MODEL 7
REMARK VINA RESULT:    -6.284      1.376      2.154
REMARK INTER + INTRA:          -8.551
REMARK INTER:                  -8.357
REMARK INTRA:                  -0.194
REMARK UNBOUND:                -0.797
REMARK  Name = 
REMARK  5 active torsions:
REMARK  status: ('A' for Active; 'I' for Inactive)
REMARK    1  A    between atoms: C_1  and  C_2
REMARK    2  A    between atoms: C_2  and  N_3
REMARK    3  A    between atoms: C_2  and  C_13
REMARK    4  A    between atoms: C_7  and  C_8
REMARK    5  A    between atoms: C_16  and  C_17
REMARK                            x       y       z     vdW  Elec       q    Type
REMARK                         _______ _______ _______ _____ _____    ______ ____
ROOT
ATOM      1  C   UNL     1      43.014   5.245  10.668  0.00  0.00    +0.000 C 
ATOM      2  C   UNL     1      43.921   4.632  11.741  0.00  0.00    +0.000 C 
ENDROOT
BRANCH   2   3
ATOM      3  N   UNL     1      44.620   3.448  11.252  0.00  0.00    +0.000 N 
ATOM      4  C   UNL     1      45.168   3.350   9.991  0.00  0.00    +0.000 A 
ATOM      5  C   UNL     1      45.660   4.422   9.240  0.00  0.00    +0.000 A 
ATOM      6  N   UNL     1      46.251   4.308   8.023  0.00  0.00    +0.000 NA
ATOM      7  C   UNL     1      46.371   3.033   7.574  0.00  0.00    +0.000 A 
ATOM      8  C   UNL     1      45.902   1.951   8.298  0.00  0.00    +0.000 A 
ATOM      9  N   UNL     1      45.286   2.091   9.509  0.00  0.00    +0.000 NA
ATOM     10  H   UNL     1      44.169   2.556  11.455  0.00  0.00    +0.000 HD
BRANCH   7  11
ATOM     11  C   UNL     1      47.044   2.836   6.260  0.00  0.00    +0.000 C 
ATOM     12  N   UNL     1      48.388   2.582   6.299  0.00  0.00    +0.000 N 
ATOM     13  O   UNL     1      46.432   2.891   5.197  0.00  0.00    +0.000 OA
ATOM     14  H   UNL     1      48.876   2.534   7.187  0.00  0.00    +0.000 HD
ATOM     15  H   UNL     1      48.888   2.424   5.435  0.00  0.00    +0.000 HD
ENDBRANCH   7  11
ENDBRANCH   2   3
BRANCH   2  16
ATOM     16  C   UNL     1      44.961   5.661  12.168  0.00  0.00    +0.000 A 
ATOM     17  C   UNL     1      44.840   6.990  11.740  0.00  0.00    +0.000 A 
ATOM     18  C   UNL     1      45.739   7.963  12.185  0.00  0.00    +0.000 A 
ATOM     19  C   UNL     1      46.778   7.626  13.064  0.00  0.00    +0.000 A 
ATOM     20  C   UNL     1      46.921   6.298  13.451  0.00  0.00    +0.000 A 
ATOM     21  F   UNL     1      47.912   5.944  14.278  0.00  0.00    +0.000 F 
ATOM     22  C   UNL     1      46.029   5.319  13.013  0.00  0.00    +0.000 A 
BRANCH  19  23
ATOM     23  C   UNL     1      47.702   8.669  13.615  0.00  0.00    +0.000 C 
ATOM     24  F   UNL     1      49.019   8.362  13.422  0.00  0.00    +0.000 F 
ATOM     25  F   UNL     1      47.529   9.889  13.035  0.00  0.00    +0.000 F 
ATOM     26  F   UNL     1      47.566   8.857  14.956  0.00  0.00    +0.000 F 
ENDBRANCH  19  23
ENDBRANCH   2  16
TORSDOF 4
ENDMDL
MODEL 8
REMARK VINA RESULT:    -6.072      5.792      8.081
REMARK INTER + INTRA:          -8.289
REMARK INTER:                  -7.570
REMARK INTRA:                  -0.719
REMARK UNBOUND:                -0.797
REMARK  Name = 
REMARK  5 active torsions:
REMARK  status: ('A' for Active; 'I' for Inactive)
REMARK    1  A    between atoms: C_1  and  C_2
REMARK    2  A    between atoms: C_2  and  N_3
REMARK    3  A    between atoms: C_2  and  C_13
REMARK    4  A    between atoms: C_7  and  C_8
REMARK    5  A    between atoms: C_16  and  C_17
REMARK                            x       y       z     vdW  Elec       q    Type
REMARK                         _______ _______ _______ _____ _____    ______ ____
ROOT
ATOM      1  C   UNL     1      47.274   8.444  13.630  0.00  0.00    +0.000 C 
ATOM      2  C   UNL     1      47.714   6.976  13.655  0.00  0.00    +0.000 C 
ENDROOT
BRANCH   2   3
ATOM      3  N   UNL     1      47.665   6.414  15.001  0.00  0.00    +0.000 N 
ATOM      4  C   UNL     1      48.785   6.051  15.718  0.00  0.00    +0.000 A 
ATOM      5  C   UNL     1      50.048   6.637  15.592  0.00  0.00    +0.000 A 
ATOM      6  N   UNL     1      51.131   6.311  16.344  0.00  0.00    +0.000 NA
ATOM      7  C   UNL     1      50.896   5.364  17.288  0.00  0.00    +0.000 A 
ATOM      8  C   UNL     1      49.655   4.773  17.442  0.00  0.00    +0.000 A 
ATOM      9  N   UNL     1      48.585   5.096  16.656  0.00  0.00    +0.000 NA
ATOM     10  H   UNL     1      46.964   5.690  15.150  0.00  0.00    +0.000 HD
BRANCH   7  11
ATOM     11  C   UNL     1      52.034   4.988  18.171  0.00  0.00    +0.000 C 
ATOM     12  N   UNL     1      51.884   3.840  18.900  0.00  0.00    +0.000 N 
ATOM     13  O   UNL     1      53.057   5.665  18.243  0.00  0.00    +0.000 OA
ATOM     14  H   UNL     1      51.033   3.291  18.823  0.00  0.00    +0.000 HD
ATOM     15  H   UNL     1      52.634   3.533  19.502  0.00  0.00    +0.000 HD
ENDBRANCH   7  11
ENDBRANCH   2   3
BRANCH   2  16
ATOM     16  C   UNL     1      46.790   6.159  12.760  0.00  0.00    +0.000 A 
ATOM     17  C   UNL     1      46.427   6.654  11.501  0.00  0.00    +0.000 A 
ATOM     18  C   UNL     1      45.644   5.885  10.635  0.00  0.00    +0.000 A 
ATOM     19  C   UNL     1      45.207   4.607  11.013  0.00  0.00    +0.000 A 
ATOM     20  C   UNL     1      45.534   4.138  12.281  0.00  0.00    +0.000 A 
ATOM     21  F   UNL     1      45.120   2.927  12.675  0.00  0.00    +0.000 F 
ATOM     22  C   UNL     1      46.314   4.897  13.152  0.00  0.00    +0.000 A 
BRANCH  19  23
ATOM     23  C   UNL     1      44.437   3.735  10.068  0.00  0.00    +0.000 C 
ATOM     24  F   UNL     1      43.267   3.280  10.606  0.00  0.00    +0.000 F 
ATOM     25  F   UNL     1      44.079   4.382   8.925  0.00  0.00    +0.000 F 
ATOM     26  F   UNL     1      45.118   2.621   9.684  0.00  0.00    +0.000 F 
ENDBRANCH  19  23
ENDBRANCH   2  16
TORSDOF 4
ENDMDL
MODEL 9
REMARK VINA RESULT:    -5.867      4.966      6.993
REMARK INTER + INTRA:          -8.037
REMARK INTER:                  -7.415
REMARK INTRA:                  -0.621
REMARK UNBOUND:                -0.797
REMARK  Name = 
REMARK  5 active torsions:
REMARK  status: ('A' for Active; 'I' for Inactive)
REMARK    1  A    between atoms: C_1  and  C_2
REMARK    2  A    between atoms: C_2  and  N_3
REMARK    3  A    between atoms: C_2  and  C_13
REMARK    4  A    between atoms: C_7  and  C_8
REMARK    5  A    between atoms: C_16  and  C_17
REMARK                            x       y       z     vdW  Elec       q    Type
REMARK                         _______ _______ _______ _____ _____    ______ ____
ROOT
ATOM      1  C   UNL     1      47.109   4.564  17.939  0.00  0.00    +0.000 C 
ATOM      2  C   UNL     1      47.840   4.236  16.632  0.00  0.00    +0.000 C 
ENDROOT
BRANCH   2   3
ATOM      3  N   UNL     1      47.838   5.365  15.708  0.00  0.00    +0.000 N 
ATOM      4  C   UNL     1      47.229   5.339  14.472  0.00  0.00    +0.000 A 
ATOM      5  C   UNL     1      46.109   4.572  14.140  0.00  0.00    +0.000 A 
ATOM      6  N   UNL     1      45.481   4.597  12.936  0.00  0.00    +0.000 NA
ATOM      7  C   UNL     1      46.010   5.475  12.046  0.00  0.00    +0.000 A 
ATOM      8  C   UNL     1      47.112   6.254  12.347  0.00  0.00    +0.000 A 
ATOM      9  N   UNL     1      47.745   6.193  13.556  0.00  0.00    +0.000 NA
ATOM     10  H   UNL     1      48.733   5.841  15.594  0.00  0.00    +0.000 HD
BRANCH   7  11
ATOM     11  C   UNL     1      45.344   5.578  10.718  0.00  0.00    +0.000 C 
ATOM     12  N   UNL     1      43.982   5.700  10.729  0.00  0.00    +0.000 N 
ATOM     13  O   UNL     1      45.978   5.560   9.666  0.00  0.00    +0.000 OA
ATOM     14  H   UNL     1      43.475   5.719  11.609  0.00  0.00    +0.000 HD
ATOM     15  H   UNL     1      43.484   5.791   9.855  0.00  0.00    +0.000 HD
ENDBRANCH   7  11
ENDBRANCH   2   3
BRANCH   2  16
ATOM     16  C   UNL     1      49.286   3.871  16.942  0.00  0.00    +0.000 A 
ATOM     17  C   UNL     1      50.216   4.885  17.207  0.00  0.00    +0.000 A 
ATOM     18  C   UNL     1      51.528   4.568  17.569  0.00  0.00    +0.000 A 
ATOM     19  C   UNL     1      51.937   3.230  17.671  0.00  0.00    +0.000 A 
ATOM     20  C   UNL     1      51.022   2.228  17.365  0.00  0.00    +0.000 A 
ATOM     21  F   UNL     1      51.387   0.942  17.440  0.00  0.00    +0.000 F 
ATOM     22  C   UNL     1      49.711   2.534  17.003  0.00  0.00    +0.000 A 
BRANCH  19  23
ATOM     23  C   UNL     1      53.315   2.869  18.137  0.00  0.00    +0.000 C 
ATOM     24  F   UNL     1      54.179   3.926  18.093  0.00  0.00    +0.000 F 
ATOM     25  F   UNL     1      53.340   2.437  19.428  0.00  0.00    +0.000 F 
ATOM     26  F   UNL     1      53.898   1.892  17.391  0.00  0.00    +0.000 F 
ENDBRANCH  19  23
ENDBRANCH   2  16
TORSDOF 4
ENDMDL
