MODEL 1
REMARK VINA RESULT:    -9.001      0.000      0.000
REMARK INTER + INTRA:         -12.166
REMARK INTER:                 -11.632
REMARK INTRA:                  -0.534
REMARK UNBOUND:                -0.534
REMARK  Name = 
REMARK  5 active torsions:
REMARK  status: ('A' for Active; 'I' for Inactive)
REMARK    1  A    between atoms: C_2  and  C_4
REMARK    2  A    between atoms: C_7  and  C_8
REMARK    3  A    between atoms: C_8  and  O_9
REMARK    4  A    between atoms: O_9  and  C_10
REMARK    5  A    between atoms: C_12  and  C_13
REMARK                            x       y       z     vdW  Elec       q    Type
REMARK                         _______ _______ _______ _____ _____    ______ ____
ROOT
ATOM      1  O   UNL     1      43.916   4.064  11.662  0.00  0.00    +0.000 OA
ENDROOT
BRANCH   1   2
ATOM      2  C   UNL     1      45.102   4.457  12.256  0.00  0.00    +0.000 A 
ATOM      3  C   UNL     1      45.610   5.681  11.881  0.00  0.00    +0.000 A 
ATOM      4  C   UNL     1      46.774   6.082  12.512  0.00  0.00    +0.000 A 
ATOM      5  N   UNL     1      47.387   5.293  13.424  0.00  0.00    +0.000 NA
ATOM      6  C   UNL     1      46.807   4.121  13.706  0.00  0.00    +0.000 A 
ATOM      7  N   UNL     1      45.681   3.654  13.163  0.00  0.00    +0.000 NA
BRANCH   4   8
ATOM      8  C   UNL     1      47.424   7.393  12.291  0.00  0.00    +0.000 A 
ATOM      9  C   UNL     1      48.780   7.508  11.925  0.00  0.00    +0.000 A 
ATOM     10  C   UNL     1      49.360   8.752  11.650  0.00  0.00    +0.000 A 
ATOM     11  C   UNL     1      48.597   9.912  11.738  0.00  0.00    +0.000 A 
ATOM     12  C   UNL     1      47.263   9.819  12.108  0.00  0.00    +0.000 A 
ATOM     13  F   UNL     1      46.522  10.932  12.189  0.00  0.00    +0.000 F 
ATOM     14  C   UNL     1      46.679   8.585  12.382  0.00  0.00    +0.000 A 
ENDBRANCH   4   8
ENDBRANCH   1   2
BRANCH   1  15
ATOM     15  C   UNL     1      43.777   4.585  10.336  0.00  0.00    +0.000 C 
BRANCH  15  19
ATOM     16  C   UNL     1      46.478   2.489   7.683  0.00  0.00    +0.000 A 
ATOM     17  C   UNL     1      46.395   3.886   7.638  0.00  0.00    +0.000 A 
ATOM     18  C   UNL     1      45.516   4.564   8.490  0.00  0.00    +0.000 A 
ATOM     19  C   UNL     1      44.707   3.856   9.392  0.00  0.00    +0.000 A 
ATOM     20  C   UNL     1      44.798   2.456   9.430  0.00  0.00    +0.000 A 
ATOM     21  C   UNL     1      45.671   1.778   8.577  0.00  0.00    +0.000 A 
BRANCH  16  23
ATOM     22  N   UNL     1      48.476   2.369   6.290  0.00  0.00    +0.000 N 
ATOM     23  C   UNL     1      47.378   1.720   6.785  0.00  0.00    +0.000 C 
ATOM     24  O   UNL     1      47.174   0.543   6.521  0.00  0.00    +0.000 OA
ATOM     25  H   UNL     1      49.130   1.801   5.768  0.00  0.00    +0.000 HD
ATOM     26  H   UNL     1      48.814   3.235   6.684  0.00  0.00    +0.000 HD
ENDBRANCH  16  23
ENDBRANCH  15  19
ENDBRANCH   1  15
TORSDOF 5
ENDMDL
MODEL 2
REMARK VINA RESULT:    -8.599      1.637      2.083
REMARK INTER + INTRA:         -11.647
REMARK INTER:                 -10.955
REMARK INTRA:                  -0.692
REMARK UNBOUND:                -0.534
REMARK  Name = 
REMARK  5 active torsions:
REMARK  status: ('A' for Active; 'I' for Inactive)
REMARK    1  A    between atoms: C_2  and  C_4
REMARK    2  A    between atoms: C_7  and  C_8
REMARK    3  A    between atoms: C_8  and  O_9
REMARK    4  A    between atoms: O_9  and  C_10
REMARK    5  A    between atoms: C_12  and  C_13
REMARK                            x       y       z     vdW  Elec       q    Type
REMARK                         _______ _______ _______ _____ _____    ______ ____
ROOT
ATOM      1  O   UNL     1      44.212   5.223  11.133  0.00  0.00    +0.000 OA
ENDROOT
BRANCH   1   2
ATOM      2  C   UNL     1      45.294   5.139  11.991  0.00  0.00    +0.000 A 
ATOM      3  C   UNL     1      46.308   6.052  11.807  0.00  0.00    +0.000 A 
ATOM      4  C   UNL     1      47.364   5.985  12.697  0.00  0.00    +0.000 A 
ATOM      5  N   UNL     1      47.403   5.047  13.672  0.00  0.00    +0.000 NA
ATOM      6  C   UNL     1      46.365   4.207  13.753  0.00  0.00    +0.000 A 
ATOM      7  N   UNL     1      45.297   4.202  12.953  0.00  0.00    +0.000 NA
BRANCH   4   8
ATOM      8  C   UNL     1      48.505   6.927  12.698  0.00  0.00    +0.000 A 
ATOM      9  C   UNL     1      48.826   7.719  11.579  0.00  0.00    +0.000 A 
ATOM     10  C   UNL     1      49.866   8.658  11.621  0.00  0.00    +0.000 A 
ATOM     11  C   UNL     1      50.610   8.822  12.785  0.00  0.00    +0.000 A 
ATOM     12  C   UNL     1      50.314   8.041  13.893  0.00  0.00    +0.000 A 
ATOM     13  F   UNL     1      51.024   8.198  15.019  0.00  0.00    +0.000 F 
ATOM     14  C   UNL     1      49.282   7.108  13.858  0.00  0.00    +0.000 A 
ENDBRANCH   4   8
ENDBRANCH   1   2
BRANCH   1  15
ATOM     15  C   UNL     1      43.816   3.942  10.633  0.00  0.00    +0.000 C 
BRANCH  15  19
ATOM     16  C   UNL     1      46.499   2.663   7.487  0.00  0.00    +0.000 A 
ATOM     17  C   UNL     1      45.942   1.720   8.359  0.00  0.00    +0.000 A 
ATOM     18  C   UNL     1      45.081   2.133   9.382  0.00  0.00    +0.000 A 
ATOM     19  C   UNL     1      44.770   3.491   9.548  0.00  0.00    +0.000 A 
ATOM     20  C   UNL     1      45.332   4.429   8.668  0.00  0.00    +0.000 A 
ATOM     21  C   UNL     1      46.195   4.018   7.651  0.00  0.00    +0.000 A 
BRANCH  16  23
ATOM     22  N   UNL     1      47.352   2.974   5.224  0.00  0.00    +0.000 N 
ATOM     23  C   UNL     1      47.435   2.279   6.399  0.00  0.00    +0.000 C 
ATOM     24  O   UNL     1      48.276   1.402   6.551  0.00  0.00    +0.000 OA
ATOM     25  H   UNL     1      48.065   2.770   4.535  0.00  0.00    +0.000 HD
ATOM     26  H   UNL     1      46.866   3.856   5.151  0.00  0.00    +0.000 HD
ENDBRANCH  16  23
ENDBRANCH  15  19
ENDBRANCH   1  15
TORSDOF 5
ENDMDL
MODEL 3
REMARK VINA RESULT:    -8.565      2.716      3.907
REMARK INTER + INTRA:         -11.603
REMARK INTER:                 -10.942
REMARK INTRA:                  -0.661
REMARK UNBOUND:                -0.534
REMARK  Name = 
REMARK  5 active torsions:
REMARK  status: ('A' for Active; 'I' for Inactive)
REMARK    1  A    between atoms: C_2  and  C_4
REMARK    2  A    between atoms: C_7  and  C_8
REMARK    3  A    between atoms: C_8  and  O_9
REMARK    4  A    between atoms: O_9  and  C_10
REMARK    5  A    between atoms: C_12  and  C_13
REMARK                            x       y       z     vdW  Elec       q    Type
REMARK                         _______ _______ _______ _____ _____    ______ ____
ROOT
ATOM      1  O   UNL     1      43.973   4.527  11.551  0.00  0.00    +0.000 OA
ENDROOT
BRANCH   1   2
ATOM      2  C   UNL     1      44.994   5.291  12.087  0.00  0.00    +0.000 A 
ATOM      3  C   UNL     1      45.571   4.833  13.250  0.00  0.00    +0.000 A 
ATOM      4  C   UNL     1      46.619   5.583  13.753  0.00  0.00    +0.000 A 
ATOM      5  N   UNL     1      47.025   6.721  13.143  0.00  0.00    +0.000 NA
ATOM      6  C   UNL     1      46.387   7.073  12.021  0.00  0.00    +0.000 A 
ATOM      7  N   UNL     1      45.379   6.411  11.452  0.00  0.00    +0.000 NA
BRANCH   4   8
ATOM      8  C   UNL     1      47.403   5.208  14.950  0.00  0.00    +0.000 A 
ATOM      9  C   UNL     1      48.399   6.044  15.489  0.00  0.00    +0.000 A 
ATOM     10  C   UNL     1      49.083   5.705  16.664  0.00  0.00    +0.000 A 
ATOM     11  C   UNL     1      48.786   4.517  17.325  0.00  0.00    +0.000 A 
ATOM     12  C   UNL     1      47.815   3.675  16.801  0.00  0.00    +0.000 A 
ATOM     13  F   UNL     1      47.522   2.532  17.436  0.00  0.00    +0.000 F 
ATOM     14  C   UNL     1      47.132   4.007  15.635  0.00  0.00    +0.000 A 
ENDBRANCH   4   8
ENDBRANCH   1   2
BRANCH   1  15
ATOM     15  C   UNL     1      43.782   4.780  10.156  0.00  0.00    +0.000 C 
BRANCH  15  19
ATOM     16  C   UNL     1      46.389   2.282   7.769  0.00  0.00    +0.000 A 
ATOM     17  C   UNL     1      45.503   1.699   8.683  0.00  0.00    +0.000 A 
ATOM     18  C   UNL     1      44.665   2.506   9.461  0.00  0.00    +0.000 A 
ATOM     19  C   UNL     1      44.706   3.903   9.339  0.00  0.00    +0.000 A 
ATOM     20  C   UNL     1      45.596   4.479   8.420  0.00  0.00    +0.000 A 
ATOM     21  C   UNL     1      46.436   3.675   7.647  0.00  0.00    +0.000 A 
BRANCH  16  23
ATOM     22  N   UNL     1      48.397   2.112   6.396  0.00  0.00    +0.000 N 
ATOM     23  C   UNL     1      47.315   1.472   6.936  0.00  0.00    +0.000 C 
ATOM     24  O   UNL     1      47.145   0.272   6.764  0.00  0.00    +0.000 OA
ATOM     25  H   UNL     1      49.070   1.523   5.922  0.00  0.00    +0.000 HD
ATOM     26  H   UNL     1      48.709   3.015   6.723  0.00  0.00    +0.000 HD
ENDBRANCH  16  23
ENDBRANCH  15  19
ENDBRANCH   1  15
TORSDOF 5
ENDMDL
MODEL 4
REMARK VINA RESULT:    -8.167      3.776      7.579
REMARK INTER + INTRA:         -11.089
REMARK INTER:                 -10.543
REMARK INTRA:                  -0.546
REMARK UNBOUND:                -0.534
REMARK  Name = 
REMARK  5 active torsions:
REMARK  status: ('A' for Active; 'I' for Inactive)
REMARK    1  A    between atoms: C_2  and  C_4
REMARK    2  A    between atoms: C_7  and  C_8
REMARK    3  A    between atoms: C_8  and  O_9
REMARK    4  A    between atoms: O_9  and  C_10
REMARK    5  A    between atoms: C_12  and  C_13
REMARK                            x       y       z     vdW  Elec       q    Type
REMARK                         _______ _______ _______ _____ _____    ______ ____
ROOT
ATOM      1  O   UNL     1      45.563   6.820  11.893  0.00  0.00    +0.000 OA
ENDROOT
BRANCH   1   2
ATOM      2  C   UNL     1      44.937   5.772  11.240  0.00  0.00    +0.000 A 
ATOM      3  C   UNL     1      45.638   5.166  10.221  0.00  0.00    +0.000 A 
ATOM      4  C   UNL     1      45.019   4.094   9.604  0.00  0.00    +0.000 A 
ATOM      5  N   UNL     1      43.780   3.691   9.969  0.00  0.00    +0.000 NA
ATOM      6  C   UNL     1      43.191   4.359  10.968  0.00  0.00    +0.000 A 
ATOM      7  N   UNL     1      43.710   5.392  11.633  0.00  0.00    +0.000 NA
BRANCH   4   8
ATOM      8  C   UNL     1      45.647   3.279   8.541  0.00  0.00    +0.000 A 
ATOM      9  C   UNL     1      46.190   3.852   7.374  0.00  0.00    +0.000 A 
ATOM     10  C   UNL     1      46.844   3.072   6.412  0.00  0.00    +0.000 A 
ATOM     11  C   UNL     1      46.967   1.699   6.594  0.00  0.00    +0.000 A 
ATOM     12  C   UNL     1      46.429   1.115   7.732  0.00  0.00    +0.000 A 
ATOM     13  F   UNL     1      46.549  -0.207   7.915  0.00  0.00    +0.000 F 
ATOM     14  C   UNL     1      45.778   1.884   8.693  0.00  0.00    +0.000 A 
ENDBRANCH   4   8
ENDBRANCH   1   2
BRANCH   1  15
ATOM     15  C   UNL     1      46.970   6.605  12.036  0.00  0.00    +0.000 C 
BRANCH  15  19
ATOM     16  C   UNL     1      47.903   5.103  15.986  0.00  0.00    +0.000 A 
ATOM     17  C   UNL     1      47.014   4.402  15.162  0.00  0.00    +0.000 A 
ATOM     18  C   UNL     1      46.705   4.891  13.888  0.00  0.00    +0.000 A 
ATOM     19  C   UNL     1      47.276   6.086  13.424  0.00  0.00    +0.000 A 
ATOM     20  C   UNL     1      48.167   6.780  14.257  0.00  0.00    +0.000 A 
ATOM     21  C   UNL     1      48.472   6.296  15.530  0.00  0.00    +0.000 A 
BRANCH  16  23
ATOM     22  N   UNL     1      47.221   4.517  18.253  0.00  0.00    +0.000 N 
ATOM     23  C   UNL     1      48.247   4.639  17.355  0.00  0.00    +0.000 C 
ATOM     24  O   UNL     1      49.392   4.340  17.667  0.00  0.00    +0.000 OA
ATOM     25  H   UNL     1      47.458   4.101  19.144  0.00  0.00    +0.000 HD
ATOM     26  H   UNL     1      46.253   4.499  17.968  0.00  0.00    +0.000 HD
ENDBRANCH  16  23
ENDBRANCH  15  19
ENDBRANCH   1  15
TORSDOF 5
ENDMDL
MODEL 5
REMARK VINA RESULT:    -8.115      3.701      7.248
REMARK INTER + INTRA:         -11.022
REMARK INTER:                 -10.327
REMARK INTRA:                  -0.695
REMARK UNBOUND:                -0.534
REMARK  Name = 
REMARK  5 active torsions:
REMARK  status: ('A' for Active; 'I' for Inactive)
REMARK    1  A    between atoms: C_2  and  C_4
REMARK    2  A    between atoms: C_7  and  C_8
REMARK    3  A    between atoms: C_8  and  O_9
REMARK    4  A    between atoms: O_9  and  C_10
REMARK    5  A    between atoms: C_12  and  C_13
REMARK                            x       y       z     vdW  Elec       q    Type
REMARK                         _______ _______ _______ _____ _____    ______ ____
ROOT
ATOM      1  O   UNL     1      44.313   6.409  12.252  0.00  0.00    +0.000 OA
ENDROOT
BRANCH   1   2
ATOM      2  C   UNL     1      44.131   5.159  11.686  0.00  0.00    +0.000 A 
ATOM      3  C   UNL     1      44.852   4.881  10.546  0.00  0.00    +0.000 A 
ATOM      4  C   UNL     1      44.693   3.615  10.013  0.00  0.00    +0.000 A 
ATOM      5  N   UNL     1      43.848   2.718  10.571  0.00  0.00    +0.000 NA
ATOM      6  C   UNL     1      43.193   3.100  11.673  0.00  0.00    +0.000 A 
ATOM      7  N   UNL     1      43.291   4.289  12.269  0.00  0.00    +0.000 NA
BRANCH   4   8
ATOM      8  C   UNL     1      45.438   3.115   8.836  0.00  0.00    +0.000 A 
ATOM      9  C   UNL     1      45.896   3.972   7.816  0.00  0.00    +0.000 A 
ATOM     10  C   UNL     1      46.661   3.491   6.746  0.00  0.00    +0.000 A 
ATOM     11  C   UNL     1      46.984   2.140   6.671  0.00  0.00    +0.000 A 
ATOM     12  C   UNL     1      46.532   1.280   7.661  0.00  0.00    +0.000 A 
ATOM     13  F   UNL     1      46.844  -0.022   7.597  0.00  0.00    +0.000 F 
ATOM     14  C   UNL     1      45.772   1.751   8.728  0.00  0.00    +0.000 A 
ENDBRANCH   4   8
ENDBRANCH   1   2
BRANCH   1  15
ATOM     15  C   UNL     1      45.187   7.233  11.475  0.00  0.00    +0.000 C 
BRANCH  15  19
ATOM     16  C   UNL     1      48.785   8.037  13.741  0.00  0.00    +0.000 A 
ATOM     17  C   UNL     1      47.614   8.756  14.007  0.00  0.00    +0.000 A 
ATOM     18  C   UNL     1      46.452   8.502  13.270  0.00  0.00    +0.000 A 
ATOM     19  C   UNL     1      46.448   7.533  12.256  0.00  0.00    +0.000 A 
ATOM     20  C   UNL     1      47.626   6.816  11.997  0.00  0.00    +0.000 A 
ATOM     21  C   UNL     1      48.787   7.072  12.729  0.00  0.00    +0.000 A 
BRANCH  16  23
ATOM     22  N   UNL     1      51.195   7.741  13.962  0.00  0.00    +0.000 N 
ATOM     23  C   UNL     1      50.051   8.283  14.480  0.00  0.00    +0.000 C 
ATOM     24  O   UNL     1      50.084   8.972  15.491  0.00  0.00    +0.000 OA
ATOM     25  H   UNL     1      52.059   8.006  14.419  0.00  0.00    +0.000 HD
ATOM     26  H   UNL     1      51.251   7.399  13.014  0.00  0.00    +0.000 HD
ENDBRANCH  16  23
ENDBRANCH  15  19
ENDBRANCH   1  15
TORSDOF 5
ENDMDL
MODEL 6
REMARK VINA RESULT:    -7.564      3.654      7.067
REMARK INTER + INTRA:         -10.310
REMARK INTER:                  -9.662
REMARK INTRA:                  -0.647
REMARK UNBOUND:                -0.534
REMARK  Name = 
REMARK  5 active torsions:
REMARK  status: ('A' for Active; 'I' for Inactive)
REMARK    1  A    between atoms: C_2  and  C_4
REMARK    2  A    between atoms: C_7  and  C_8
REMARK    3  A    between atoms: C_8  and  O_9
REMARK    4  A    between atoms: O_9  and  C_10
REMARK    5  A    between atoms: C_12  and  C_13
REMARK                            x       y       z     vdW  Elec       q    Type
REMARK                         _______ _______ _______ _____ _____    ______ ____
ROOT
ATOM      1  O   UNL     1      45.124   6.637  12.914  0.00  0.00    +0.000 OA
ENDROOT
BRANCH   1   2
ATOM      2  C   UNL     1      44.531   5.666  12.126  0.00  0.00    +0.000 A 
ATOM      3  C   UNL     1      45.260   5.207  11.051  0.00  0.00    +0.000 A 
ATOM      4  C   UNL     1      44.675   4.207  10.295  0.00  0.00    +0.000 A 
ATOM      5  N   UNL     1      43.440   3.736  10.587  0.00  0.00    +0.000 NA
ATOM      6  C   UNL     1      42.823   4.261  11.651  0.00  0.00    +0.000 A 
ATOM      7  N   UNL     1      43.309   5.215  12.448  0.00  0.00    +0.000 NA
BRANCH   4   8
ATOM      8  C   UNL     1      45.336   3.544   9.150  0.00  0.00    +0.000 A 
ATOM      9  C   UNL     1      45.936   4.272   8.104  0.00  0.00    +0.000 A 
ATOM     10  C   UNL     1      46.620   3.629   7.064  0.00  0.00    +0.000 A 
ATOM     11  C   UNL     1      46.715   2.240   7.046  0.00  0.00    +0.000 A 
ATOM     12  C   UNL     1      46.120   1.507   8.062  0.00  0.00    +0.000 A 
ATOM     13  F   UNL     1      46.212   0.171   8.052  0.00  0.00    +0.000 F 
ATOM     14  C   UNL     1      45.440   2.140   9.099  0.00  0.00    +0.000 A 
ENDBRANCH   4   8
ENDBRANCH   1   2
BRANCH   1  15
ATOM     15  C   UNL     1      45.490   7.797  12.160  0.00  0.00    +0.000 C 
BRANCH  15  19
ATOM     16  C   UNL     1      49.739   8.513  12.566  0.00  0.00    +0.000 A 
ATOM     17  C   UNL     1      48.908   9.507  12.034  0.00  0.00    +0.000 A 
ATOM     18  C   UNL     1      47.535   9.274  11.895  0.00  0.00    +0.000 A 
ATOM     19  C   UNL     1      46.978   8.045  12.280  0.00  0.00    +0.000 A 
ATOM     20  C   UNL     1      47.818   7.055  12.812  0.00  0.00    +0.000 A 
ATOM     21  C   UNL     1      49.188   7.285  12.947  0.00  0.00    +0.000 A 
BRANCH  16  23
ATOM     22  N   UNL     1      51.864   7.860  13.566  0.00  0.00    +0.000 N 
ATOM     23  C   UNL     1      51.205   8.702  12.713  0.00  0.00    +0.000 C 
ATOM     24  O   UNL     1      51.814   9.551  12.075  0.00  0.00    +0.000 OA
ATOM     25  H   UNL     1      52.873   7.935  13.573  0.00  0.00    +0.000 HD
ATOM     26  H   UNL     1      51.454   7.000  13.900  0.00  0.00    +0.000 HD
ENDBRANCH  16  23
ENDBRANCH  15  19
ENDBRANCH   1  15
TORSDOF 5
ENDMDL
MODEL 7
REMARK VINA RESULT:    -6.943      5.480      8.391
REMARK INTER + INTRA:          -9.506
REMARK INTER:                  -8.890
REMARK INTRA:                  -0.617
REMARK UNBOUND:                -0.534
REMARK  Name = 
REMARK  5 active torsions:
REMARK  status: ('A' for Active; 'I' for Inactive)
REMARK    1  A    between atoms: C_2  and  C_4
REMARK    2  A    between atoms: C_7  and  C_8
REMARK    3  A    between atoms: C_8  and  O_9
REMARK    4  A    between atoms: O_9  and  C_10
REMARK    5  A    between atoms: C_12  and  C_13
REMARK                            x       y       z     vdW  Elec       q    Type
REMARK                         _______ _______ _______ _____ _____    ______ ____
ROOT
ATOM      1  O   UNL     1      47.954   4.122  16.606  0.00  0.00    +0.000 OA
ENDROOT
BRANCH   1   2
ATOM      2  C   UNL     1      47.759   4.841  15.440  0.00  0.00    +0.000 A 
ATOM      3  C   UNL     1      46.862   4.324  14.532  0.00  0.00    +0.000 A 
ATOM      4  C   UNL     1      46.645   5.073  13.390  0.00  0.00    +0.000 A 
ATOM      5  N   UNL     1      47.306   6.233  13.173  0.00  0.00    +0.000 NA
ATOM      6  C   UNL     1      48.159   6.636  14.122  0.00  0.00    +0.000 A 
ATOM      7  N   UNL     1      48.425   5.993  15.260  0.00  0.00    +0.000 NA
BRANCH   4   8
ATOM      8  C   UNL     1      45.667   4.712  12.340  0.00  0.00    +0.000 A 
ATOM      9  C   UNL     1      45.627   5.365  11.093  0.00  0.00    +0.000 A 
ATOM     10  C   UNL     1      44.742   4.963  10.084  0.00  0.00    +0.000 A 
ATOM     11  C   UNL     1      43.873   3.899  10.303  0.00  0.00    +0.000 A 
ATOM     12  C   UNL     1      43.890   3.251  11.530  0.00  0.00    +0.000 A 
ATOM     13  F   UNL     1      43.059   2.223  11.744  0.00  0.00    +0.000 F 
ATOM     14  C   UNL     1      44.768   3.645  12.536  0.00  0.00    +0.000 A 
ENDBRANCH   4   8
ENDBRANCH   1   2
BRANCH   1  15
ATOM     15  C   UNL     1      49.003   4.669  17.410  0.00  0.00    +0.000 C 
BRANCH  15  19
ATOM     16  C   UNL     1      52.232   1.812  17.787  0.00  0.00    +0.000 A 
ATOM     17  C   UNL     1      51.005   1.415  17.242  0.00  0.00    +0.000 A 
ATOM     18  C   UNL     1      49.958   2.336  17.127  0.00  0.00    +0.000 A 
ATOM     19  C   UNL     1      50.122   3.661  17.559  0.00  0.00    +0.000 A 
ATOM     20  C   UNL     1      51.355   4.050  18.103  0.00  0.00    +0.000 A 
ATOM     21  C   UNL     1      52.400   3.130  18.222  0.00  0.00    +0.000 A 
BRANCH  16  23
ATOM     22  N   UNL     1      53.586  -0.033  16.945  0.00  0.00    +0.000 N 
ATOM     23  C   UNL     1      53.368   0.868  17.951  0.00  0.00    +0.000 C 
ATOM     24  O   UNL     1      54.107   0.911  18.926  0.00  0.00    +0.000 OA
ATOM     25  H   UNL     1      54.424  -0.595  17.026  0.00  0.00    +0.000 HD
ATOM     26  H   UNL     1      53.175   0.070  16.029  0.00  0.00    +0.000 HD
ENDBRANCH  16  23
ENDBRANCH  15  19
ENDBRANCH   1  15
TORSDOF 5
ENDMDL
MODEL 8
REMARK VINA RESULT:    -6.943      4.455      7.217
REMARK INTER + INTRA:          -9.506
REMARK INTER:                  -8.843
REMARK INTRA:                  -0.663
REMARK UNBOUND:                -0.534
REMARK  Name = 
REMARK  5 active torsions:
REMARK  status: ('A' for Active; 'I' for Inactive)
REMARK    1  A    between atoms: C_2  and  C_4
REMARK    2  A    between atoms: C_7  and  C_8
REMARK    3  A    between atoms: C_8  and  O_9
REMARK    4  A    between atoms: O_9  and  C_10
REMARK    5  A    between atoms: C_12  and  C_13
REMARK                            x       y       z     vdW  Elec       q    Type
REMARK                         _______ _______ _______ _____ _____    ______ ____
ROOT
ATOM      1  O   UNL     1      47.520   3.041  14.679  0.00  0.00    +0.000 OA
ENDROOT
BRANCH   1   2
ATOM      2  C   UNL     1      46.775   3.789  13.784  0.00  0.00    +0.000 A 
ATOM      3  C   UNL     1      47.023   5.143  13.746  0.00  0.00    +0.000 A 
ATOM      4  C   UNL     1      46.302   5.874  12.819  0.00  0.00    +0.000 A 
ATOM      5  N   UNL     1      45.386   5.283  12.017  0.00  0.00    +0.000 NA
ATOM      6  C   UNL     1      45.224   3.961  12.145  0.00  0.00    +0.000 A 
ATOM      7  N   UNL     1      45.879   3.171  12.997  0.00  0.00    +0.000 NA
BRANCH   4   8
ATOM      8  C   UNL     1      46.485   7.323  12.587  0.00  0.00    +0.000 A 
ATOM      9  C   UNL     1      47.749   7.891  12.333  0.00  0.00    +0.000 A 
ATOM     10  C   UNL     1      47.894   9.255  12.046  0.00  0.00    +0.000 A 
ATOM     11  C   UNL     1      46.776  10.082  12.010  0.00  0.00    +0.000 A 
ATOM     12  C   UNL     1      45.525   9.542  12.269  0.00  0.00    +0.000 A 
ATOM     13  F   UNL     1      44.444  10.333  12.231  0.00  0.00    +0.000 F 
ATOM     14  C   UNL     1      45.373   8.188  12.554  0.00  0.00    +0.000 A 
ENDBRANCH   4   8
ENDBRANCH   1   2
BRANCH   1  15
ATOM     15  C   UNL     1      47.474   3.582  16.003  0.00  0.00    +0.000 C 
BRANCH  15  19
ATOM     16  C   UNL     1      51.348   3.268  17.908  0.00  0.00    +0.000 A 
ATOM     17  C   UNL     1      50.719   4.514  17.800  0.00  0.00    +0.000 A 
ATOM     18  C   UNL     1      49.470   4.618  17.177  0.00  0.00    +0.000 A 
ATOM     19  C   UNL     1      48.838   3.481  16.652  0.00  0.00    +0.000 A 
ATOM     20  C   UNL     1      49.476   2.236  16.765  0.00  0.00    +0.000 A 
ATOM     21  C   UNL     1      50.724   2.132  17.381  0.00  0.00    +0.000 A 
BRANCH  16  23
ATOM     22  N   UNL     1      53.127   1.830  18.752  0.00  0.00    +0.000 N 
ATOM     23  C   UNL     1      52.683   3.107  18.539  0.00  0.00    +0.000 C 
ATOM     24  O   UNL     1      53.381   4.070  18.828  0.00  0.00    +0.000 OA
ATOM     25  H   UNL     1      54.079   1.741  19.085  0.00  0.00    +0.000 HD
ATOM     26  H   UNL     1      52.710   1.030  18.299  0.00  0.00    +0.000 HD
ENDBRANCH  16  23
ENDBRANCH  15  19
ENDBRANCH   1  15
TORSDOF 5
ENDMDL
MODEL 9
REMARK VINA RESULT:    -6.437      5.322      7.727
REMARK INTER + INTRA:          -8.853
REMARK INTER:                  -8.190
REMARK INTRA:                  -0.663
REMARK UNBOUND:                -0.534
REMARK  Name = 
REMARK  5 active torsions:
REMARK  status: ('A' for Active; 'I' for Inactive)
REMARK    1  A    between atoms: C_2  and  C_4
REMARK    2  A    between atoms: C_7  and  C_8
REMARK    3  A    between atoms: C_8  and  O_9
REMARK    4  A    between atoms: O_9  and  C_10
REMARK    5  A    between atoms: C_12  and  C_13
REMARK                            x       y       z     vdW  Elec       q    Type
REMARK                         _______ _______ _______ _____ _____    ______ ____
ROOT
ATOM      1  O   UNL     1      46.642   3.684  15.583  0.00  0.00    +0.000 OA
ENDROOT
BRANCH   1   2
ATOM      2  C   UNL     1      47.523   3.898  16.629  0.00  0.00    +0.000 A 
ATOM      3  C   UNL     1      48.704   3.191  16.602  0.00  0.00    +0.000 A 
ATOM      4  C   UNL     1      49.595   3.444  17.630  0.00  0.00    +0.000 A 
ATOM      5  N   UNL     1      49.297   4.319  18.618  0.00  0.00    +0.000 NA
ATOM      6  C   UNL     1      48.117   4.945  18.545  0.00  0.00    +0.000 A 
ATOM      7  N   UNL     1      47.201   4.779  17.589  0.00  0.00    +0.000 NA
BRANCH   4   8
ATOM      8  C   UNL     1      50.938   2.833  17.727  0.00  0.00    +0.000 A 
ATOM      9  C   UNL     1      51.181   1.490  17.379  0.00  0.00    +0.000 A 
ATOM     10  C   UNL     1      52.472   0.947  17.410  0.00  0.00    +0.000 A 
ATOM     11  C   UNL     1      53.551   1.737  17.794  0.00  0.00    +0.000 A 
ATOM     12  C   UNL     1      53.329   3.059  18.151  0.00  0.00    +0.000 A 
ATOM     13  F   UNL     1      54.365   3.826  18.517  0.00  0.00    +0.000 F 
ATOM     14  C   UNL     1      52.048   3.605  18.122  0.00  0.00    +0.000 A 
ENDBRANCH   4   8
ENDBRANCH   1   2
BRANCH   1  15
ATOM     15  C   UNL     1      47.250   3.911  14.308  0.00  0.00    +0.000 C 
BRANCH  15  19
ATOM     16  C   UNL     1      45.510   7.376  12.385  0.00  0.00    +0.000 A 
ATOM     17  C   UNL     1      46.879   7.348  12.672  0.00  0.00    +0.000 A 
ATOM     18  C   UNL     1      47.442   6.231  13.302  0.00  0.00    +0.000 A 
ATOM     19  C   UNL     1      46.643   5.134  13.655  0.00  0.00    +0.000 A 
ATOM     20  C   UNL     1      45.271   5.170  13.362  0.00  0.00    +0.000 A 
ATOM     21  C   UNL     1      44.708   6.286  12.739  0.00  0.00    +0.000 A 
BRANCH  16  23
ATOM     22  N   UNL     1      43.726   8.311  11.011  0.00  0.00    +0.000 N 
ATOM     23  C   UNL     1      44.860   8.546  11.739  0.00  0.00    +0.000 C 
ATOM     24  O   UNL     1      45.292   9.682  11.878  0.00  0.00    +0.000 OA
ATOM     25  H   UNL     1      43.241   9.130  10.667  0.00  0.00    +0.000 HD
ATOM     26  H   UNL     1      43.201   7.452  11.089  0.00  0.00    +0.000 HD
ENDBRANCH  16  23
ENDBRANCH  15  19
ENDBRANCH   1  15
TORSDOF 5
ENDMDL
