MODEL 1
REMARK VINA RESULT:    -7.990      0.000      0.000
REMARK INTER + INTRA:         -11.270
REMARK INTER:                 -10.559
REMARK INTRA:                  -0.711
REMARK UNBOUND:                -0.711
REMARK  Name = 
REMARK  6 active torsions:
REMARK  status: ('A' for Active; 'I' for Inactive)
REMARK    1  A    between atoms: N_1  and  C_2
REMARK    2  A    between atoms: C_2  and  C_3
REMARK    3  A    between atoms: C_3  and  C_4
REMARK    4  A    between atoms: C_7  and  C_8
REMARK    5  A    between atoms: C_8  and  N_9
REMARK    6  A    between atoms: C_14  and  C_15
REMARK                            x       y       z     vdW  Elec       q    Type
REMARK                         _______ _______ _______ _____ _____    ______ ____
ROOT
ATOM      1  N   UNL     1      43.645   4.085  12.209  0.00  0.00    +0.000 N 
ATOM      2  N   UNL     1      42.734   5.087  12.259  0.00  0.00    +0.000 NA
ATOM      3  C   UNL     1      43.470   6.147  12.605  0.00  0.00    +0.000 A 
ATOM      4  C   UNL     1      44.817   5.812  12.862  0.00  0.00    +0.000 A 
ATOM      5  C   UNL     1      46.002   6.514  13.140  0.00  0.00    +0.000 A 
ATOM      6  C   UNL     1      47.189   5.794  13.369  0.00  0.00    +0.000 A 
ATOM      7  C   UNL     1      47.156   4.394  13.430  0.00  0.00    +0.000 A 
ATOM      8  C   UNL     1      45.990   3.681  13.121  0.00  0.00    +0.000 A 
ATOM      9  C   UNL     1      44.856   4.425  12.777  0.00  0.00    +0.000 A 
ENDROOT
BRANCH   6  10
ATOM     10  C   UNL     1      48.455   6.581  13.460  0.00  0.00    +0.000 C 
ATOM     11  N   UNL     1      48.803   7.398  12.421  0.00  0.00    +0.000 N 
ATOM     12  O   UNL     1      49.162   6.539  14.460  0.00  0.00    +0.000 OA
ATOM     13  H   UNL     1      48.284   7.516  11.567  0.00  0.00    +0.000 HD
ATOM     14  H   UNL     1      49.628   7.967  12.555  0.00  0.00    +0.000 HD
ENDBRANCH   6  10
BRANCH   1  15
ATOM     15  C   UNL     1      43.382   2.914  11.377  0.00  0.00    +0.000 C 
BRANCH  15  19
ATOM     16  C   UNL     1      45.845   3.147   7.801  0.00  0.00    +0.000 A 
ATOM     17  C   UNL     1      45.572   1.910   8.398  0.00  0.00    +0.000 A 
ATOM     18  C   UNL     1      44.755   1.829   9.531  0.00  0.00    +0.000 A 
ATOM     19  C   UNL     1      44.182   2.980  10.089  0.00  0.00    +0.000 A 
ATOM     20  C   UNL     1      44.430   4.214   9.467  0.00  0.00    +0.000 A 
ATOM     21  C   UNL     1      45.247   4.295   8.331  0.00  0.00    +0.000 A 
BRANCH  16  22
ATOM     22  C   UNL     1      46.791   3.249   6.626  0.00  0.00    +0.000 C 
BRANCH  22  23
ATOM     23  C   UNL     1      48.005   2.323   6.747  0.00  0.00    +0.000 C 
BRANCH  23  24
ATOM     24  N   UNL     1      48.482   1.912   5.426  0.00  0.00    +0.000 NA
ATOM     25  H   UNL     1      48.139   0.974   5.213  0.00  0.00    +0.000 HD
ATOM     26  H   UNL     1      49.499   1.849   5.426  0.00  0.00    +0.000 HD
ENDBRANCH  23  24
ENDBRANCH  22  23
ENDBRANCH  16  22
ENDBRANCH  15  19
ENDBRANCH   1  15
TORSDOF 6
ENDMDL
MODEL 2
REMARK VINA RESULT:    -7.974      2.491      6.327
REMARK INTER + INTRA:         -11.249
REMARK INTER:                 -10.377
REMARK INTRA:                  -0.872
REMARK UNBOUND:                -0.711
REMARK  Name = 
REMARK  6 active torsions:
REMARK  status: ('A' for Active; 'I' for Inactive)
REMARK    1  A    between atoms: N_1  and  C_2
REMARK    2  A    between atoms: C_2  and  C_3
REMARK    3  A    between atoms: C_3  and  C_4
REMARK    4  A    between atoms: C_7  and  C_8
REMARK    5  A    between atoms: C_8  and  N_9
REMARK    6  A    between atoms: C_14  and  C_15
REMARK                            x       y       z     vdW  Elec       q    Type
REMARK                         _______ _______ _______ _____ _____    ______ ____
ROOT
ATOM      1  N   UNL     1      43.857   4.246  10.530  0.00  0.00    +0.000 N 
ATOM      2  N   UNL     1      43.237   3.211  11.146  0.00  0.00    +0.000 NA
ATOM      3  C   UNL     1      43.813   2.141  10.591  0.00  0.00    +0.000 A 
ATOM      4  C   UNL     1      44.724   2.483   9.569  0.00  0.00    +0.000 A 
ATOM      5  C   UNL     1      45.650   1.799   8.764  0.00  0.00    +0.000 A 
ATOM      6  C   UNL     1      46.387   2.517   7.803  0.00  0.00    +0.000 A 
ATOM      7  C   UNL     1      46.110   3.873   7.581  0.00  0.00    +0.000 A 
ATOM      8  C   UNL     1      45.214   4.575   8.398  0.00  0.00    +0.000 A 
ATOM      9  C   UNL     1      44.589   3.860   9.426  0.00  0.00    +0.000 A 
ENDROOT
BRANCH   6  10
ATOM     10  C   UNL     1      47.495   1.791   7.115  0.00  0.00    +0.000 C 
ATOM     11  N   UNL     1      48.487   2.514   6.514  0.00  0.00    +0.000 N 
ATOM     12  O   UNL     1      47.553   0.567   7.115  0.00  0.00    +0.000 OA
ATOM     13  H   UNL     1      48.542   3.517   6.474  0.00  0.00    +0.000 HD
ATOM     14  H   UNL     1      49.255   1.983   6.124  0.00  0.00    +0.000 HD
ENDBRANCH   6  10
BRANCH   1  15
ATOM     15  C   UNL     1      43.919   5.545  11.194  0.00  0.00    +0.000 C 
BRANCH  15  19
ATOM     16  C   UNL     1      47.730   6.304  13.145  0.00  0.00    +0.000 A 
ATOM     17  C   UNL     1      46.885   5.287  13.607  0.00  0.00    +0.000 A 
ATOM     18  C   UNL     1      45.672   5.021  12.963  0.00  0.00    +0.000 A 
ATOM     19  C   UNL     1      45.279   5.756  11.835  0.00  0.00    +0.000 A 
ATOM     20  C   UNL     1      46.146   6.750  11.356  0.00  0.00    +0.000 A 
ATOM     21  C   UNL     1      47.361   7.016  11.999  0.00  0.00    +0.000 A 
BRANCH  16  22
ATOM     22  C   UNL     1      49.004   6.649  13.885  0.00  0.00    +0.000 C 
BRANCH  22  23
ATOM     23  C   UNL     1      48.779   6.922  15.375  0.00  0.00    +0.000 C 
BRANCH  23  24
ATOM     24  N   UNL     1      49.413   5.890  16.196  0.00  0.00    +0.000 NA
ATOM     25  H   UNL     1      50.047   5.334  15.620  0.00  0.00    +0.000 HD
ATOM     26  H   UNL     1      48.710   5.243  16.549  0.00  0.00    +0.000 HD
ENDBRANCH  23  24
ENDBRANCH  22  23
ENDBRANCH  16  22
ENDBRANCH  15  19
ENDBRANCH   1  15
TORSDOF 6
ENDMDL
MODEL 3
REMARK VINA RESULT:    -7.305      1.635      2.432
REMARK INTER + INTRA:         -10.365
REMARK INTER:                  -9.802
REMARK INTRA:                  -0.563
REMARK UNBOUND:                -0.711
REMARK  Name = 
REMARK  6 active torsions:
REMARK  status: ('A' for Active; 'I' for Inactive)
REMARK    1  A    between atoms: N_1  and  C_2
REMARK    2  A    between atoms: C_2  and  C_3
REMARK    3  A    between atoms: C_3  and  C_4
REMARK    4  A    between atoms: C_7  and  C_8
REMARK    5  A    between atoms: C_8  and  N_9
REMARK    6  A    between atoms: C_14  and  C_15
REMARK                            x       y       z     vdW  Elec       q    Type
REMARK                         _______ _______ _______ _____ _____    ______ ____
ROOT
ATOM      1  N   UNL     1      45.893   4.884  12.489  0.00  0.00    +0.000 N 
ATOM      2  N   UNL     1      45.966   3.968  13.485  0.00  0.00    +0.000 NA
ATOM      3  C   UNL     1      46.786   4.547  14.368  0.00  0.00    +0.000 A 
ATOM      4  C   UNL     1      47.303   5.776  13.904  0.00  0.00    +0.000 A 
ATOM      5  C   UNL     1      48.084   6.814  14.438  0.00  0.00    +0.000 A 
ATOM      6  C   UNL     1      48.422   7.909  13.621  0.00  0.00    +0.000 A 
ATOM      7  C   UNL     1      48.077   7.899  12.262  0.00  0.00    +0.000 A 
ATOM      8  C   UNL     1      47.269   6.888  11.725  0.00  0.00    +0.000 A 
ATOM      9  C   UNL     1      46.846   5.876  12.595  0.00  0.00    +0.000 A 
ENDROOT
BRANCH   6  10
ATOM     10  C   UNL     1      49.078   9.075  14.284  0.00  0.00    +0.000 C 
ATOM     11  N   UNL     1      48.410  10.266  14.341  0.00  0.00    +0.000 N 
ATOM     12  O   UNL     1      50.180   8.973  14.810  0.00  0.00    +0.000 OA
ATOM     13  H   UNL     1      47.498  10.448  13.957  0.00  0.00    +0.000 HD
ATOM     14  H   UNL     1      48.859  11.008  14.862  0.00  0.00    +0.000 HD
ENDBRANCH   6  10
BRANCH   1  15
ATOM     15  C   UNL     1      44.727   4.899  11.610  0.00  0.00    +0.000 C 
BRANCH  15  19
ATOM     16  C   UNL     1      45.860   3.035   7.849  0.00  0.00    +0.000 A 
ATOM     17  C   UNL     1      45.266   2.279   8.867  0.00  0.00    +0.000 A 
ATOM     18  C   UNL     1      44.873   2.881  10.067  0.00  0.00    +0.000 A 
ATOM     19  C   UNL     1      45.054   4.256  10.274  0.00  0.00    +0.000 A 
ATOM     20  C   UNL     1      45.617   5.016   9.238  0.00  0.00    +0.000 A 
ATOM     21  C   UNL     1      46.010   4.413   8.035  0.00  0.00    +0.000 A 
BRANCH  16  22
ATOM     22  C   UNL     1      46.360   2.375   6.583  0.00  0.00    +0.000 C 
BRANCH  22  23
ATOM     23  C   UNL     1      47.766   1.783   6.726  0.00  0.00    +0.000 C 
BRANCH  23  24
ATOM     24  N   UNL     1      48.509   1.894   5.471  0.00  0.00    +0.000 NA
ATOM     25  H   UNL     1      49.512   1.843   5.659  0.00  0.00    +0.000 HD
ATOM     26  H   UNL     1      48.346   2.805   5.047  0.00  0.00    +0.000 HD
ENDBRANCH  23  24
ENDBRANCH  22  23
ENDBRANCH  16  22
ENDBRANCH  15  19
ENDBRANCH   1  15
TORSDOF 6
ENDMDL
MODEL 4
REMARK VINA RESULT:    -6.523      4.584      7.765
REMARK INTER + INTRA:          -9.331
REMARK INTER:                  -8.950
REMARK INTRA:                  -0.381
REMARK UNBOUND:                -0.711
REMARK  Name = 
REMARK  6 active torsions:
REMARK  status: ('A' for Active; 'I' for Inactive)
REMARK    1  A    between atoms: N_1  and  C_2
REMARK    2  A    between atoms: C_2  and  C_3
REMARK    3  A    between atoms: C_3  and  C_4
REMARK    4  A    between atoms: C_7  and  C_8
REMARK    5  A    between atoms: C_8  and  N_9
REMARK    6  A    between atoms: C_14  and  C_15
REMARK                            x       y       z     vdW  Elec       q    Type
REMARK                         _______ _______ _______ _____ _____    ______ ____
ROOT
ATOM      1  N   UNL     1      47.456   4.907  14.830  0.00  0.00    +0.000 N 
ATOM      2  N   UNL     1      48.188   6.037  14.676  0.00  0.00    +0.000 NA
ATOM      3  C   UNL     1      47.731   6.538  13.525  0.00  0.00    +0.000 A 
ATOM      4  C   UNL     1      46.785   5.695  12.903  0.00  0.00    +0.000 A 
ATOM      5  C   UNL     1      45.937   5.772  11.786  0.00  0.00    +0.000 A 
ATOM      6  C   UNL     1      45.123   4.669  11.464  0.00  0.00    +0.000 A 
ATOM      7  C   UNL     1      45.249   3.474  12.186  0.00  0.00    +0.000 A 
ATOM      8  C   UNL     1      46.064   3.394  13.323  0.00  0.00    +0.000 A 
ATOM      9  C   UNL     1      46.767   4.548  13.689  0.00  0.00    +0.000 A 
ENDROOT
BRANCH   6  10
ATOM     10  C   UNL     1      44.099   4.869  10.396  0.00  0.00    +0.000 C 
ATOM     11  N   UNL     1      44.432   4.596   9.099  0.00  0.00    +0.000 N 
ATOM     12  O   UNL     1      42.960   5.233  10.665  0.00  0.00    +0.000 OA
ATOM     13  H   UNL     1      45.330   4.277   8.778  0.00  0.00    +0.000 HD
ATOM     14  H   UNL     1      43.687   4.675   8.419  0.00  0.00    +0.000 HD
ENDBRANCH   6  10
BRANCH   1  15
ATOM     15  C   UNL     1      47.253   4.358  16.167  0.00  0.00    +0.000 C 
BRANCH  15  19
ATOM     16  C   UNL     1      51.052   2.760  17.554  0.00  0.00    +0.000 A 
ATOM     17  C   UNL     1      50.722   4.103  17.776  0.00  0.00    +0.000 A 
ATOM     18  C   UNL     1      49.488   4.613  17.357  0.00  0.00    +0.000 A 
ATOM     19  C   UNL     1      48.550   3.791  16.718  0.00  0.00    +0.000 A 
ATOM     20  C   UNL     1      48.871   2.437  16.530  0.00  0.00    +0.000 A 
ATOM     21  C   UNL     1      50.106   1.927  16.950  0.00  0.00    +0.000 A 
BRANCH  16  22
ATOM     22  C   UNL     1      52.415   2.225  17.932  0.00  0.00    +0.000 C 
BRANCH  22  23
ATOM     23  C   UNL     1      52.699   0.835  17.353  0.00  0.00    +0.000 C 
BRANCH  23  24
ATOM     24  N   UNL     1      52.538  -0.199  18.376  0.00  0.00    +0.000 NA
ATOM     25  H   UNL     1      51.592  -0.159  18.760  0.00  0.00    +0.000 HD
ATOM     26  H   UNL     1      53.169  -0.020  19.155  0.00  0.00    +0.000 HD
ENDBRANCH  23  24
ENDBRANCH  22  23
ENDBRANCH  16  22
ENDBRANCH  15  19
ENDBRANCH   1  15
TORSDOF 6
ENDMDL
MODEL 5
REMARK VINA RESULT:    -5.835      2.910      6.331
REMARK INTER + INTRA:          -8.422
REMARK INTER:                  -8.250
REMARK INTRA:                  -0.172
REMARK UNBOUND:                -0.711
REMARK  Name = 
REMARK  6 active torsions:
REMARK  status: ('A' for Active; 'I' for Inactive)
REMARK    1  A    between atoms: N_1  and  C_2
REMARK    2  A    between atoms: C_2  and  C_3
REMARK    3  A    between atoms: C_3  and  C_4
REMARK    4  A    between atoms: C_7  and  C_8
REMARK    5  A    between atoms: C_8  and  N_9
REMARK    6  A    between atoms: C_14  and  C_15
REMARK                            x       y       z     vdW  Elec       q    Type
REMARK                         _______ _______ _______ _____ _____    ______ ____
ROOT
ATOM      1  N   UNL     1      44.549   4.561  12.109  0.00  0.00    +0.000 N 
ATOM      2  N   UNL     1      43.573   3.672  12.415  0.00  0.00    +0.000 NA
ATOM      3  C   UNL     1      43.536   2.883  11.337  0.00  0.00    +0.000 A 
ATOM      4  C   UNL     1      44.411   3.315  10.317  0.00  0.00    +0.000 A 
ATOM      5  C   UNL     1      44.841   2.823   9.073  0.00  0.00    +0.000 A 
ATOM      6  C   UNL     1      45.743   3.586   8.308  0.00  0.00    +0.000 A 
ATOM      7  C   UNL     1      46.111   4.869   8.736  0.00  0.00    +0.000 A 
ATOM      8  C   UNL     1      45.718   5.357   9.989  0.00  0.00    +0.000 A 
ATOM      9  C   UNL     1      44.921   4.522  10.781  0.00  0.00    +0.000 A 
ENDROOT
BRANCH   6  10
ATOM     10  C   UNL     1      46.324   2.936   7.095  0.00  0.00    +0.000 C 
ATOM     11  N   UNL     1      46.744   3.723   6.060  0.00  0.00    +0.000 N 
ATOM     12  O   UNL     1      46.467   1.721   7.030  0.00  0.00    +0.000 OA
ATOM     13  H   UNL     1      46.687   4.726   6.023  0.00  0.00    +0.000 HD
ATOM     14  H   UNL     1      47.197   3.247   5.291  0.00  0.00    +0.000 HD
ENDBRANCH   6  10
BRANCH   1  15
ATOM     15  C   UNL     1      45.265   5.241  13.185  0.00  0.00    +0.000 C 
BRANCH  15  19
ATOM     16  C   UNL     1      46.555   9.252  12.114  0.00  0.00    +0.000 A 
ATOM     17  C   UNL     1      47.494   8.231  12.304  0.00  0.00    +0.000 A 
ATOM     18  C   UNL     1      47.080   6.932  12.620  0.00  0.00    +0.000 A 
ATOM     19  C   UNL     1      45.719   6.620  12.741  0.00  0.00    +0.000 A 
ATOM     20  C   UNL     1      44.781   7.639  12.515  0.00  0.00    +0.000 A 
ATOM     21  C   UNL     1      45.194   8.940  12.198  0.00  0.00    +0.000 A 
BRANCH  16  22
ATOM     22  C   UNL     1      46.999  10.675  11.853  0.00  0.00    +0.000 C 
BRANCH  22  23
ATOM     23  C   UNL     1      48.501  10.886  12.068  0.00  0.00    +0.000 C 
BRANCH  23  24
ATOM     24  N   UNL     1      49.189  11.082  10.791  0.00  0.00    +0.000 NA
ATOM     25  H   UNL     1      48.850  11.937  10.346  0.00  0.00    +0.000 HD
ATOM     26  H   UNL     1      48.964  10.321  10.153  0.00  0.00    +0.000 HD
ENDBRANCH  23  24
ENDBRANCH  22  23
ENDBRANCH  16  22
ENDBRANCH  15  19
ENDBRANCH   1  15
TORSDOF 6
ENDMDL
MODEL 6
REMARK VINA RESULT:    -5.609      3.392      6.510
REMARK INTER + INTRA:          -8.123
REMARK INTER:                  -7.383
REMARK INTRA:                  -0.740
REMARK UNBOUND:                -0.711
REMARK  Name = 
REMARK  6 active torsions:
REMARK  status: ('A' for Active; 'I' for Inactive)
REMARK    1  A    between atoms: N_1  and  C_2
REMARK    2  A    between atoms: C_2  and  C_3
REMARK    3  A    between atoms: C_3  and  C_4
REMARK    4  A    between atoms: C_7  and  C_8
REMARK    5  A    between atoms: C_8  and  N_9
REMARK    6  A    between atoms: C_14  and  C_15
REMARK                            x       y       z     vdW  Elec       q    Type
REMARK                         _______ _______ _______ _____ _____    ______ ____
ROOT
ATOM      1  N   UNL     1      47.207   7.387  13.547  0.00  0.00    +0.000 N 
ATOM      2  N   UNL     1      47.876   6.500  14.323  0.00  0.00    +0.000 NA
ATOM      3  C   UNL     1      47.377   5.323  13.934  0.00  0.00    +0.000 A 
ATOM      4  C   UNL     1      46.339   5.459  12.987  0.00  0.00    +0.000 A 
ATOM      5  C   UNL     1      45.572   4.593  12.191  0.00  0.00    +0.000 A 
ATOM      6  C   UNL     1      44.576   5.130  11.354  0.00  0.00    +0.000 A 
ATOM      7  C   UNL     1      44.284   6.501  11.407  0.00  0.00    +0.000 A 
ATOM      8  C   UNL     1      45.063   7.381  12.170  0.00  0.00    +0.000 A 
ATOM      9  C   UNL     1      46.126   6.830  12.896  0.00  0.00    +0.000 A 
ENDROOT
BRANCH   6  10
ATOM     10  C   UNL     1      43.927   4.199  10.384  0.00  0.00    +0.000 C 
ATOM     11  N   UNL     1      44.007   4.473   9.048  0.00  0.00    +0.000 N 
ATOM     12  O   UNL     1      43.363   3.178  10.760  0.00  0.00    +0.000 OA
ATOM     13  H   UNL     1      44.461   5.272   8.638  0.00  0.00    +0.000 HD
ATOM     14  H   UNL     1      43.618   3.779   8.424  0.00  0.00    +0.000 HD
ENDBRANCH   6  10
BRANCH   1  15
ATOM     15  C   UNL     1      47.804   8.691  13.268  0.00  0.00    +0.000 C 
BRANCH  15  19
ATOM     16  C   UNL     1      51.727   8.062  11.502  0.00  0.00    +0.000 A 
ATOM     17  C   UNL     1      50.575   7.588  10.862  0.00  0.00    +0.000 A 
ATOM     18  C   UNL     1      49.309   7.815  11.413  0.00  0.00    +0.000 A 
ATOM     19  C   UNL     1      49.163   8.530  12.609  0.00  0.00    +0.000 A 
ATOM     20  C   UNL     1      50.317   9.032  13.229  0.00  0.00    +0.000 A 
ATOM     21  C   UNL     1      51.585   8.807  12.677  0.00  0.00    +0.000 A 
BRANCH  16  22
ATOM     22  C   UNL     1      53.102   7.750  10.955  0.00  0.00    +0.000 C 
BRANCH  22  23
ATOM     23  C   UNL     1      53.087   6.671   9.867  0.00  0.00    +0.000 C 
BRANCH  23  24
ATOM     24  N   UNL     1      53.498   5.376  10.410  0.00  0.00    +0.000 NA
ATOM     25  H   UNL     1      53.789   5.488  11.383  0.00  0.00    +0.000 HD
ATOM     26  H   UNL     1      54.313   5.029   9.908  0.00  0.00    +0.000 HD
ENDBRANCH  23  24
ENDBRANCH  22  23
ENDBRANCH  16  22
ENDBRANCH  15  19
ENDBRANCH   1  15
TORSDOF 6
ENDMDL
MODEL 7
REMARK VINA RESULT:    -5.427      3.129      6.652
REMARK INTER + INTRA:          -7.882
REMARK INTER:                  -7.170
REMARK INTRA:                  -0.713
REMARK UNBOUND:                -0.711
REMARK  Name = 
REMARK  6 active torsions:
REMARK  status: ('A' for Active; 'I' for Inactive)
REMARK    1  A    between atoms: N_1  and  C_2
REMARK    2  A    between atoms: C_2  and  C_3
REMARK    3  A    between atoms: C_3  and  C_4
REMARK    4  A    between atoms: C_7  and  C_8
REMARK    5  A    between atoms: C_8  and  N_9
REMARK    6  A    between atoms: C_14  and  C_15
REMARK                            x       y       z     vdW  Elec       q    Type
REMARK                         _______ _______ _______ _____ _____    ______ ____
ROOT
ATOM      1  N   UNL     1      45.560   6.130  13.122  0.00  0.00    +0.000 N 
ATOM      2  N   UNL     1      46.237   5.365  14.012  0.00  0.00    +0.000 NA
ATOM      3  C   UNL     1      46.267   4.168  13.419  0.00  0.00    +0.000 A 
ATOM      4  C   UNL     1      45.542   4.142  12.209  0.00  0.00    +0.000 A 
ATOM      5  C   UNL     1      45.341   3.223  11.165  0.00  0.00    +0.000 A 
ATOM      6  C   UNL     1      44.495   3.573  10.096  0.00  0.00    +0.000 A 
ATOM      7  C   UNL     1      43.778   4.777  10.137  0.00  0.00    +0.000 A 
ATOM      8  C   UNL     1      43.995   5.717  11.153  0.00  0.00    +0.000 A 
ATOM      9  C   UNL     1      44.936   5.392  12.138  0.00  0.00    +0.000 A 
ENDROOT
BRANCH   6  10
ATOM     10  C   UNL     1      44.470   2.653   8.920  0.00  0.00    +0.000 C 
ATOM     11  N   UNL     1      44.406   3.186   7.663  0.00  0.00    +0.000 N 
ATOM     12  O   UNL     1      44.547   1.438   9.059  0.00  0.00    +0.000 OA
ATOM     13  H   UNL     1      44.357   4.166   7.442  0.00  0.00    +0.000 HD
ATOM     14  H   UNL     1      44.465   2.531   6.895  0.00  0.00    +0.000 HD
ENDBRANCH   6  10
BRANCH   1  15
ATOM     15  C   UNL     1      45.762   7.576  13.117  0.00  0.00    +0.000 C 
BRANCH  15  19
ATOM     16  C   UNL     1      49.989   8.380  12.495  0.00  0.00    +0.000 A 
ATOM     17  C   UNL     1      49.248   7.687  11.530  0.00  0.00    +0.000 A 
ATOM     18  C   UNL     1      47.881   7.453  11.714  0.00  0.00    +0.000 A 
ATOM     19  C   UNL     1      47.219   7.915  12.860  0.00  0.00    +0.000 A 
ATOM     20  C   UNL     1      47.959   8.639  13.808  0.00  0.00    +0.000 A 
ATOM     21  C   UNL     1      49.328   8.875  13.624  0.00  0.00    +0.000 A 
BRANCH  16  22
ATOM     22  C   UNL     1      51.483   8.565  12.340  0.00  0.00    +0.000 C 
BRANCH  22  23
ATOM     23  C   UNL     1      52.225   8.623  13.679  0.00  0.00    +0.000 C 
BRANCH  23  24
ATOM     24  N   UNL     1      53.344   7.680  13.696  0.00  0.00    +0.000 NA
ATOM     25  H   UNL     1      53.843   7.721  12.805  0.00  0.00    +0.000 HD
ATOM     26  H   UNL     1      52.997   6.726  13.783  0.00  0.00    +0.000 HD
ENDBRANCH  23  24
ENDBRANCH  22  23
ENDBRANCH  16  22
ENDBRANCH  15  19
ENDBRANCH   1  15
TORSDOF 6
ENDMDL
MODEL 8
REMARK VINA RESULT:    -5.372      4.067      8.253
REMARK INTER + INTRA:          -7.810
REMARK INTER:                  -7.175
REMARK INTRA:                  -0.635
REMARK UNBOUND:                -0.711
REMARK  Name = 
REMARK  6 active torsions:
REMARK  status: ('A' for Active; 'I' for Inactive)
REMARK    1  A    between atoms: N_1  and  C_2
REMARK    2  A    between atoms: C_2  and  C_3
REMARK    3  A    between atoms: C_3  and  C_4
REMARK    4  A    between atoms: C_7  and  C_8
REMARK    5  A    between atoms: C_8  and  N_9
REMARK    6  A    between atoms: C_14  and  C_15
REMARK                            x       y       z     vdW  Elec       q    Type
REMARK                         _______ _______ _______ _____ _____    ______ ____
ROOT
ATOM      1  N   UNL     1      48.197   6.977  13.798  0.00  0.00    +0.000 N 
ATOM      2  N   UNL     1      48.962   7.614  12.879  0.00  0.00    +0.000 NA
ATOM      3  C   UNL     1      48.279   7.437  11.744  0.00  0.00    +0.000 A 
ATOM      4  C   UNL     1      47.140   6.621  11.917  0.00  0.00    +0.000 A 
ATOM      5  C   UNL     1      46.051   6.218  11.126  0.00  0.00    +0.000 A 
ATOM      6  C   UNL     1      45.092   5.345  11.672  0.00  0.00    +0.000 A 
ATOM      7  C   UNL     1      45.290   4.800  12.949  0.00  0.00    +0.000 A 
ATOM      8  C   UNL     1      46.351   5.220  13.762  0.00  0.00    +0.000 A 
ATOM      9  C   UNL     1      47.219   6.184  13.234  0.00  0.00    +0.000 A 
ENDROOT
BRANCH   6  10
ATOM     10  C   UNL     1      43.856   5.105  10.870  0.00  0.00    +0.000 C 
ATOM     11  N   UNL     1      43.978   4.694   9.572  0.00  0.00    +0.000 N 
ATOM     12  O   UNL     1      42.741   5.230  11.363  0.00  0.00    +0.000 OA
ATOM     13  H   UNL     1      44.844   4.545   9.082  0.00  0.00    +0.000 HD
ATOM     14  H   UNL     1      43.117   4.473   9.089  0.00  0.00    +0.000 HD
ENDBRANCH   6  10
BRANCH   1  15
ATOM     15  C   UNL     1      48.286   7.369  15.202  0.00  0.00    +0.000 C 
BRANCH  15  19
ATOM     16  C   UNL     1      50.844   4.767  17.568  0.00  0.00    +0.000 A 
ATOM     17  C   UNL     1      49.484   4.471  17.405  0.00  0.00    +0.000 A 
ATOM     18  C   UNL     1      48.665   5.290  16.620  0.00  0.00    +0.000 A 
ATOM     19  C   UNL     1      49.187   6.417  15.970  0.00  0.00    +0.000 A 
ATOM     20  C   UNL     1      50.556   6.690  16.108  0.00  0.00    +0.000 A 
ATOM     21  C   UNL     1      51.377   5.870  16.893  0.00  0.00    +0.000 A 
BRANCH  16  22
ATOM     22  C   UNL     1      51.715   3.932  18.480  0.00  0.00    +0.000 C 
BRANCH  22  23
ATOM     23  C   UNL     1      52.081   4.647  19.785  0.00  0.00    +0.000 C 
BRANCH  23  24
ATOM     24  N   UNL     1      51.002   4.527  20.767  0.00  0.00    +0.000 NA
ATOM     25  H   UNL     1      50.165   4.156  20.314  0.00  0.00    +0.000 HD
ATOM     26  H   UNL     1      50.749   5.447  21.122  0.00  0.00    +0.000 HD
ENDBRANCH  23  24
ENDBRANCH  22  23
ENDBRANCH  16  22
ENDBRANCH  15  19
ENDBRANCH   1  15
TORSDOF 6
ENDMDL
MODEL 9
REMARK VINA RESULT:    -5.238      3.627      5.888
REMARK INTER + INTRA:          -7.632
REMARK INTER:                  -7.127
REMARK INTRA:                  -0.505
REMARK UNBOUND:                -0.711
REMARK  Name = 
REMARK  6 active torsions:
REMARK  status: ('A' for Active; 'I' for Inactive)
REMARK    1  A    between atoms: N_1  and  C_2
REMARK    2  A    between atoms: C_2  and  C_3
REMARK    3  A    between atoms: C_3  and  C_4
REMARK    4  A    between atoms: C_7  and  C_8
REMARK    5  A    between atoms: C_8  and  N_9
REMARK    6  A    between atoms: C_14  and  C_15
REMARK                            x       y       z     vdW  Elec       q    Type
REMARK                         _______ _______ _______ _____ _____    ______ ____
ROOT
ATOM      1  N   UNL     1      48.433   7.244  14.677  0.00  0.00    +0.000 N 
ATOM      2  N   UNL     1      48.300   8.588  14.787  0.00  0.00    +0.000 NA
ATOM      3  C   UNL     1      48.681   8.826  16.045  0.00  0.00    +0.000 A 
ATOM      4  C   UNL     1      48.967   7.643  16.760  0.00  0.00    +0.000 A 
ATOM      5  C   UNL     1      49.493   7.321  18.022  0.00  0.00    +0.000 A 
ATOM      6  C   UNL     1      49.609   5.969  18.394  0.00  0.00    +0.000 A 
ATOM      7  C   UNL     1      49.096   4.968  17.557  0.00  0.00    +0.000 A 
ATOM      8  C   UNL     1      48.600   5.271  16.281  0.00  0.00    +0.000 A 
ATOM      9  C   UNL     1      48.614   6.615  15.892  0.00  0.00    +0.000 A 
ENDROOT
BRANCH   6  10
ATOM     10  C   UNL     1      50.354   5.671  19.653  0.00  0.00    +0.000 C 
ATOM     11  N   UNL     1      50.140   4.478  20.283  0.00  0.00    +0.000 N 
ATOM     12  O   UNL     1      51.178   6.457  20.107  0.00  0.00    +0.000 OA
ATOM     13  H   UNL     1      49.501   3.761  19.984  0.00  0.00    +0.000 HD
ATOM     14  H   UNL     1      50.719   4.287  21.090  0.00  0.00    +0.000 HD
ENDBRANCH   6  10
BRANCH   1  15
ATOM     15  C   UNL     1      48.635   6.647  13.359  0.00  0.00    +0.000 C 
BRANCH  15  19
ATOM     16  C   UNL     1      44.981   5.076  11.603  0.00  0.00    +0.000 A 
ATOM     17  C   UNL     1      45.478   4.548  12.801  0.00  0.00    +0.000 A 
ATOM     18  C   UNL     1      46.637   5.071  13.384  0.00  0.00    +0.000 A 
ATOM     19  C   UNL     1      47.321   6.141  12.791  0.00  0.00    +0.000 A 
ATOM     20  C   UNL     1      46.799   6.690  11.609  0.00  0.00    +0.000 A 
ATOM     21  C   UNL     1      45.638   6.167  11.025  0.00  0.00    +0.000 A 
BRANCH  16  22
ATOM     22  C   UNL     1      43.775   4.462  10.926  0.00  0.00    +0.000 C 
BRANCH  22  23
ATOM     23  C   UNL     1      43.906   2.950  10.718  0.00  0.00    +0.000 C 
BRANCH  23  24
ATOM     24  N   UNL     1      43.032   2.219  11.636  0.00  0.00    +0.000 NA
ATOM     25  H   UNL     1      42.733   2.837  12.392  0.00  0.00    +0.000 HD
ATOM     26  H   UNL     1      43.547   1.459  12.077  0.00  0.00    +0.000 HD
ENDBRANCH  23  24
ENDBRANCH  22  23
ENDBRANCH  16  22
ENDBRANCH  15  19
ENDBRANCH   1  15
TORSDOF 6
ENDMDL
