MODEL 1
REMARK VINA RESULT:    -8.946      0.000      0.000
REMARK INTER + INTRA:         -11.904
REMARK INTER:                 -11.560
REMARK INTRA:                  -0.344
REMARK UNBOUND:                -0.344
REMARK  Name = 
REMARK  5 active torsions:
REMARK  status: ('A' for Active; 'I' for Inactive)
REMARK    1  A    between atoms: C_2  and  C_18
REMARK    2  A    between atoms: N_3  and  C_4
REMARK    3  A    between atoms: C_4  and  C_5
REMARK    4  A    between atoms: C_8  and  O_9
REMARK    5  A    between atoms: O_9  and  C_10
REMARK                            x       y       z     vdW  Elec       q    Type
REMARK                         _______ _______ _______ _____ _____    ______ ____
ROOT
ATOM      1  O   UNL     1      46.444   3.408  13.809  0.00  0.00    +0.000 OA
ATOM      2  C   UNL     1      46.370   4.615  14.026  0.00  0.00    +0.000 C 
ATOM      3  N   UNL     1      45.276   5.363  13.681  0.00  0.00    +0.000 N 
ATOM      4  H   UNL     1      45.322   6.374  13.738  0.00  0.00    +0.000 HD
ENDROOT
BRANCH   2   5
ATOM      5  C   UNL     1      47.449   5.332  14.715  0.00  0.00    +0.000 A 
ATOM      6  C   UNL     1      48.167   6.316  14.047  0.00  0.00    +0.000 A 
ATOM      7  S   UNL     1      49.358   7.064  15.013  0.00  0.00    +0.000 S 
ATOM      8  C   UNL     1      48.932   6.123  16.366  0.00  0.00    +0.000 A 
ATOM      9  N   UNL     1      49.545   6.302  17.566  0.00  0.00    +0.000 NA
ATOM     10  C   UNL     1      49.091   5.551  18.511  0.00  0.00    +0.000 A 
ATOM     11  N   UNL     1      48.096   4.618  18.364  0.00  0.00    +0.000 N 
ATOM     12  C   UNL     1      47.517   4.337  17.150  0.00  0.00    +0.000 A 
ATOM     13  O   UNL     1      46.761   3.383  17.014  0.00  0.00    +0.000 OA
ATOM     14  C   UNL     1      47.932   5.214  16.069  0.00  0.00    +0.000 A 
ATOM     15  H   UNL     1      47.822   4.027  19.133  0.00  0.00    +0.000 HD
ENDBRANCH   2   5
BRANCH   3  16
ATOM     16  C   UNL     1      44.154   4.818  12.963  0.00  0.00    +0.000 C 
BRANCH  16  17
ATOM     17  C   UNL     1      44.481   4.549  11.518  0.00  0.00    +0.000 A 
ATOM     18  C   UNL     1      43.890   3.463  10.859  0.00  0.00    +0.000 A 
ATOM     19  C   UNL     1      44.135   3.235   9.504  0.00  0.00    +0.000 A 
ATOM     20  C   UNL     1      44.950   4.108   8.780  0.00  0.00    +0.000 A 
ATOM     21  C   UNL     1      45.596   5.153   9.445  0.00  0.00    +0.000 A 
ATOM     22  C   UNL     1      45.368   5.370  10.808  0.00  0.00    +0.000 A 
BRANCH  20  23
ATOM     23  O   UNL     1      45.234   3.970   7.440  0.00  0.00    +0.000 OA
BRANCH  23  24
ATOM     24  C   UNL     1      46.204   3.052   7.052  0.00  0.00    +0.000 A 
ATOM     25  N   UNL     1      46.426   1.967   7.800  0.00  0.00    +0.000 NA
ATOM     26  C   UNL     1      47.404   1.187   7.354  0.00  0.00    +0.000 A 
ATOM     27  N   UNL     1      48.114   1.381   6.247  0.00  0.00    +0.000 NA
ATOM     28  C   UNL     1      47.762   2.468   5.564  0.00  0.00    +0.000 A 
ATOM     29  N   UNL     1      46.822   3.342   5.908  0.00  0.00    +0.000 NA
ENDBRANCH  23  24
ENDBRANCH  20  23
ENDBRANCH  16  17
ENDBRANCH   3  16
TORSDOF 5
ENDMDL
MODEL 2
REMARK VINA RESULT:    -8.608      1.487      2.032
REMARK INTER + INTRA:         -11.468
REMARK INTER:                 -11.004
REMARK INTRA:                  -0.463
REMARK UNBOUND:                -0.344
REMARK  Name = 
REMARK  5 active torsions:
REMARK  status: ('A' for Active; 'I' for Inactive)
REMARK    1  A    between atoms: C_2  and  C_18
REMARK    2  A    between atoms: N_3  and  C_4
REMARK    3  A    between atoms: C_4  and  C_5
REMARK    4  A    between atoms: C_8  and  O_9
REMARK    5  A    between atoms: O_9  and  C_10
REMARK                            x       y       z     vdW  Elec       q    Type
REMARK                         _______ _______ _______ _____ _____    ______ ____
ROOT
ATOM      1  O   UNL     1      48.380   7.088  12.688  0.00  0.00    +0.000 OA
ATOM      2  C   UNL     1      47.705   6.754  13.660  0.00  0.00    +0.000 C 
ATOM      3  N   UNL     1      46.338   6.698  13.626  0.00  0.00    +0.000 N 
ATOM      4  H   UNL     1      45.820   6.569  14.488  0.00  0.00    +0.000 HD
ENDROOT
BRANCH   2   5
ATOM      5  C   UNL     1      48.336   6.350  14.922  0.00  0.00    +0.000 A 
ATOM      6  C   UNL     1      49.331   7.139  15.485  0.00  0.00    +0.000 A 
ATOM      7  S   UNL     1      49.924   6.533  16.965  0.00  0.00    +0.000 S 
ATOM      8  C   UNL     1      48.849   5.213  16.920  0.00  0.00    +0.000 A 
ATOM      9  N   UNL     1      48.801   4.312  17.936  0.00  0.00    +0.000 NA
ATOM     10  C   UNL     1      47.910   3.392  17.789  0.00  0.00    +0.000 A 
ATOM     11  N   UNL     1      47.077   3.272  16.706  0.00  0.00    +0.000 N 
ATOM     12  C   UNL     1      47.157   4.101  15.614  0.00  0.00    +0.000 A 
ATOM     13  O   UNL     1      46.526   3.865  14.590  0.00  0.00    +0.000 OA
ATOM     14  C   UNL     1      48.086   5.207  15.766  0.00  0.00    +0.000 A 
ATOM     15  H   UNL     1      46.436   2.498  16.628  0.00  0.00    +0.000 HD
ENDBRANCH   2   5
BRANCH   3  16
ATOM     16  C   UNL     1      45.569   7.102  12.479  0.00  0.00    +0.000 C 
BRANCH  16  17
ATOM     17  C   UNL     1      45.392   5.980  11.490  0.00  0.00    +0.000 A 
ATOM     18  C   UNL     1      44.697   4.823  11.865  0.00  0.00    +0.000 A 
ATOM     19  C   UNL     1      44.473   3.799  10.943  0.00  0.00    +0.000 A 
ATOM     20  C   UNL     1      44.912   3.931   9.624  0.00  0.00    +0.000 A 
ATOM     21  C   UNL     1      45.664   5.051   9.261  0.00  0.00    +0.000 A 
ATOM     22  C   UNL     1      45.908   6.068  10.190  0.00  0.00    +0.000 A 
BRANCH  20  23
ATOM     23  O   UNL     1      44.722   2.981   8.646  0.00  0.00    +0.000 OA
BRANCH  23  24
ATOM     24  C   UNL     1      45.836   2.432   8.019  0.00  0.00    +0.000 A 
ATOM     25  N   UNL     1      46.607   3.201   7.246  0.00  0.00    +0.000 NA
ATOM     26  C   UNL     1      47.615   2.560   6.668  0.00  0.00    +0.000 A 
ATOM     27  N   UNL     1      47.918   1.275   6.830  0.00  0.00    +0.000 NA
ATOM     28  C   UNL     1      47.105   0.631   7.664  0.00  0.00    +0.000 A 
ATOM     29  N   UNL     1      46.051   1.145   8.289  0.00  0.00    +0.000 NA
ENDBRANCH  23  24
ENDBRANCH  20  23
ENDBRANCH  16  17
ENDBRANCH   3  16
TORSDOF 5
ENDMDL
MODEL 3
REMARK VINA RESULT:    -8.467      1.674      2.611
REMARK INTER + INTRA:         -11.286
REMARK INTER:                 -10.702
REMARK INTRA:                  -0.585
REMARK UNBOUND:                -0.344
REMARK  Name = 
REMARK  5 active torsions:
REMARK  status: ('A' for Active; 'I' for Inactive)
REMARK    1  A    between atoms: C_2  and  C_18
REMARK    2  A    between atoms: N_3  and  C_4
REMARK    3  A    between atoms: C_4  and  C_5
REMARK    4  A    between atoms: C_8  and  O_9
REMARK    5  A    between atoms: O_9  and  C_10
REMARK                            x       y       z     vdW  Elec       q    Type
REMARK                         _______ _______ _______ _____ _____    ______ ____
ROOT
ATOM      1  O   UNL     1      46.464   3.622  13.977  0.00  0.00    +0.000 OA
ATOM      2  C   UNL     1      46.466   4.850  14.020  0.00  0.00    +0.000 C 
ATOM      3  N   UNL     1      45.413   5.606  13.578  0.00  0.00    +0.000 N 
ATOM      4  H   UNL     1      45.520   6.611  13.491  0.00  0.00    +0.000 HD
ENDROOT
BRANCH   2   5
ATOM      5  C   UNL     1      47.595   5.590  14.595  0.00  0.00    +0.000 A 
ATOM      6  C   UNL     1      47.993   5.344  15.903  0.00  0.00    +0.000 A 
ATOM      7  S   UNL     1      49.341   6.269  16.389  0.00  0.00    +0.000 S 
ATOM      8  C   UNL     1      49.460   7.005  14.858  0.00  0.00    +0.000 A 
ATOM      9  N   UNL     1      50.456   7.886  14.578  0.00  0.00    +0.000 NA
ATOM     10  C   UNL     1      50.449   8.329  13.368  0.00  0.00    +0.000 A 
ATOM     11  N   UNL     1      49.522   7.994  12.414  0.00  0.00    +0.000 N 
ATOM     12  C   UNL     1      48.444   7.184  12.681  0.00  0.00    +0.000 A 
ATOM     13  O   UNL     1      47.540   7.043  11.866  0.00  0.00    +0.000 OA
ATOM     14  C   UNL     1      48.453   6.589  14.006  0.00  0.00    +0.000 A 
ATOM     15  H   UNL     1      49.542   8.416  11.499  0.00  0.00    +0.000 HD
ENDBRANCH   2   5
BRANCH   3  16
ATOM     16  C   UNL     1      44.251   5.035  12.951  0.00  0.00    +0.000 C 
BRANCH  16  17
ATOM     17  C   UNL     1      44.507   4.658  11.516  0.00  0.00    +0.000 A 
ATOM     18  C   UNL     1      43.986   3.463  11.005  0.00  0.00    +0.000 A 
ATOM     19  C   UNL     1      44.163   3.128   9.661  0.00  0.00    +0.000 A 
ATOM     20  C   UNL     1      44.837   3.999   8.802  0.00  0.00    +0.000 A 
ATOM     21  C   UNL     1      45.417   5.159   9.319  0.00  0.00    +0.000 A 
ATOM     22  C   UNL     1      45.259   5.485  10.670  0.00  0.00    +0.000 A 
BRANCH  20  23
ATOM     23  O   UNL     1      45.044   3.757   7.462  0.00  0.00    +0.000 OA
BRANCH  23  24
ATOM     24  C   UNL     1      46.099   2.933   7.086  0.00  0.00    +0.000 A 
ATOM     25  N   UNL     1      46.366   1.833   7.795  0.00  0.00    +0.000 NA
ATOM     26  C   UNL     1      47.420   1.149   7.368  0.00  0.00    +0.000 A 
ATOM     27  N   UNL     1      48.167   1.447   6.308  0.00  0.00    +0.000 NA
ATOM     28  C   UNL     1      47.768   2.537   5.657  0.00  0.00    +0.000 A 
ATOM     29  N   UNL     1      46.748   3.322   5.989  0.00  0.00    +0.000 NA
ENDBRANCH  23  24
ENDBRANCH  20  23
ENDBRANCH  16  17
ENDBRANCH   3  16
TORSDOF 5
ENDMDL
MODEL 4
REMARK VINA RESULT:    -8.253      1.871      2.416
REMARK INTER + INTRA:         -11.010
REMARK INTER:                 -10.395
REMARK INTRA:                  -0.615
REMARK UNBOUND:                -0.344
REMARK  Name = 
REMARK  5 active torsions:
REMARK  status: ('A' for Active; 'I' for Inactive)
REMARK    1  A    between atoms: C_2  and  C_18
REMARK    2  A    between atoms: N_3  and  C_4
REMARK    3  A    between atoms: C_4  and  C_5
REMARK    4  A    between atoms: C_8  and  O_9
REMARK    5  A    between atoms: O_9  and  C_10
REMARK                            x       y       z     vdW  Elec       q    Type
REMARK                         _______ _______ _______ _____ _____    ______ ____
ROOT
ATOM      1  O   UNL     1      48.610   6.216  14.168  0.00  0.00    +0.000 OA
ATOM      2  C   UNL     1      47.661   5.679  14.736  0.00  0.00    +0.000 C 
ATOM      3  N   UNL     1      46.390   5.694  14.226  0.00  0.00    +0.000 N 
ATOM      4  H   UNL     1      45.617   5.376  14.799  0.00  0.00    +0.000 HD
ENDROOT
BRANCH   2   5
ATOM      5  C   UNL     1      47.843   4.943  15.992  0.00  0.00    +0.000 A 
ATOM      6  C   UNL     1      47.538   3.589  16.055  0.00  0.00    +0.000 A 
ATOM      7  S   UNL     1      47.843   2.893  17.582  0.00  0.00    +0.000 S 
ATOM      8  C   UNL     1      48.424   4.369  18.202  0.00  0.00    +0.000 A 
ATOM      9  N   UNL     1      48.903   4.457  19.470  0.00  0.00    +0.000 NA
ATOM     10  C   UNL     1      49.350   5.624  19.789  0.00  0.00    +0.000 A 
ATOM     11  N   UNL     1      49.339   6.721  18.966  0.00  0.00    +0.000 N 
ATOM     12  C   UNL     1      48.776   6.702  17.713  0.00  0.00    +0.000 A 
ATOM     13  O   UNL     1      48.621   7.734  17.072  0.00  0.00    +0.000 OA
ATOM     14  C   UNL     1      48.336   5.390  17.272  0.00  0.00    +0.000 A 
ATOM     15  H   UNL     1      49.657   7.619  19.295  0.00  0.00    +0.000 HD
ENDBRANCH   2   5
BRANCH   3  16
ATOM     16  C   UNL     1      46.040   6.407  13.025  0.00  0.00    +0.000 C 
BRANCH  16  17
ATOM     17  C   UNL     1      45.742   5.477  11.880  0.00  0.00    +0.000 A 
ATOM     18  C   UNL     1      45.340   4.159  12.136  0.00  0.00    +0.000 A 
ATOM     19  C   UNL     1      45.003   3.302  11.087  0.00  0.00    +0.000 A 
ATOM     20  C   UNL     1      45.032   3.759   9.768  0.00  0.00    +0.000 A 
ATOM     21  C   UNL     1      45.496   5.049   9.500  0.00  0.00    +0.000 A 
ATOM     22  C   UNL     1      45.856   5.902  10.549  0.00  0.00    +0.000 A 
BRANCH  20  23
ATOM     23  O   UNL     1      44.702   2.990   8.675  0.00  0.00    +0.000 OA
BRANCH  23  24
ATOM     24  C   UNL     1      45.724   2.415   7.928  0.00  0.00    +0.000 A 
ATOM     25  N   UNL     1      46.269   3.097   6.917  0.00  0.00    +0.000 NA
ATOM     26  C   UNL     1      47.205   2.432   6.250  0.00  0.00    +0.000 A 
ATOM     27  N   UNL     1      47.642   1.207   6.531  0.00  0.00    +0.000 NA
ATOM     28  C   UNL     1      47.055   0.656   7.591  0.00  0.00    +0.000 A 
ATOM     29  N   UNL     1      46.095   1.200   8.330  0.00  0.00    +0.000 NA
ENDBRANCH  23  24
ENDBRANCH  20  23
ENDBRANCH  16  17
ENDBRANCH   3  16
TORSDOF 5
ENDMDL
MODEL 5
REMARK VINA RESULT:    -7.940      1.811      2.412
REMARK INTER + INTRA:         -10.605
REMARK INTER:                  -9.946
REMARK INTRA:                  -0.659
REMARK UNBOUND:                -0.344
REMARK  Name = 
REMARK  5 active torsions:
REMARK  status: ('A' for Active; 'I' for Inactive)
REMARK    1  A    between atoms: C_2  and  C_18
REMARK    2  A    between atoms: N_3  and  C_4
REMARK    3  A    between atoms: C_4  and  C_5
REMARK    4  A    between atoms: C_8  and  O_9
REMARK    5  A    between atoms: O_9  and  C_10
REMARK                            x       y       z     vdW  Elec       q    Type
REMARK                         _______ _______ _______ _____ _____    ______ ____
ROOT
ATOM      1  O   UNL     1      47.647   4.855  13.708  0.00  0.00    +0.000 OA
ATOM      2  C   UNL     1      47.604   6.062  13.481  0.00  0.00    +0.000 C 
ATOM      3  N   UNL     1      46.435   6.721  13.208  0.00  0.00    +0.000 N 
ATOM      4  H   UNL     1      46.466   7.679  12.877  0.00  0.00    +0.000 HD
ENDROOT
BRANCH   2   5
ATOM      5  C   UNL     1      48.814   6.890  13.532  0.00  0.00    +0.000 A 
ATOM      6  C   UNL     1      49.302   7.479  12.372  0.00  0.00    +0.000 A 
ATOM      7  S   UNL     1      50.694   8.431  12.625  0.00  0.00    +0.000 S 
ATOM      8  C   UNL     1      50.674   8.116  14.298  0.00  0.00    +0.000 A 
ATOM      9  N   UNL     1      51.587   8.683  15.130  0.00  0.00    +0.000 NA
ATOM     10  C   UNL     1      51.425   8.391  16.375  0.00  0.00    +0.000 A 
ATOM     11  N   UNL     1      50.448   7.563  16.867  0.00  0.00    +0.000 N 
ATOM     12  C   UNL     1      49.565   6.893  16.053  0.00  0.00    +0.000 A 
ATOM     13  O   UNL     1      48.822   6.028  16.501  0.00  0.00    +0.000 OA
ATOM     14  C   UNL     1      49.651   7.254  14.649  0.00  0.00    +0.000 A 
ATOM     15  H   UNL     1      50.407   7.334  17.847  0.00  0.00    +0.000 HD
ENDBRANCH   2   5
BRANCH   3  16
ATOM     16  C   UNL     1      45.170   6.046  13.082  0.00  0.00    +0.000 C 
BRANCH  16  17
ATOM     17  C   UNL     1      45.022   5.362  11.749  0.00  0.00    +0.000 A 
ATOM     18  C   UNL     1      45.651   5.896  10.616  0.00  0.00    +0.000 A 
ATOM     19  C   UNL     1      45.573   5.242   9.386  0.00  0.00    +0.000 A 
ATOM     20  C   UNL     1      44.892   4.028   9.276  0.00  0.00    +0.000 A 
ATOM     21  C   UNL     1      44.207   3.524  10.384  0.00  0.00    +0.000 A 
ATOM     22  C   UNL     1      44.265   4.190  11.612  0.00  0.00    +0.000 A 
BRANCH  20  23
ATOM     23  O   UNL     1      44.778   3.308   8.108  0.00  0.00    +0.000 OA
BRANCH  23  24
ATOM     24  C   UNL     1      45.894   2.629   7.628  0.00  0.00    +0.000 A 
ATOM     25  N   UNL     1      46.137   1.382   8.037  0.00  0.00    +0.000 NA
ATOM     26  C   UNL     1      47.251   0.852   7.546  0.00  0.00    +0.000 A 
ATOM     27  N   UNL     1      48.079   1.437   6.684  0.00  0.00    +0.000 NA
ATOM     28  C   UNL     1      47.698   2.658   6.315  0.00  0.00    +0.000 A 
ATOM     29  N   UNL     1      46.624   3.310   6.745  0.00  0.00    +0.000 NA
ENDBRANCH  23  24
ENDBRANCH  20  23
ENDBRANCH  16  17
ENDBRANCH   3  16
TORSDOF 5
ENDMDL
MODEL 6
REMARK VINA RESULT:    -7.687      2.134      3.199
REMARK INTER + INTRA:         -10.277
REMARK INTER:                  -9.514
REMARK INTRA:                  -0.764
REMARK UNBOUND:                -0.344
REMARK  Name = 
REMARK  5 active torsions:
REMARK  status: ('A' for Active; 'I' for Inactive)
REMARK    1  A    between atoms: C_2  and  C_18
REMARK    2  A    between atoms: N_3  and  C_4
REMARK    3  A    between atoms: C_4  and  C_5
REMARK    4  A    between atoms: C_8  and  O_9
REMARK    5  A    between atoms: O_9  and  C_10
REMARK                            x       y       z     vdW  Elec       q    Type
REMARK                         _______ _______ _______ _____ _____    ______ ____
ROOT
ATOM      1  O   UNL     1      49.897   7.059  14.201  0.00  0.00    +0.000 OA
ATOM      2  C   UNL     1      48.999   6.931  15.029  0.00  0.00    +0.000 C 
ATOM      3  N   UNL     1      47.713   7.339  14.795  0.00  0.00    +0.000 N 
ATOM      4  H   UNL     1      47.045   7.354  15.558  0.00  0.00    +0.000 HD
ENDROOT
BRANCH   2   5
ATOM      5  C   UNL     1      49.244   6.285  16.324  0.00  0.00    +0.000 A 
ATOM      6  C   UNL     1      50.091   6.883  17.249  0.00  0.00    +0.000 A 
ATOM      7  S   UNL     1      50.231   6.010  18.707  0.00  0.00    +0.000 S 
ATOM      8  C   UNL     1      49.140   4.820  18.166  0.00  0.00    +0.000 A 
ATOM      9  N   UNL     1      48.773   3.787  18.969  0.00  0.00    +0.000 NA
ATOM     10  C   UNL     1      47.907   2.988  18.444  0.00  0.00    +0.000 A 
ATOM     11  N   UNL     1      47.391   3.110  17.179  0.00  0.00    +0.000 N 
ATOM     12  C   UNL     1      47.806   4.082  16.300  0.00  0.00    +0.000 A 
ATOM     13  O   UNL     1      47.462   4.061  15.124  0.00  0.00    +0.000 OA
ATOM     14  C   UNL     1      48.717   5.059  16.871  0.00  0.00    +0.000 A 
ATOM     15  H   UNL     1      46.755   2.421  16.809  0.00  0.00    +0.000 HD
ENDBRANCH   2   5
BRANCH   3  16
ATOM     16  C   UNL     1      47.319   8.026  13.593  0.00  0.00    +0.000 C 
BRANCH  16  17
ATOM     17  C   UNL     1      46.457   7.168  12.706  0.00  0.00    +0.000 A 
ATOM     18  C   UNL     1      45.488   7.763  11.887  0.00  0.00    +0.000 A 
ATOM     19  C   UNL     1      44.722   6.988  11.015  0.00  0.00    +0.000 A 
ATOM     20  C   UNL     1      44.934   5.611  10.925  0.00  0.00    +0.000 A 
ATOM     21  C   UNL     1      45.850   5.002  11.786  0.00  0.00    +0.000 A 
ATOM     22  C   UNL     1      46.603   5.774  12.676  0.00  0.00    +0.000 A 
BRANCH  20  23
ATOM     23  O   UNL     1      44.237   4.774  10.084  0.00  0.00    +0.000 OA
BRANCH  23  24
ATOM     24  C   UNL     1      44.948   3.966   9.203  0.00  0.00    +0.000 A 
ATOM     25  N   UNL     1      45.600   4.518   8.176  0.00  0.00    +0.000 NA
ATOM     26  C   UNL     1      46.207   3.645   7.381  0.00  0.00    +0.000 A 
ATOM     27  N   UNL     1      46.242   2.326   7.552  0.00  0.00    +0.000 NA
ATOM     28  C   UNL     1      45.598   1.906   8.639  0.00  0.00    +0.000 A 
ATOM     29  N   UNL     1      44.934   2.667   9.502  0.00  0.00    +0.000 NA
ENDBRANCH  23  24
ENDBRANCH  20  23
ENDBRANCH  16  17
ENDBRANCH   3  16
TORSDOF 5
ENDMDL
MODEL 7
REMARK VINA RESULT:    -7.091      2.824      3.861
REMARK INTER + INTRA:          -9.508
REMARK INTER:                  -8.610
REMARK INTRA:                  -0.898
REMARK UNBOUND:                -0.344
REMARK  Name = 
REMARK  5 active torsions:
REMARK  status: ('A' for Active; 'I' for Inactive)
REMARK    1  A    between atoms: C_2  and  C_18
REMARK    2  A    between atoms: N_3  and  C_4
REMARK    3  A    between atoms: C_4  and  C_5
REMARK    4  A    between atoms: C_8  and  O_9
REMARK    5  A    between atoms: O_9  and  C_10
REMARK                            x       y       z     vdW  Elec       q    Type
REMARK                         _______ _______ _______ _____ _____    ______ ____
ROOT
ATOM      1  O   UNL     1      49.099   9.989  15.429  0.00  0.00    +0.000 OA
ATOM      2  C   UNL     1      48.422   9.021  15.769  0.00  0.00    +0.000 C 
ATOM      3  N   UNL     1      47.540   8.403  14.923  0.00  0.00    +0.000 N 
ATOM      4  H   UNL     1      46.895   7.711  15.291  0.00  0.00    +0.000 HD
ENDROOT
BRANCH   2   5
ATOM      5  C   UNL     1      48.550   8.436  17.108  0.00  0.00    +0.000 A 
ATOM      6  C   UNL     1      48.422   9.241  18.233  0.00  0.00    +0.000 A 
ATOM      7  S   UNL     1      48.566   8.386  19.702  0.00  0.00    +0.000 S 
ATOM      8  C   UNL     1      48.770   6.906  18.886  0.00  0.00    +0.000 A 
ATOM      9  N   UNL     1      48.898   5.739  19.570  0.00  0.00    +0.000 NA
ATOM     10  C   UNL     1      49.001   4.693  18.823  0.00  0.00    +0.000 A 
ATOM     11  N   UNL     1      49.013   4.706  17.452  0.00  0.00    +0.000 N 
ATOM     12  C   UNL     1      48.983   5.870  16.721  0.00  0.00    +0.000 A 
ATOM     13  O   UNL     1      49.173   5.863  15.510  0.00  0.00    +0.000 OA
ATOM     14  C   UNL     1      48.781   7.071  17.512  0.00  0.00    +0.000 A 
ATOM     15  H   UNL     1      49.148   3.857  16.926  0.00  0.00    +0.000 HD
ENDBRANCH   2   5
BRANCH   3  16
ATOM     16  C   UNL     1      47.270   8.879  13.593  0.00  0.00    +0.000 C 
BRANCH  16  17
ATOM     17  C   UNL     1      46.512   7.870  12.772  0.00  0.00    +0.000 A 
ATOM     18  C   UNL     1      46.924   6.531  12.756  0.00  0.00    +0.000 A 
ATOM     19  C   UNL     1      46.198   5.572  12.049  0.00  0.00    +0.000 A 
ATOM     20  C   UNL     1      45.031   5.931  11.371  0.00  0.00    +0.000 A 
ATOM     21  C   UNL     1      44.651   7.275  11.326  0.00  0.00    +0.000 A 
ATOM     22  C   UNL     1      45.390   8.241  12.017  0.00  0.00    +0.000 A 
BRANCH  20  23
ATOM     23  O   UNL     1      44.246   5.051  10.662  0.00  0.00    +0.000 OA
BRANCH  23  24
ATOM     24  C   UNL     1      44.850   4.221   9.724  0.00  0.00    +0.000 A 
ATOM     25  N   UNL     1      45.542   4.756   8.715  0.00  0.00    +0.000 NA
ATOM     26  C   UNL     1      46.037   3.869   7.860  0.00  0.00    +0.000 A 
ATOM     27  N   UNL     1      45.930   2.546   7.959  0.00  0.00    +0.000 NA
ATOM     28  C   UNL     1      45.261   2.138   9.035  0.00  0.00    +0.000 A 
ATOM     29  N   UNL     1      44.699   2.917   9.952  0.00  0.00    +0.000 NA
ENDBRANCH  23  24
ENDBRANCH  20  23
ENDBRANCH  16  17
ENDBRANCH   3  16
TORSDOF 5
ENDMDL
MODEL 8
REMARK VINA RESULT:    -7.012      3.029      3.561
REMARK INTER + INTRA:          -9.405
REMARK INTER:                  -9.987
REMARK INTRA:                   0.583
REMARK UNBOUND:                -0.344
REMARK  Name = 
REMARK  5 active torsions:
REMARK  status: ('A' for Active; 'I' for Inactive)
REMARK    1  A    between atoms: C_2  and  C_18
REMARK    2  A    between atoms: N_3  and  C_4
REMARK    3  A    between atoms: C_4  and  C_5
REMARK    4  A    between atoms: C_8  and  O_9
REMARK    5  A    between atoms: O_9  and  C_10
REMARK                            x       y       z     vdW  Elec       q    Type
REMARK                         _______ _______ _______ _____ _____    ______ ____
ROOT
ATOM      1  O   UNL     1      46.255   5.532  13.205  0.00  0.00    +0.000 OA
ATOM      2  C   UNL     1      45.691   6.582  12.906  0.00  0.00    +0.000 C 
ATOM      3  N   UNL     1      44.332   6.679  12.772  0.00  0.00    +0.000 N 
ATOM      4  H   UNL     1      43.926   7.519  12.376  0.00  0.00    +0.000 HD
ENDROOT
BRANCH   2   5
ATOM      5  C   UNL     1      46.448   7.824  12.713  0.00  0.00    +0.000 A 
ATOM      6  C   UNL     1      45.777   9.018  12.482  0.00  0.00    +0.000 A 
ATOM      7  S   UNL     1      46.814  10.362  12.314  0.00  0.00    +0.000 S 
ATOM      8  C   UNL     1      48.194   9.400  12.578  0.00  0.00    +0.000 A 
ATOM      9  N   UNL     1      49.436   9.950  12.615  0.00  0.00    +0.000 NA
ATOM     10  C   UNL     1      50.382   9.110  12.867  0.00  0.00    +0.000 A 
ATOM     11  N   UNL     1      50.205   7.764  13.062  0.00  0.00    +0.000 N 
ATOM     12  C   UNL     1      48.982   7.151  12.937  0.00  0.00    +0.000 A 
ATOM     13  O   UNL     1      48.881   5.930  12.940  0.00  0.00    +0.000 OA
ATOM     14  C   UNL     1      47.870   8.065  12.738  0.00  0.00    +0.000 A 
ATOM     15  H   UNL     1      50.994   7.153  13.204  0.00  0.00    +0.000 HD
ENDBRANCH   2   5
BRANCH   3  16
ATOM     16  C   UNL     1      43.454   5.544  12.889  0.00  0.00    +0.000 C 
BRANCH  16  17
ATOM     17  C   UNL     1      43.664   4.547  11.781  0.00  0.00    +0.000 A 
ATOM     18  C   UNL     1      43.927   4.995  10.480  0.00  0.00    +0.000 A 
ATOM     19  C   UNL     1      44.184   4.084   9.453  0.00  0.00    +0.000 A 
ATOM     20  C   UNL     1      44.212   2.714   9.719  0.00  0.00    +0.000 A 
ATOM     21  C   UNL     1      43.885   2.257  10.998  0.00  0.00    +0.000 A 
ATOM     22  C   UNL     1      43.606   3.168  12.022  0.00  0.00    +0.000 A 
BRANCH  20  23
ATOM     23  O   UNL     1      44.471   1.747   8.773  0.00  0.00    +0.000 OA
BRANCH  23  24
ATOM     24  C   UNL     1      45.689   1.777   8.102  0.00  0.00    +0.000 A 
ATOM     25  N   UNL     1      46.430   0.669   8.024  0.00  0.00    +0.000 NA
ATOM     26  C   UNL     1      47.589   0.829   7.397  0.00  0.00    +0.000 A 
ATOM     27  N   UNL     1      48.023   1.953   6.833  0.00  0.00    +0.000 NA
ATOM     28  C   UNL     1      47.171   2.970   6.934  0.00  0.00    +0.000 A 
ATOM     29  N   UNL     1      45.994   2.952   7.551  0.00  0.00    +0.000 NA
ENDBRANCH  23  24
ENDBRANCH  20  23
ENDBRANCH  16  17
ENDBRANCH   3  16
TORSDOF 5
ENDMDL
MODEL 9
REMARK VINA RESULT:    -6.976      3.988      8.275
REMARK INTER + INTRA:          -9.359
REMARK INTER:                  -8.625
REMARK INTRA:                  -0.734
REMARK UNBOUND:                -0.344
REMARK  Name = 
REMARK  5 active torsions:
REMARK  status: ('A' for Active; 'I' for Inactive)
REMARK    1  A    between atoms: C_2  and  C_18
REMARK    2  A    between atoms: N_3  and  C_4
REMARK    3  A    between atoms: C_4  and  C_5
REMARK    4  A    between atoms: C_8  and  O_9
REMARK    5  A    between atoms: O_9  and  C_10
REMARK                            x       y       z     vdW  Elec       q    Type
REMARK                         _______ _______ _______ _____ _____    ______ ____
ROOT
ATOM      1  O   UNL     1      48.647   6.418  12.695  0.00  0.00    +0.000 OA
ATOM      2  C   UNL     1      47.617   6.960  13.092  0.00  0.00    +0.000 C 
ATOM      3  N   UNL     1      47.628   8.033  13.942  0.00  0.00    +0.000 N 
ATOM      4  H   UNL     1      46.760   8.347  14.363  0.00  0.00    +0.000 HD
ENDROOT
BRANCH   2   5
ATOM      5  C   UNL     1      46.296   6.508  12.640  0.00  0.00    +0.000 A 
ATOM      6  C   UNL     1      45.402   7.417  12.089  0.00  0.00    +0.000 A 
ATOM      7  S   UNL     1      43.933   6.710  11.589  0.00  0.00    +0.000 S 
ATOM      8  C   UNL     1      44.454   5.159  12.061  0.00  0.00    +0.000 A 
ATOM      9  N   UNL     1      43.674   4.065  11.858  0.00  0.00    +0.000 NA
ATOM     10  C   UNL     1      44.214   2.953  12.223  0.00  0.00    +0.000 A 
ATOM     11  N   UNL     1      45.454   2.833  12.797  0.00  0.00    +0.000 N 
ATOM     12  C   UNL     1      46.235   3.920  13.108  0.00  0.00    +0.000 A 
ATOM     13  O   UNL     1      47.254   3.797  13.777  0.00  0.00    +0.000 OA
ATOM     14  C   UNL     1      45.710   5.190  12.640  0.00  0.00    +0.000 A 
ATOM     15  H   UNL     1      45.797   1.937  13.108  0.00  0.00    +0.000 HD
ENDBRANCH   2   5
BRANCH   3  16
ATOM     16  C   UNL     1      48.838   8.568  14.508  0.00  0.00    +0.000 C 
BRANCH  16  17
ATOM     17  C   UNL     1      49.439   7.648  15.538  0.00  0.00    +0.000 A 
ATOM     18  C   UNL     1      48.636   7.127  16.561  0.00  0.00    +0.000 A 
ATOM     19  C   UNL     1      49.163   6.226  17.488  0.00  0.00    +0.000 A 
ATOM     20  C   UNL     1      50.491   5.807  17.386  0.00  0.00    +0.000 A 
ATOM     21  C   UNL     1      51.315   6.373  16.410  0.00  0.00    +0.000 A 
ATOM     22  C   UNL     1      50.794   7.293  15.494  0.00  0.00    +0.000 A 
BRANCH  20  23
ATOM     23  O   UNL     1      51.088   4.912  18.245  0.00  0.00    +0.000 OA
BRANCH  23  24
ATOM     24  C   UNL     1      51.192   3.580  17.858  0.00  0.00    +0.000 A 
ATOM     25  N   UNL     1      50.185   3.003  17.197  0.00  0.00    +0.000 NA
ATOM     26  C   UNL     1      50.379   1.719  16.918  0.00  0.00    +0.000 A 
ATOM     27  N   UNL     1      51.471   1.015  17.203  0.00  0.00    +0.000 NA
ATOM     28  C   UNL     1      52.421   1.718  17.816  0.00  0.00    +0.000 A 
ATOM     29  N   UNL     1      52.347   2.996  18.171  0.00  0.00    +0.000 NA
ENDBRANCH  23  24
ENDBRANCH  20  23
ENDBRANCH  16  17
ENDBRANCH   3  16
TORSDOF 5
ENDMDL
