MODEL 1
REMARK VINA RESULT:    -7.868      0.000      0.000
REMARK INTER + INTRA:         -12.682
REMARK INTER:                 -11.778
REMARK INTRA:                  -0.904
REMARK UNBOUND:                -0.904
REMARK  Name = 
REMARK  10 active torsions:
REMARK  status: ('A' for Active; 'I' for Inactive)
REMARK    1  A    between atoms: C_1  and  C_2
REMARK    2  A    between atoms: C_2  and  N_3
REMARK    3  A    between atoms: C_2  and  C_20
REMARK    4  A    between atoms: N_3  and  C_4
REMARK    5  A    between atoms: C_4  and  C_5
REMARK    6  A    between atoms: C_8  and  C_9
REMARK    7  A    between atoms: C_9  and  O_10
REMARK    8  A    between atoms: C_9  and  C_11
REMARK    9  A    between atoms: C_11  and  N_12
REMARK   10  A    between atoms: N_12  and  C_13
REMARK                            x       y       z     vdW  Elec       q    Type
REMARK                         _______ _______ _______ _____ _____    ______ ____
ROOT
ATOM      1  C   UNL     1      47.099   6.147  13.897  0.00  0.00    +0.000 A 
ATOM      2  C   UNL     1      46.345   4.962  13.874  0.00  0.00    +0.000 A 
ATOM      3  C   UNL     1      45.104   4.922  13.233  0.00  0.00    +0.000 A 
ATOM      4  C   UNL     1      44.584   6.059  12.596  0.00  0.00    +0.000 A 
ATOM      5  C   UNL     1      45.337   7.242  12.622  0.00  0.00    +0.000 A 
ATOM      6  C   UNL     1      46.581   7.283  13.258  0.00  0.00    +0.000 A 
ENDROOT
BRANCH   1   7
ATOM      7  C   UNL     1      48.431   6.221  14.619  0.00  0.00    +0.000 C 
BRANCH   7   8
ATOM      8  N   UNL     1      48.288   6.064  16.067  0.00  0.00    +0.000 NA
ATOM      9  H   UNL     1      49.059   6.545  16.524  0.00  0.00    +0.000 HD
BRANCH   8  11
ATOM     10  C   UNL     1      47.069   4.299  17.356  0.00  0.00    +0.000 C 
ATOM     11  C   UNL     1      48.299   4.655  16.512  0.00  0.00    +0.000 C 
BRANCH  11  12
ATOM     12  C   UNL     1      49.577   4.482  17.321  0.00  0.00    +0.000 A 
ATOM     13  C   UNL     1      50.124   5.484  18.109  0.00  0.00    +0.000 A 
ATOM     14  S   UNL     1      51.608   5.050  18.829  0.00  0.00    +0.000 S 
ATOM     15  C   UNL     1      51.565   3.506  18.114  0.00  0.00    +0.000 A 
ATOM     16  N   UNL     1      52.591   2.627  18.288  0.00  0.00    +0.000 NA
ATOM     17  C   UNL     1      52.423   1.494  17.691  0.00  0.00    +0.000 A 
ATOM     18  N   UNL     1      51.313   1.151  16.960  0.00  0.00    +0.000 N 
ATOM     19  C   UNL     1      50.231   1.989  16.797  0.00  0.00    +0.000 A 
ATOM     20  O   UNL     1      49.215   1.616  16.220  0.00  0.00    +0.000 OA
ATOM     21  C   UNL     1      50.407   3.304  17.387  0.00  0.00    +0.000 A 
ATOM     22  H   UNL     1      51.226   0.228  16.559  0.00  0.00    +0.000 HD
ENDBRANCH  11  12
ENDBRANCH   8  11
ENDBRANCH   7   8
ENDBRANCH   1   7
BRANCH   4  23
ATOM     23  C   UNL     1      43.239   5.990  11.899  0.00  0.00    +0.000 C 
BRANCH  23  24
ATOM     24  O   UNL     1      43.027   7.168  11.111  0.00  0.00    +0.000 OA
ATOM     25  H   UNL     1      42.419   7.746  11.598  0.00  0.00    +0.000 HD
ENDBRANCH  23  24
BRANCH  23  26
ATOM     26  C   UNL     1      43.066   4.756  10.977  0.00  0.00    +0.000 C 
BRANCH  26  27
ATOM     27  N   UNL     1      43.676   4.918   9.655  0.00  0.00    +0.000 NA
ATOM     28  H   UNL     1      43.517   5.852   9.290  0.00  0.00    +0.000 HD
BRANCH  27  29
ATOM     29  C   UNL     1      45.081   4.576   9.607  0.00  0.00    +0.000 C 
ATOM     30  C   UNL     1      45.322   3.113   9.962  0.00  0.00    +0.000 C 
ATOM     31  C   UNL     1      44.972   2.359   8.690  0.00  0.00    +0.000 C 
ATOM     32  C   UNL     1      45.212   3.369   7.577  0.00  0.00    +0.000 C 
ATOM     33  N   UNL     1      45.549   4.627   8.237  0.00  0.00    +0.000 NA
ATOM     34  H   UNL     1      45.184   5.427   7.738  0.00  0.00    +0.000 HD
ENDBRANCH  27  29
ENDBRANCH  26  27
ENDBRANCH  23  26
ENDBRANCH   4  23
TORSDOF 9
ENDMDL
MODEL 2
REMARK VINA RESULT:    -7.583      1.092      1.306
REMARK INTER + INTRA:         -12.255
REMARK INTER:                 -11.790
REMARK INTRA:                  -0.465
REMARK UNBOUND:                -0.904
REMARK  Name = 
REMARK  10 active torsions:
REMARK  status: ('A' for Active; 'I' for Inactive)
REMARK    1  A    between atoms: C_1  and  C_2
REMARK    2  A    between atoms: C_2  and  N_3
REMARK    3  A    between atoms: C_2  and  C_20
REMARK    4  A    between atoms: N_3  and  C_4
REMARK    5  A    between atoms: C_4  and  C_5
REMARK    6  A    between atoms: C_8  and  C_9
REMARK    7  A    between atoms: C_9  and  O_10
REMARK    8  A    between atoms: C_9  and  C_11
REMARK    9  A    between atoms: C_11  and  N_12
REMARK   10  A    between atoms: N_12  and  C_13
REMARK                            x       y       z     vdW  Elec       q    Type
REMARK                         _______ _______ _______ _____ _____    ______ ____
ROOT
ATOM      1  C   UNL     1      47.319   5.843  13.867  0.00  0.00    +0.000 A 
ATOM      2  C   UNL     1      46.793   4.541  13.920  0.00  0.00    +0.000 A 
ATOM      3  C   UNL     1      45.674   4.195  13.157  0.00  0.00    +0.000 A 
ATOM      4  C   UNL     1      45.054   5.135  12.321  0.00  0.00    +0.000 A 
ATOM      5  C   UNL     1      45.579   6.434  12.271  0.00  0.00    +0.000 A 
ATOM      6  C   UNL     1      46.701   6.781  13.028  0.00  0.00    +0.000 A 
ENDROOT
BRANCH   1   7
ATOM      7  C   UNL     1      48.509   6.247  14.715  0.00  0.00    +0.000 C 
BRANCH   7   8
ATOM      8  N   UNL     1      48.242   6.116  16.148  0.00  0.00    +0.000 NA
ATOM      9  H   UNL     1      48.947   6.642  16.660  0.00  0.00    +0.000 HD
BRANCH   8  11
ATOM     10  C   UNL     1      47.061   4.377  17.505  0.00  0.00    +0.000 C 
ATOM     11  C   UNL     1      48.273   4.719  16.629  0.00  0.00    +0.000 C 
BRANCH  11  12
ATOM     12  C   UNL     1      49.567   4.577  17.418  0.00  0.00    +0.000 A 
ATOM     13  C   UNL     1      50.100   5.591  18.201  0.00  0.00    +0.000 A 
ATOM     14  S   UNL     1      51.605   5.194  18.897  0.00  0.00    +0.000 S 
ATOM     15  C   UNL     1      51.591   3.651  18.179  0.00  0.00    +0.000 A 
ATOM     16  N   UNL     1      52.641   2.797  18.335  0.00  0.00    +0.000 NA
ATOM     17  C   UNL     1      52.492   1.661  17.739  0.00  0.00    +0.000 A 
ATOM     18  N   UNL     1      51.380   1.292  17.024  0.00  0.00    +0.000 N 
ATOM     19  C   UNL     1      50.275   2.102  16.879  0.00  0.00    +0.000 A 
ATOM     20  O   UNL     1      49.260   1.706  16.316  0.00  0.00    +0.000 OA
ATOM     21  C   UNL     1      50.427   3.421  17.469  0.00  0.00    +0.000 A 
ATOM     22  H   UNL     1      51.310   0.368  16.622  0.00  0.00    +0.000 HD
ENDBRANCH  11  12
ENDBRANCH   8  11
ENDBRANCH   7   8
ENDBRANCH   1   7
BRANCH   4  23
ATOM     23  C   UNL     1      43.846   4.735  11.494  0.00  0.00    +0.000 C 
BRANCH  23  24
ATOM     24  O   UNL     1      43.801   5.494  10.280  0.00  0.00    +0.000 OA
ATOM     25  H   UNL     1      44.193   6.364  10.460  0.00  0.00    +0.000 HD
ENDBRANCH  23  24
BRANCH  23  26
ATOM     26  C   UNL     1      43.803   3.230  11.123  0.00  0.00    +0.000 C 
BRANCH  26  27
ATOM     27  N   UNL     1      44.942   2.790  10.314  0.00  0.00    +0.000 NA
ATOM     28  H   UNL     1      45.540   2.158  10.836  0.00  0.00    +0.000 HD
BRANCH  27  29
ATOM     29  C   UNL     1      44.574   2.219   9.037  0.00  0.00    +0.000 C 
ATOM     30  C   UNL     1      44.619   3.254   7.918  0.00  0.00    +0.000 C 
ATOM     31  C   UNL     1      46.095   3.367   7.576  0.00  0.00    +0.000 C 
ATOM     32  C   UNL     1      46.678   2.020   7.976  0.00  0.00    +0.000 C 
ATOM     33  N   UNL     1      45.591   1.280   8.611  0.00  0.00    +0.000 NA
ATOM     34  H   UNL     1      45.920   0.701   9.373  0.00  0.00    +0.000 HD
ENDBRANCH  27  29
ENDBRANCH  26  27
ENDBRANCH  23  26
ENDBRANCH   4  23
TORSDOF 9
ENDMDL
MODEL 3
REMARK VINA RESULT:    -7.458      2.289      3.114
REMARK INTER + INTRA:         -12.068
REMARK INTER:                 -11.166
REMARK INTRA:                  -0.902
REMARK UNBOUND:                -0.904
REMARK  Name = 
REMARK  10 active torsions:
REMARK  status: ('A' for Active; 'I' for Inactive)
REMARK    1  A    between atoms: C_1  and  C_2
REMARK    2  A    between atoms: C_2  and  N_3
REMARK    3  A    between atoms: C_2  and  C_20
REMARK    4  A    between atoms: N_3  and  C_4
REMARK    5  A    between atoms: C_4  and  C_5
REMARK    6  A    between atoms: C_8  and  C_9
REMARK    7  A    between atoms: C_9  and  O_10
REMARK    8  A    between atoms: C_9  and  C_11
REMARK    9  A    between atoms: C_11  and  N_12
REMARK   10  A    between atoms: N_12  and  C_13
REMARK                            x       y       z     vdW  Elec       q    Type
REMARK                         _______ _______ _______ _____ _____    ______ ____
ROOT
ATOM      1  C   UNL     1      47.395   6.233  12.988  0.00  0.00    +0.000 A 
ATOM      2  C   UNL     1      46.865   6.644  11.754  0.00  0.00    +0.000 A 
ATOM      3  C   UNL     1      45.678   6.087  11.269  0.00  0.00    +0.000 A 
ATOM      4  C   UNL     1      44.989   5.110  12.001  0.00  0.00    +0.000 A 
ATOM      5  C   UNL     1      45.521   4.699  13.232  0.00  0.00    +0.000 A 
ATOM      6  C   UNL     1      46.703   5.258  13.722  0.00  0.00    +0.000 A 
ENDROOT
BRANCH   1   7
ATOM      7  C   UNL     1      48.700   6.798  13.514  0.00  0.00    +0.000 C 
BRANCH   7   8
ATOM      8  N   UNL     1      49.016   6.310  14.858  0.00  0.00    +0.000 NA
ATOM      9  H   UNL     1      48.148   6.043  15.319  0.00  0.00    +0.000 HD
BRANCH   8  11
ATOM     10  C   UNL     1      51.197   7.033  15.847  0.00  0.00    +0.000 C 
ATOM     11  C   UNL     1      49.696   7.312  15.705  0.00  0.00    +0.000 C 
BRANCH  11  12
ATOM     12  C   UNL     1      49.005   7.251  17.060  0.00  0.00    +0.000 A 
ATOM     13  C   UNL     1      48.366   8.336  17.642  0.00  0.00    +0.000 A 
ATOM     14  S   UNL     1      47.760   8.014  19.203  0.00  0.00    +0.000 S 
ATOM     15  C   UNL     1      48.327   6.410  19.151  0.00  0.00    +0.000 A 
ATOM     16  N   UNL     1      48.178   5.580  20.220  0.00  0.00    +0.000 NA
ATOM     17  C   UNL     1      48.652   4.392  20.038  0.00  0.00    +0.000 A 
ATOM     18  N   UNL     1      49.236   3.952  18.877  0.00  0.00    +0.000 N 
ATOM     19  C   UNL     1      49.367   4.740  17.754  0.00  0.00    +0.000 A 
ATOM     20  O   UNL     1      49.805   4.287  16.702  0.00  0.00    +0.000 OA
ATOM     21  C   UNL     1      48.916   6.108  17.936  0.00  0.00    +0.000 A 
ATOM     22  H   UNL     1      49.543   2.993  18.786  0.00  0.00    +0.000 HD
ENDBRANCH  11  12
ENDBRANCH   8  11
ENDBRANCH   7   8
ENDBRANCH   1   7
BRANCH   4  23
ATOM     23  C   UNL     1      43.698   4.525  11.460  0.00  0.00    +0.000 C 
BRANCH  23  24
ATOM     24  O   UNL     1      43.288   5.233  10.283  0.00  0.00    +0.000 OA
ATOM     25  H   UNL     1      42.524   5.784  10.520  0.00  0.00    +0.000 HD
ENDBRANCH  23  24
BRANCH  23  26
ATOM     26  C   UNL     1      43.783   3.017  11.109  0.00  0.00    +0.000 C 
BRANCH  26  27
ATOM     27  N   UNL     1      44.938   2.671  10.278  0.00  0.00    +0.000 NA
ATOM     28  H   UNL     1      45.553   2.021  10.757  0.00  0.00    +0.000 HD
BRANCH  27  29
ATOM     29  C   UNL     1      44.593   2.181   8.961  0.00  0.00    +0.000 C 
ATOM     30  C   UNL     1      44.665   3.282   7.909  0.00  0.00    +0.000 C 
ATOM     31  C   UNL     1      46.148   3.408   7.603  0.00  0.00    +0.000 C 
ATOM     32  C   UNL     1      46.717   2.034   7.931  0.00  0.00    +0.000 C 
ATOM     33  N   UNL     1      45.613   1.264   8.498  0.00  0.00    +0.000 NA
ATOM     34  H   UNL     1      45.924   0.637   9.229  0.00  0.00    +0.000 HD
ENDBRANCH  27  29
ENDBRANCH  26  27
ENDBRANCH  23  26
ENDBRANCH   4  23
TORSDOF 9
ENDMDL
MODEL 4
REMARK VINA RESULT:    -7.426      1.627      1.927
REMARK INTER + INTRA:         -12.021
REMARK INTER:                 -11.052
REMARK INTRA:                  -0.968
REMARK UNBOUND:                -0.904
REMARK  Name = 
REMARK  10 active torsions:
REMARK  status: ('A' for Active; 'I' for Inactive)
REMARK    1  A    between atoms: C_1  and  C_2
REMARK    2  A    between atoms: C_2  and  N_3
REMARK    3  A    between atoms: C_2  and  C_20
REMARK    4  A    between atoms: N_3  and  C_4
REMARK    5  A    between atoms: C_4  and  C_5
REMARK    6  A    between atoms: C_8  and  C_9
REMARK    7  A    between atoms: C_9  and  O_10
REMARK    8  A    between atoms: C_9  and  C_11
REMARK    9  A    between atoms: C_11  and  N_12
REMARK   10  A    between atoms: N_12  and  C_13
REMARK                            x       y       z     vdW  Elec       q    Type
REMARK                         _______ _______ _______ _____ _____    ______ ____
ROOT
ATOM      1  C   UNL     1      47.578   6.550  13.693  0.00  0.00    +0.000 A 
ATOM      2  C   UNL     1      47.189   5.205  13.814  0.00  0.00    +0.000 A 
ATOM      3  C   UNL     1      45.906   4.799  13.434  0.00  0.00    +0.000 A 
ATOM      4  C   UNL     1      44.981   5.720  12.922  0.00  0.00    +0.000 A 
ATOM      5  C   UNL     1      45.370   7.062  12.804  0.00  0.00    +0.000 A 
ATOM      6  C   UNL     1      46.653   7.470  13.178  0.00  0.00    +0.000 A 
ENDROOT
BRANCH   1   7
ATOM      7  C   UNL     1      48.951   7.017  14.133  0.00  0.00    +0.000 C 
BRANCH   7   8
ATOM      8  N   UNL     1      48.883   8.021  15.197  0.00  0.00    +0.000 NA
ATOM      9  H   UNL     1      49.787   8.483  15.266  0.00  0.00    +0.000 HD
BRANCH   8  11
ATOM     10  C   UNL     1      48.418   8.539  17.600  0.00  0.00    +0.000 C 
ATOM     11  C   UNL     1      48.553   7.457  16.522  0.00  0.00    +0.000 C 
BRANCH  11  12
ATOM     12  C   UNL     1      49.685   6.496  16.860  0.00  0.00    +0.000 A 
ATOM     13  C   UNL     1      51.011   6.888  16.976  0.00  0.00    +0.000 A 
ATOM     14  S   UNL     1      52.080   5.592  17.268  0.00  0.00    +0.000 S 
ATOM     15  C   UNL     1      50.805   4.465  17.256  0.00  0.00    +0.000 A 
ATOM     16  N   UNL     1      51.047   3.133  17.400  0.00  0.00    +0.000 NA
ATOM     17  C   UNL     1      49.986   2.397  17.375  0.00  0.00    +0.000 A 
ATOM     18  N   UNL     1      48.705   2.873  17.245  0.00  0.00    +0.000 N 
ATOM     19  C   UNL     1      48.408   4.214  17.144  0.00  0.00    +0.000 A 
ATOM     20  O   UNL     1      47.249   4.613  17.127  0.00  0.00    +0.000 OA
ATOM     21  C   UNL     1      49.575   5.077  17.091  0.00  0.00    +0.000 A 
ATOM     22  H   UNL     1      47.916   2.243  17.281  0.00  0.00    +0.000 HD
ENDBRANCH  11  12
ENDBRANCH   8  11
ENDBRANCH   7   8
ENDBRANCH   1   7
BRANCH   4  23
ATOM     23  C   UNL     1      43.598   5.255  12.507  0.00  0.00    +0.000 C 
BRANCH  23  24
ATOM     24  O   UNL     1      42.639   5.589  13.518  0.00  0.00    +0.000 OA
ATOM     25  H   UNL     1      41.940   4.915  13.498  0.00  0.00    +0.000 HD
ENDBRANCH  23  24
BRANCH  23  26
ATOM     26  C   UNL     1      43.106   5.850  11.163  0.00  0.00    +0.000 C 
BRANCH  26  27
ATOM     27  N   UNL     1      43.458   5.036   9.996  0.00  0.00    +0.000 NA
ATOM     28  H   UNL     1      43.201   5.503   9.133  0.00  0.00    +0.000 HD
BRANCH  27  29
ATOM     29  C   UNL     1      44.842   4.616   9.965  0.00  0.00    +0.000 C 
ATOM     30  C   UNL     1      44.983   3.112  10.170  0.00  0.00    +0.000 C 
ATOM     31  C   UNL     1      44.648   2.518   8.812  0.00  0.00    +0.000 C 
ATOM     32  C   UNL     1      44.993   3.622   7.824  0.00  0.00    +0.000 C 
ATOM     33  N   UNL     1      45.372   4.781   8.627  0.00  0.00    +0.000 NA
ATOM     34  H   UNL     1      45.076   5.650   8.203  0.00  0.00    +0.000 HD
ENDBRANCH  27  29
ENDBRANCH  26  27
ENDBRANCH  23  26
ENDBRANCH   4  23
TORSDOF 9
ENDMDL
MODEL 5
REMARK VINA RESULT:    -7.287      2.655      8.874
REMARK INTER + INTRA:         -11.812
REMARK INTER:                 -10.730
REMARK INTRA:                  -1.082
REMARK UNBOUND:                -0.904
REMARK  Name = 
REMARK  10 active torsions:
REMARK  status: ('A' for Active; 'I' for Inactive)
REMARK    1  A    between atoms: C_1  and  C_2
REMARK    2  A    between atoms: C_2  and  N_3
REMARK    3  A    between atoms: C_2  and  C_20
REMARK    4  A    between atoms: N_3  and  C_4
REMARK    5  A    between atoms: C_4  and  C_5
REMARK    6  A    between atoms: C_8  and  C_9
REMARK    7  A    between atoms: C_9  and  O_10
REMARK    8  A    between atoms: C_9  and  C_11
REMARK    9  A    between atoms: C_11  and  N_12
REMARK   10  A    between atoms: N_12  and  C_13
REMARK                            x       y       z     vdW  Elec       q    Type
REMARK                         _______ _______ _______ _____ _____    ______ ____
ROOT
ATOM      1  C   UNL     1      47.661   5.544  14.721  0.00  0.00    +0.000 A 
ATOM      2  C   UNL     1      47.161   4.373  15.314  0.00  0.00    +0.000 A 
ATOM      3  C   UNL     1      47.458   4.068  16.646  0.00  0.00    +0.000 A 
ATOM      4  C   UNL     1      48.257   4.923  17.419  0.00  0.00    +0.000 A 
ATOM      5  C   UNL     1      48.758   6.090  16.825  0.00  0.00    +0.000 A 
ATOM      6  C   UNL     1      48.458   6.400  15.496  0.00  0.00    +0.000 A 
ENDROOT
BRANCH   1   7
ATOM      7  C   UNL     1      47.380   5.874  13.268  0.00  0.00    +0.000 C 
BRANCH   7   8
ATOM      8  N   UNL     1      46.147   6.646  13.101  0.00  0.00    +0.000 NA
ATOM      9  H   UNL     1      45.433   6.251  13.709  0.00  0.00    +0.000 HD
BRANCH   8  11
ATOM     10  C   UNL     1      44.694   7.822  11.439  0.00  0.00    +0.000 C 
ATOM     11  C   UNL     1      45.628   6.638  11.718  0.00  0.00    +0.000 C 
BRANCH  11  12
ATOM     12  C   UNL     1      44.890   5.317  11.556  0.00  0.00    +0.000 A 
ATOM     13  C   UNL     1      44.069   4.775  12.534  0.00  0.00    +0.000 A 
ATOM     14  S   UNL     1      43.443   3.242  12.126  0.00  0.00    +0.000 S 
ATOM     15  C   UNL     1      44.245   3.255  10.625  0.00  0.00    +0.000 A 
ATOM     16  N   UNL     1      44.170   2.187   9.783  0.00  0.00    +0.000 NA
ATOM     17  C   UNL     1      44.824   2.337   8.679  0.00  0.00    +0.000 A 
ATOM     18  N   UNL     1      45.523   3.465   8.330  0.00  0.00    +0.000 N 
ATOM     19  C   UNL     1      45.588   4.587   9.127  0.00  0.00    +0.000 A 
ATOM     20  O   UNL     1      46.139   5.613   8.744  0.00  0.00    +0.000 OA
ATOM     21  C   UNL     1      44.930   4.437  10.414  0.00  0.00    +0.000 A 
ATOM     22  H   UNL     1      45.973   3.533   7.428  0.00  0.00    +0.000 HD
ENDBRANCH  11  12
ENDBRANCH   8  11
ENDBRANCH   7   8
ENDBRANCH   1   7
BRANCH   4  23
ATOM     23  C   UNL     1      48.560   4.576  18.865  0.00  0.00    +0.000 C 
BRANCH  23  24
ATOM     24  O   UNL     1      48.334   3.181  19.099  0.00  0.00    +0.000 OA
ATOM     25  H   UNL     1      49.190   2.772  19.306  0.00  0.00    +0.000 HD
ENDBRANCH  23  24
BRANCH  23  26
ATOM     26  C   UNL     1      50.007   4.910  19.307  0.00  0.00    +0.000 C 
BRANCH  26  27
ATOM     27  N   UNL     1      50.945   3.796  19.144  0.00  0.00    +0.000 NA
ATOM     28  H   UNL     1      50.523   2.918  19.429  0.00  0.00    +0.000 HD
BRANCH  27  29
ATOM     29  C   UNL     1      51.513   3.692  17.818  0.00  0.00    +0.000 C 
ATOM     30  C   UNL     1      52.977   3.267  17.859  0.00  0.00    +0.000 C 
ATOM     31  C   UNL     1      52.922   1.765  18.083  0.00  0.00    +0.000 C 
ATOM     32  C   UNL     1      51.577   1.348  17.505  0.00  0.00    +0.000 C 
ATOM     33  N   UNL     1      50.905   2.583  17.111  0.00  0.00    +0.000 NA
ATOM     34  H   UNL     1      49.905   2.536  17.262  0.00  0.00    +0.000 HD
ENDBRANCH  27  29
ENDBRANCH  26  27
ENDBRANCH  23  26
ENDBRANCH   4  23
TORSDOF 9
ENDMDL
MODEL 6
REMARK VINA RESULT:    -7.183      2.965      3.978
REMARK INTER + INTRA:         -11.656
REMARK INTER:                 -10.598
REMARK INTRA:                  -1.059
REMARK UNBOUND:                -0.904
REMARK  Name = 
REMARK  10 active torsions:
REMARK  status: ('A' for Active; 'I' for Inactive)
REMARK    1  A    between atoms: C_1  and  C_2
REMARK    2  A    between atoms: C_2  and  N_3
REMARK    3  A    between atoms: C_2  and  C_20
REMARK    4  A    between atoms: N_3  and  C_4
REMARK    5  A    between atoms: C_4  and  C_5
REMARK    6  A    between atoms: C_8  and  C_9
REMARK    7  A    between atoms: C_9  and  O_10
REMARK    8  A    between atoms: C_9  and  C_11
REMARK    9  A    between atoms: C_11  and  N_12
REMARK   10  A    between atoms: N_12  and  C_13
REMARK                            x       y       z     vdW  Elec       q    Type
REMARK                         _______ _______ _______ _____ _____    ______ ____
ROOT
ATOM      1  C   UNL     1      47.273   6.421  12.879  0.00  0.00    +0.000 A 
ATOM      2  C   UNL     1      46.830   6.684  11.572  0.00  0.00    +0.000 A 
ATOM      3  C   UNL     1      45.686   6.057  11.069  0.00  0.00    +0.000 A 
ATOM      4  C   UNL     1      44.954   5.156  11.856  0.00  0.00    +0.000 A 
ATOM      5  C   UNL     1      45.399   4.892  13.160  0.00  0.00    +0.000 A 
ATOM      6  C   UNL     1      46.539   5.522  13.666  0.00  0.00    +0.000 A 
ENDROOT
BRANCH   1   7
ATOM      7  C   UNL     1      48.531   7.063  13.429  0.00  0.00    +0.000 C 
BRANCH   7   8
ATOM      8  N   UNL     1      49.108   6.298  14.536  0.00  0.00    +0.000 NA
ATOM      9  H   UNL     1      48.435   5.594  14.830  0.00  0.00    +0.000 HD
BRANCH   8  11
ATOM     10  C   UNL     1      50.950   7.426  15.799  0.00  0.00    +0.000 C 
ATOM     11  C   UNL     1      49.448   7.125  15.712  0.00  0.00    +0.000 C 
BRANCH  11  12
ATOM     12  C   UNL     1      48.984   6.335  16.927  0.00  0.00    +0.000 A 
ATOM     13  C   UNL     1      48.859   4.953  16.939  0.00  0.00    +0.000 A 
ATOM     14  S   UNL     1      48.230   4.338  18.399  0.00  0.00    +0.000 S 
ATOM     15  C   UNL     1      48.109   5.899  19.067  0.00  0.00    +0.000 A 
ATOM     16  N   UNL     1      47.582   6.090  20.308  0.00  0.00    +0.000 NA
ATOM     17  C   UNL     1      47.556   7.324  20.688  0.00  0.00    +0.000 A 
ATOM     18  N   UNL     1      48.032   8.380  19.952  0.00  0.00    +0.000 N 
ATOM     19  C   UNL     1      48.615   8.231  18.712  0.00  0.00    +0.000 A 
ATOM     20  O   UNL     1      49.117   9.182  18.123  0.00  0.00    +0.000 OA
ATOM     21  C   UNL     1      48.598   6.868  18.211  0.00  0.00    +0.000 A 
ATOM     22  H   UNL     1      48.023   9.317  20.330  0.00  0.00    +0.000 HD
ENDBRANCH  11  12
ENDBRANCH   8  11
ENDBRANCH   7   8
ENDBRANCH   1   7
BRANCH   4  23
ATOM     23  C   UNL     1      43.710   4.493  11.294  0.00  0.00    +0.000 C 
BRANCH  23  24
ATOM     24  O   UNL     1      43.315   5.134  10.074  0.00  0.00    +0.000 OA
ATOM     25  H   UNL     1      42.957   4.451   9.483  0.00  0.00    +0.000 HD
ENDBRANCH  23  24
BRANCH  23  26
ATOM     26  C   UNL     1      43.873   2.978  11.011  0.00  0.00    +0.000 C 
BRANCH  26  27
ATOM     27  N   UNL     1      45.031   2.656  10.174  0.00  0.00    +0.000 NA
ATOM     28  H   UNL     1      45.670   2.032  10.657  0.00  0.00    +0.000 HD
BRANCH  27  29
ATOM     29  C   UNL     1      44.691   2.138   8.867  0.00  0.00    +0.000 C 
ATOM     30  C   UNL     1      44.796   3.209   7.787  0.00  0.00    +0.000 C 
ATOM     31  C   UNL     1      46.285   3.298   7.495  0.00  0.00    +0.000 C 
ATOM     32  C   UNL     1      46.823   1.923   7.865  0.00  0.00    +0.000 C 
ATOM     33  N   UNL     1      45.699   1.189   8.440  0.00  0.00    +0.000 NA
ATOM     34  H   UNL     1      45.990   0.577   9.191  0.00  0.00    +0.000 HD
ENDBRANCH  27  29
ENDBRANCH  26  27
ENDBRANCH  23  26
ENDBRANCH   4  23
TORSDOF 9
ENDMDL
MODEL 7
REMARK VINA RESULT:    -6.802      4.230      5.383
REMARK INTER + INTRA:         -11.086
REMARK INTER:                 -10.007
REMARK INTRA:                  -1.079
REMARK UNBOUND:                -0.904
REMARK  Name = 
REMARK  10 active torsions:
REMARK  status: ('A' for Active; 'I' for Inactive)
REMARK    1  A    between atoms: C_1  and  C_2
REMARK    2  A    between atoms: C_2  and  N_3
REMARK    3  A    between atoms: C_2  and  C_20
REMARK    4  A    between atoms: N_3  and  C_4
REMARK    5  A    between atoms: C_4  and  C_5
REMARK    6  A    between atoms: C_8  and  C_9
REMARK    7  A    between atoms: C_9  and  O_10
REMARK    8  A    between atoms: C_9  and  C_11
REMARK    9  A    between atoms: C_11  and  N_12
REMARK   10  A    between atoms: N_12  and  C_13
REMARK                            x       y       z     vdW  Elec       q    Type
REMARK                         _______ _______ _______ _____ _____    ______ ____
ROOT
ATOM      1  C   UNL     1      46.808   5.357  13.074  0.00  0.00    +0.000 A 
ATOM      2  C   UNL     1      46.255   4.074  13.222  0.00  0.00    +0.000 A 
ATOM      3  C   UNL     1      45.358   3.573  12.274  0.00  0.00    +0.000 A 
ATOM      4  C   UNL     1      44.991   4.335  11.156  0.00  0.00    +0.000 A 
ATOM      5  C   UNL     1      45.542   5.617  11.011  0.00  0.00    +0.000 A 
ATOM      6  C   UNL     1      46.444   6.118  11.953  0.00  0.00    +0.000 A 
ENDROOT
BRANCH   1   7
ATOM      7  C   UNL     1      47.755   5.932  14.109  0.00  0.00    +0.000 C 
BRANCH   7   8
ATOM      8  N   UNL     1      47.429   7.317  14.452  0.00  0.00    +0.000 NA
ATOM      9  H   UNL     1      46.979   7.754  13.650  0.00  0.00    +0.000 HD
BRANCH   8  11
ATOM     10  C   UNL     1      48.320   9.099  15.967  0.00  0.00    +0.000 C 
ATOM     11  C   UNL     1      48.609   8.130  14.814  0.00  0.00    +0.000 C 
BRANCH  11  12
ATOM     12  C   UNL     1      48.996   8.890  13.553  0.00  0.00    +0.000 A 
ATOM     13  C   UNL     1      48.088   9.599  12.780  0.00  0.00    +0.000 A 
ATOM     14  S   UNL     1      48.775  10.276  11.373  0.00  0.00    +0.000 S 
ATOM     15  C   UNL     1      50.310   9.648  11.755  0.00  0.00    +0.000 A 
ATOM     16  N   UNL     1      51.366   9.824  10.914  0.00  0.00    +0.000 NA
ATOM     17  C   UNL     1      52.470   9.297  11.333  0.00  0.00    +0.000 A 
ATOM     18  N   UNL     1      52.618   8.635  12.526  0.00  0.00    +0.000 N 
ATOM     19  C   UNL     1      51.590   8.474  13.429  0.00  0.00    +0.000 A 
ATOM     20  O   UNL     1      51.779   7.963  14.528  0.00  0.00    +0.000 OA
ATOM     21  C   UNL     1      50.311   8.984  12.968  0.00  0.00    +0.000 A 
ATOM     22  H   UNL     1      53.522   8.288  12.813  0.00  0.00    +0.000 HD
ENDBRANCH  11  12
ENDBRANCH   8  11
ENDBRANCH   7   8
ENDBRANCH   1   7
BRANCH   4  23
ATOM     23  C   UNL     1      44.022   3.768  10.136  0.00  0.00    +0.000 C 
BRANCH  23  24
ATOM     24  O   UNL     1      43.579   4.800   9.245  0.00  0.00    +0.000 OA
ATOM     25  H   UNL     1      44.263   4.919   8.566  0.00  0.00    +0.000 HD
ENDBRANCH  23  24
BRANCH  23  26
ATOM     26  C   UNL     1      44.605   2.613   9.283  0.00  0.00    +0.000 C 
BRANCH  26  27
ATOM     27  N   UNL     1      45.049   3.030   7.951  0.00  0.00    +0.000 NA
ATOM     28  H   UNL     1      44.531   3.841   7.629  0.00  0.00    +0.000 HD
BRANCH  27  29
ATOM     29  C   UNL     1      46.475   3.252   7.846  0.00  0.00    +0.000 C 
ATOM     30  C   UNL     1      47.220   1.980   7.456  0.00  0.00    +0.000 C 
ATOM     31  C   UNL     1      47.007   1.869   5.955  0.00  0.00    +0.000 C 
ATOM     32  C   UNL     1      46.782   3.304   5.501  0.00  0.00    +0.000 C 
ATOM     33  N   UNL     1      46.753   4.114   6.716  0.00  0.00    +0.000 NA
ATOM     34  H   UNL     1      46.094   4.879   6.647  0.00  0.00    +0.000 HD
ENDBRANCH  27  29
ENDBRANCH  26  27
ENDBRANCH  23  26
ENDBRANCH   4  23
TORSDOF 9
ENDMDL
MODEL 8
REMARK VINA RESULT:    -6.465      2.860      4.074
REMARK INTER + INTRA:         -10.581
REMARK INTER:                  -8.971
REMARK INTRA:                  -1.610
REMARK UNBOUND:                -0.904
REMARK  Name = 
REMARK  10 active torsions:
REMARK  status: ('A' for Active; 'I' for Inactive)
REMARK    1  A    between atoms: C_1  and  C_2
REMARK    2  A    between atoms: C_2  and  N_3
REMARK    3  A    between atoms: C_2  and  C_20
REMARK    4  A    between atoms: N_3  and  C_4
REMARK    5  A    between atoms: C_4  and  C_5
REMARK    6  A    between atoms: C_8  and  C_9
REMARK    7  A    between atoms: C_9  and  O_10
REMARK    8  A    between atoms: C_9  and  C_11
REMARK    9  A    between atoms: C_11  and  N_12
REMARK   10  A    between atoms: N_12  and  C_13
REMARK                            x       y       z     vdW  Elec       q    Type
REMARK                         _______ _______ _______ _____ _____    ______ ____
ROOT
ATOM      1  C   UNL     1      49.685   8.311  12.303  0.00  0.00    +0.000 A 
ATOM      2  C   UNL     1      49.259   6.974  12.381  0.00  0.00    +0.000 A 
ATOM      3  C   UNL     1      47.896   6.662  12.390  0.00  0.00    +0.000 A 
ATOM      4  C   UNL     1      46.926   7.672  12.320  0.00  0.00    +0.000 A 
ATOM      5  C   UNL     1      47.353   9.006  12.244  0.00  0.00    +0.000 A 
ATOM      6  C   UNL     1      48.714   9.320  12.229  0.00  0.00    +0.000 A 
ENDROOT
BRANCH   1   7
ATOM      7  C   UNL     1      51.158   8.672  12.327  0.00  0.00    +0.000 C 
BRANCH   7   8
ATOM      8  N   UNL     1      51.870   8.027  13.431  0.00  0.00    +0.000 NA
ATOM      9  H   UNL     1      51.631   7.038  13.439  0.00  0.00    +0.000 HD
BRANCH   8  11
ATOM     10  C   UNL     1      52.556   9.641  15.217  0.00  0.00    +0.000 C 
ATOM     11  C   UNL     1      51.538   8.589  14.757  0.00  0.00    +0.000 C 
BRANCH  11  12
ATOM     12  C   UNL     1      51.511   7.408  15.717  0.00  0.00    +0.000 A 
ATOM     13  C   UNL     1      52.655   6.784  16.193  0.00  0.00    +0.000 A 
ATOM     14  S   UNL     1      52.332   5.429  17.177  0.00  0.00    +0.000 S 
ATOM     15  C   UNL     1      50.651   5.637  17.005  0.00  0.00    +0.000 A 
ATOM     16  N   UNL     1      49.777   4.760  17.570  0.00  0.00    +0.000 NA
ATOM     17  C   UNL     1      48.534   5.043  17.361  0.00  0.00    +0.000 A 
ATOM     18  N   UNL     1      48.087   6.136  16.661  0.00  0.00    +0.000 N 
ATOM     19  C   UNL     1      48.932   7.075  16.112  0.00  0.00    +0.000 A 
ATOM     20  O   UNL     1      48.499   8.090  15.577  0.00  0.00    +0.000 OA
ATOM     21  C   UNL     1      50.342   6.758  16.257  0.00  0.00    +0.000 A 
ATOM     22  H   UNL     1      47.098   6.322  16.575  0.00  0.00    +0.000 HD
ENDBRANCH  11  12
ENDBRANCH   8  11
ENDBRANCH   7   8
ENDBRANCH   1   7
BRANCH   4  23
ATOM     23  C   UNL     1      45.452   7.310  12.323  0.00  0.00    +0.000 C 
BRANCH  23  24
ATOM     24  O   UNL     1      44.655   8.476  12.560  0.00  0.00    +0.000 OA
ATOM     25  H   UNL     1      43.932   8.478  11.911  0.00  0.00    +0.000 HD
ENDBRANCH  23  24
BRANCH  23  26
ATOM     26  C   UNL     1      44.960   6.648  11.011  0.00  0.00    +0.000 C 
BRANCH  26  27
ATOM     27  N   UNL     1      43.664   5.977  11.140  0.00  0.00    +0.000 NA
ATOM     28  H   UNL     1      42.911   6.565  10.795  0.00  0.00    +0.000 HD
BRANCH  27  29
ATOM     29  C   UNL     1      43.615   4.664  10.535  0.00  0.00    +0.000 C 
ATOM     30  C   UNL     1      44.969   3.966  10.582  0.00  0.00    +0.000 C 
ATOM     31  C   UNL     1      45.066   3.438  12.004  0.00  0.00    +0.000 C 
ATOM     32  C   UNL     1      43.618   3.258  12.437  0.00  0.00    +0.000 C 
ATOM     33  N   UNL     1      42.801   3.783  11.346  0.00  0.00    +0.000 NA
ATOM     34  H   UNL     1      41.964   4.239  11.685  0.00  0.00    +0.000 HD
ENDBRANCH  27  29
ENDBRANCH  26  27
ENDBRANCH  23  26
ENDBRANCH   4  23
TORSDOF 9
ENDMDL
MODEL 9
REMARK VINA RESULT:    -6.346      2.898      8.103
REMARK INTER + INTRA:         -10.403
REMARK INTER:                  -8.791
REMARK INTRA:                  -1.612
REMARK UNBOUND:                -0.904
REMARK  Name = 
REMARK  10 active torsions:
REMARK  status: ('A' for Active; 'I' for Inactive)
REMARK    1  A    between atoms: C_1  and  C_2
REMARK    2  A    between atoms: C_2  and  N_3
REMARK    3  A    between atoms: C_2  and  C_20
REMARK    4  A    between atoms: N_3  and  C_4
REMARK    5  A    between atoms: C_4  and  C_5
REMARK    6  A    between atoms: C_8  and  C_9
REMARK    7  A    between atoms: C_9  and  O_10
REMARK    8  A    between atoms: C_9  and  C_11
REMARK    9  A    between atoms: C_11  and  N_12
REMARK   10  A    between atoms: N_12  and  C_13
REMARK                            x       y       z     vdW  Elec       q    Type
REMARK                         _______ _______ _______ _____ _____    ______ ____
ROOT
ATOM      1  C   UNL     1      48.757   8.606  14.040  0.00  0.00    +0.000 A 
ATOM      2  C   UNL     1      48.274   8.679  15.357  0.00  0.00    +0.000 A 
ATOM      3  C   UNL     1      49.044   8.205  16.424  0.00  0.00    +0.000 A 
ATOM      4  C   UNL     1      50.313   7.651  16.205  0.00  0.00    +0.000 A 
ATOM      5  C   UNL     1      50.793   7.577  14.889  0.00  0.00    +0.000 A 
ATOM      6  C   UNL     1      50.028   8.054  13.822  0.00  0.00    +0.000 A 
ENDROOT
BRANCH   1   7
ATOM      7  C   UNL     1      47.923   9.081  12.866  0.00  0.00    +0.000 C 
BRANCH   7   8
ATOM      8  N   UNL     1      47.556   7.987  11.965  0.00  0.00    +0.000 NA
ATOM      9  H   UNL     1      47.799   8.254  11.014  0.00  0.00    +0.000 HD
BRANCH   8  11
ATOM     10  C   UNL     1      45.320   8.589  12.915  0.00  0.00    +0.000 C 
ATOM     11  C   UNL     1      46.117   7.654  11.995  0.00  0.00    +0.000 C 
BRANCH  11  12
ATOM     12  C   UNL     1      46.030   6.215  12.484  0.00  0.00    +0.000 A 
ATOM     13  C   UNL     1      47.033   5.594  13.215  0.00  0.00    +0.000 A 
ATOM     14  S   UNL     1      46.715   3.953  13.549  0.00  0.00    +0.000 S 
ATOM     15  C   UNL     1      45.224   4.018  12.731  0.00  0.00    +0.000 A 
ATOM     16  N   UNL     1      44.451   2.906  12.597  0.00  0.00    +0.000 NA
ATOM     17  C   UNL     1      43.346   3.103  11.957  0.00  0.00    +0.000 A 
ATOM     18  N   UNL     1      42.934   4.316  11.463  0.00  0.00    +0.000 N 
ATOM     19  C   UNL     1      43.660   5.477  11.615  0.00  0.00    +0.000 A 
ATOM     20  O   UNL     1      43.219   6.560  11.247  0.00  0.00    +0.000 OA
ATOM     21  C   UNL     1      44.946   5.289  12.263  0.00  0.00    +0.000 A 
ATOM     22  H   UNL     1      42.034   4.409  11.012  0.00  0.00    +0.000 HD
ENDBRANCH  11  12
ENDBRANCH   8  11
ENDBRANCH   7   8
ENDBRANCH   1   7
BRANCH   4  23
ATOM     23  C   UNL     1      51.135   7.151  17.379  0.00  0.00    +0.000 C 
BRANCH  23  24
ATOM     24  O   UNL     1      50.504   7.508  18.615  0.00  0.00    +0.000 OA
ATOM     25  H   UNL     1      50.678   6.797  19.253  0.00  0.00    +0.000 HD
ENDBRANCH  23  24
BRANCH  23  26
ATOM     26  C   UNL     1      51.367   5.618  17.382  0.00  0.00    +0.000 C 
BRANCH  26  27
ATOM     27  N   UNL     1      50.168   4.840  17.061  0.00  0.00    +0.000 NA
ATOM     28  H   UNL     1      50.373   4.112  16.385  0.00  0.00    +0.000 HD
BRANCH  27  29
ATOM     29  C   UNL     1      49.489   4.297  18.217  0.00  0.00    +0.000 C 
ATOM     30  C   UNL     1      48.105   4.910  18.403  0.00  0.00    +0.000 C 
ATOM     31  C   UNL     1      47.235   4.174  17.398  0.00  0.00    +0.000 C 
ATOM     32  C   UNL     1      47.928   2.832  17.213  0.00  0.00    +0.000 C 
ATOM     33  N   UNL     1      49.165   2.905  17.985  0.00  0.00    +0.000 NA
ATOM     34  H   UNL     1      49.923   2.406  17.535  0.00  0.00    +0.000 HD
ENDBRANCH  27  29
ENDBRANCH  26  27
ENDBRANCH  23  26
ENDBRANCH   4  23
TORSDOF 9
ENDMDL
