MODEL 1
REMARK VINA RESULT:    -6.788      0.000      0.000
REMARK INTER + INTRA:         -11.354
REMARK INTER:                  -9.963
REMARK INTRA:                  -1.391
REMARK UNBOUND:                -1.391
REMARK  Name = 
REMARK  9 active torsions:
REMARK  status: ('A' for Active; 'I' for Inactive)
REMARK    1  A    between atoms: C_1  and  C_2
REMARK    2  A    between atoms: C_2  and  N_3
REMARK    3  A    between atoms: N_3  and  C_4
REMARK    4  A    between atoms: N_3  and  C_25
REMARK    5  A    between atoms: C_4  and  C_5
REMARK    6  A    between atoms: C_8  and  C_9
REMARK    7  A    between atoms: N_11  and  C_12
REMARK    8  A    between atoms: C_12  and  C_13
REMARK    9  A    between atoms: C_25  and  C_26
REMARK                            x       y       z     vdW  Elec       q    Type
REMARK                         _______ _______ _______ _____ _____    ______ ____
ROOT
ATOM      1  C   UNL     1      46.749   5.684  12.770  0.00  0.00    +0.000 A 
ATOM      2  C   UNL     1      46.626   6.561  11.692  0.00  0.00    +0.000 A 
ATOM      3  C   UNL     1      47.673   7.442  11.414  0.00  0.00    +0.000 A 
ATOM      4  C   UNL     1      48.811   7.432  12.222  0.00  0.00    +0.000 A 
ATOM      5  C   UNL     1      48.824   6.585  13.314  0.00  0.00    +0.000 A 
ATOM      6  N   UNL     1      47.819   5.729  13.605  0.00  0.00    +0.000 NA
ENDROOT
BRANCH   4   7
ATOM      7  C   UNL     1      49.999   8.273  11.966  0.00  0.00    +0.000 C 
ATOM      8  O   UNL     1      49.933   9.489  12.092  0.00  0.00    +0.000 OA
ATOM      9  N   UNL     1      51.148   7.593  11.640  0.00  0.00    +0.000 N 
ATOM     10  H   UNL     1      51.194   6.609  11.899  0.00  0.00    +0.000 HD
BRANCH   9  11
ATOM     11  C   UNL     1      52.411   8.271  11.512  0.00  0.00    +0.000 C 
BRANCH  11  12
ATOM     12  C   UNL     1      52.713   8.568  10.070  0.00  0.00    +0.000 A 
ATOM     13  C   UNL     1      52.656   9.859   9.566  0.00  0.00    +0.000 A 
ATOM     14  S   UNL     1      52.991   9.955   7.897  0.00  0.00    +0.000 S 
ATOM     15  C   UNL     1      53.235   8.275   7.789  0.00  0.00    +0.000 A 
ATOM     16  N   UNL     1      53.520   7.683   6.600  0.00  0.00    +0.000 NA
ATOM     17  C   UNL     1      53.688   6.406   6.664  0.00  0.00    +0.000 A 
ATOM     18  N   UNL     1      53.619   5.665   7.819  0.00  0.00    +0.000 N 
ATOM     19  C   UNL     1      53.351   6.220   9.049  0.00  0.00    +0.000 A 
ATOM     20  O   UNL     1      53.318   5.532  10.064  0.00  0.00    +0.000 OA
ATOM     21  C   UNL     1      53.107   7.653   9.021  0.00  0.00    +0.000 A 
ATOM     22  H   UNL     1      53.788   4.669   7.800  0.00  0.00    +0.000 HD
ENDBRANCH  11  12
ENDBRANCH   9  11
ENDBRANCH   4   7
BRANCH   1  23
ATOM     23  C   UNL     1      45.677   4.626  13.018  0.00  0.00    +0.000 C 
BRANCH  23  24
ATOM     24  N   UNL     1      44.661   4.411  11.952  0.00  0.00    +0.000 NA
BRANCH  24  26
ATOM     25  C   UNL     1      42.373   5.503  11.952  0.00  0.00    +0.000 C 
ATOM     26  C   UNL     1      43.272   4.373  12.443  0.00  0.00    +0.000 C 
ENDBRANCH  24  26
BRANCH  24  27
ATOM     27  C   UNL     1      44.991   3.205  11.159  0.00  0.00    +0.000 C 
BRANCH  27  28
ATOM     28  C   UNL     1      44.216   3.071   9.823  0.00  0.00    +0.000 C 
ATOM     29  C   UNL     1      44.590   1.770   9.092  0.00  0.00    +0.000 C 
ATOM     30  C   UNL     1      45.978   1.835   8.459  0.00  0.00    +0.000 C 
ATOM     31  N   UNL     1      46.118   2.990   7.569  0.00  0.00    +0.000 NA
ATOM     32  C   UNL     1      45.847   4.247   8.276  0.00  0.00    +0.000 C 
ATOM     33  C   UNL     1      44.446   4.264   8.886  0.00  0.00    +0.000 C 
ATOM     34  H   UNL     1      45.445   2.897   6.808  0.00  0.00    +0.000 HD
ENDBRANCH  27  28
ENDBRANCH  24  27
ENDBRANCH  23  24
ENDBRANCH   1  23
TORSDOF 8
ENDMDL
MODEL 2
REMARK VINA RESULT:    -6.553      4.851      8.315
REMARK INTER + INTRA:         -11.009
REMARK INTER:                 -10.020
REMARK INTRA:                  -0.989
REMARK UNBOUND:                -1.391
REMARK  Name = 
REMARK  9 active torsions:
REMARK  status: ('A' for Active; 'I' for Inactive)
REMARK    1  A    between atoms: C_1  and  C_2
REMARK    2  A    between atoms: C_2  and  N_3
REMARK    3  A    between atoms: N_3  and  C_4
REMARK    4  A    between atoms: N_3  and  C_25
REMARK    5  A    between atoms: C_4  and  C_5
REMARK    6  A    between atoms: C_8  and  C_9
REMARK    7  A    between atoms: N_11  and  C_12
REMARK    8  A    between atoms: C_12  and  C_13
REMARK    9  A    between atoms: C_25  and  C_26
REMARK                            x       y       z     vdW  Elec       q    Type
REMARK                         _______ _______ _______ _____ _____    ______ ____
ROOT
ATOM      1  C   UNL     1      49.811   7.614  15.727  0.00  0.00    +0.000 A 
ATOM      2  C   UNL     1      48.897   8.652  15.913  0.00  0.00    +0.000 A 
ATOM      3  C   UNL     1      47.865   8.819  14.988  0.00  0.00    +0.000 A 
ATOM      4  C   UNL     1      47.776   7.953  13.897  0.00  0.00    +0.000 A 
ATOM      5  C   UNL     1      48.763   6.998  13.743  0.00  0.00    +0.000 A 
ATOM      6  N   UNL     1      49.773   6.823  14.623  0.00  0.00    +0.000 NA
ENDROOT
BRANCH   4   7
ATOM      7  C   UNL     1      46.681   8.003  12.905  0.00  0.00    +0.000 C 
ATOM      8  O   UNL     1      46.253   9.081  12.511  0.00  0.00    +0.000 OA
ATOM      9  N   UNL     1      46.241   6.785  12.445  0.00  0.00    +0.000 N 
ATOM     10  H   UNL     1      46.870   5.993  12.557  0.00  0.00    +0.000 HD
BRANCH   9  11
ATOM     11  C   UNL     1      45.288   6.688  11.372  0.00  0.00    +0.000 C 
BRANCH  11  12
ATOM     12  C   UNL     1      44.737   5.292  11.272  0.00  0.00    +0.000 A 
ATOM     13  C   UNL     1      43.936   4.754  12.269  0.00  0.00    +0.000 A 
ATOM     14  S   UNL     1      43.464   3.143  11.968  0.00  0.00    +0.000 S 
ATOM     15  C   UNL     1      44.304   3.110  10.489  0.00  0.00    +0.000 A 
ATOM     16  N   UNL     1      44.341   1.985   9.729  0.00  0.00    +0.000 NA
ATOM     17  C   UNL     1      45.006   2.103   8.631  0.00  0.00    +0.000 A 
ATOM     18  N   UNL     1      45.624   3.256   8.210  0.00  0.00    +0.000 N 
ATOM     19  C   UNL     1      45.601   4.424   8.935  0.00  0.00    +0.000 A 
ATOM     20  O   UNL     1      46.145   5.443   8.520  0.00  0.00    +0.000 OA
ATOM     21  C   UNL     1      44.901   4.329  10.206  0.00  0.00    +0.000 A 
ATOM     22  H   UNL     1      46.107   3.285   7.323  0.00  0.00    +0.000 HD
ENDBRANCH  11  12
ENDBRANCH   9  11
ENDBRANCH   4   7
BRANCH   1  23
ATOM     23  C   UNL     1      50.870   7.331  16.789  0.00  0.00    +0.000 C 
BRANCH  23  24
ATOM     24  N   UNL     1      50.503   6.412  17.900  0.00  0.00    +0.000 NA
BRANCH  24  26
ATOM     25  C   UNL     1      50.849   6.922  20.360  0.00  0.00    +0.000 C 
ATOM     26  C   UNL     1      51.439   6.440  19.039  0.00  0.00    +0.000 C 
ENDBRANCH  24  26
BRANCH  24  27
ATOM     27  C   UNL     1      50.307   5.036  17.391  0.00  0.00    +0.000 C 
BRANCH  27  28
ATOM     28  C   UNL     1      49.534   4.091  18.347  0.00  0.00    +0.000 C 
ATOM     29  C   UNL     1      49.240   2.739  17.673  0.00  0.00    +0.000 C 
ATOM     30  C   UNL     1      48.132   2.839  16.627  0.00  0.00    +0.000 C 
ATOM     31  N   UNL     1      46.908   3.421  17.182  0.00  0.00    +0.000 NA
ATOM     32  C   UNL     1      47.157   4.749  17.753  0.00  0.00    +0.000 C 
ATOM     33  C   UNL     1      48.221   4.705  18.849  0.00  0.00    +0.000 C 
ATOM     34  H   UNL     1      46.565   2.810  17.924  0.00  0.00    +0.000 HD
ENDBRANCH  27  28
ENDBRANCH  24  27
ENDBRANCH  23  24
ENDBRANCH   1  23
TORSDOF 8
ENDMDL
MODEL 3
REMARK VINA RESULT:    -6.506      1.495      1.861
REMARK INTER + INTRA:         -10.940
REMARK INTER:                  -9.603
REMARK INTRA:                  -1.337
REMARK UNBOUND:                -1.391
REMARK  Name = 
REMARK  9 active torsions:
REMARK  status: ('A' for Active; 'I' for Inactive)
REMARK    1  A    between atoms: C_1  and  C_2
REMARK    2  A    between atoms: C_2  and  N_3
REMARK    3  A    between atoms: N_3  and  C_4
REMARK    4  A    between atoms: N_3  and  C_25
REMARK    5  A    between atoms: C_4  and  C_5
REMARK    6  A    between atoms: C_8  and  C_9
REMARK    7  A    between atoms: N_11  and  C_12
REMARK    8  A    between atoms: C_12  and  C_13
REMARK    9  A    between atoms: C_25  and  C_26
REMARK                            x       y       z     vdW  Elec       q    Type
REMARK                         _______ _______ _______ _____ _____    ______ ____
ROOT
ATOM      1  C   UNL     1      46.855   5.758  12.728  0.00  0.00    +0.000 A 
ATOM      2  C   UNL     1      46.624   6.698  11.724  0.00  0.00    +0.000 A 
ATOM      3  C   UNL     1      47.640   7.596  11.391  0.00  0.00    +0.000 A 
ATOM      4  C   UNL     1      48.856   7.538  12.073  0.00  0.00    +0.000 A 
ATOM      5  C   UNL     1      48.979   6.627  13.105  0.00  0.00    +0.000 A 
ATOM      6  N   UNL     1      48.006   5.754  13.447  0.00  0.00    +0.000 NA
ENDROOT
BRANCH   4   7
ATOM      7  C   UNL     1      50.015   8.395  11.746  0.00  0.00    +0.000 C 
ATOM      8  O   UNL     1      49.972   9.600  11.958  0.00  0.00    +0.000 OA
ATOM      9  N   UNL     1      51.117   7.739  11.253  0.00  0.00    +0.000 N 
ATOM     10  H   UNL     1      51.184   6.740  11.439  0.00  0.00    +0.000 HD
BRANCH   9  11
ATOM     11  C   UNL     1      52.363   8.424  11.033  0.00  0.00    +0.000 C 
BRANCH  11  12
ATOM     12  C   UNL     1      53.509   7.451  10.999  0.00  0.00    +0.000 A 
ATOM     13  C   UNL     1      54.402   7.342  12.055  0.00  0.00    +0.000 A 
ATOM     14  S   UNL     1      55.647   6.210  11.780  0.00  0.00    +0.000 S 
ATOM     15  C   UNL     1      55.032   5.817  10.243  0.00  0.00    +0.000 A 
ATOM     16  N   UNL     1      55.666   4.921   9.443  0.00  0.00    +0.000 NA
ATOM     17  C   UNL     1      55.087   4.712   8.311  0.00  0.00    +0.000 A 
ATOM     18  N   UNL     1      53.914   5.304   7.910  0.00  0.00    +0.000 N 
ATOM     19  C   UNL     1      53.226   6.204   8.690  0.00  0.00    +0.000 A 
ATOM     20  O   UNL     1      52.169   6.698   8.312  0.00  0.00    +0.000 OA
ATOM     21  C   UNL     1      53.864   6.508   9.961  0.00  0.00    +0.000 A 
ATOM     22  H   UNL     1      53.501   5.073   7.018  0.00  0.00    +0.000 HD
ENDBRANCH  11  12
ENDBRANCH   9  11
ENDBRANCH   4   7
BRANCH   1  23
ATOM     23  C   UNL     1      45.809   4.685  13.023  0.00  0.00    +0.000 C 
BRANCH  23  24
ATOM     24  N   UNL     1      44.739   4.470  12.012  0.00  0.00    +0.000 NA
BRANCH  24  26
ATOM     25  C   UNL     1      42.433   5.524  11.999  0.00  0.00    +0.000 C 
ATOM     26  C   UNL     1      43.374   4.470  12.570  0.00  0.00    +0.000 C 
ENDBRANCH  24  26
BRANCH  24  27
ATOM     27  C   UNL     1      45.006   3.243  11.228  0.00  0.00    +0.000 C 
BRANCH  27  28
ATOM     28  C   UNL     1      44.210   3.129   9.903  0.00  0.00    +0.000 C 
ATOM     29  C   UNL     1      44.569   1.837   9.148  0.00  0.00    +0.000 C 
ATOM     30  C   UNL     1      45.947   1.907   8.495  0.00  0.00    +0.000 C 
ATOM     31  N   UNL     1      46.077   3.073   7.619  0.00  0.00    +0.000 NA
ATOM     32  C   UNL     1      45.820   4.321   8.346  0.00  0.00    +0.000 C 
ATOM     33  C   UNL     1      44.429   4.334   8.978  0.00  0.00    +0.000 C 
ATOM     34  H   UNL     1      45.391   2.992   6.866  0.00  0.00    +0.000 HD
ENDBRANCH  27  28
ENDBRANCH  24  27
ENDBRANCH  23  24
ENDBRANCH   1  23
TORSDOF 8
ENDMDL
MODEL 4
REMARK VINA RESULT:    -6.493      4.926      8.569
REMARK INTER + INTRA:         -10.921
REMARK INTER:                  -9.744
REMARK INTRA:                  -1.177
REMARK UNBOUND:                -1.391
REMARK  Name = 
REMARK  9 active torsions:
REMARK  status: ('A' for Active; 'I' for Inactive)
REMARK    1  A    between atoms: C_1  and  C_2
REMARK    2  A    between atoms: C_2  and  N_3
REMARK    3  A    between atoms: N_3  and  C_4
REMARK    4  A    between atoms: N_3  and  C_25
REMARK    5  A    between atoms: C_4  and  C_5
REMARK    6  A    between atoms: C_8  and  C_9
REMARK    7  A    between atoms: N_11  and  C_12
REMARK    8  A    between atoms: C_12  and  C_13
REMARK    9  A    between atoms: C_25  and  C_26
REMARK                            x       y       z     vdW  Elec       q    Type
REMARK                         _______ _______ _______ _____ _____    ______ ____
ROOT
ATOM      1  C   UNL     1      49.060   6.361  16.226  0.00  0.00    +0.000 A 
ATOM      2  C   UNL     1      49.349   7.468  15.428  0.00  0.00    +0.000 A 
ATOM      3  C   UNL     1      48.711   7.597  14.193  0.00  0.00    +0.000 A 
ATOM      4  C   UNL     1      47.807   6.616  13.782  0.00  0.00    +0.000 A 
ATOM      5  C   UNL     1      47.632   5.513  14.597  0.00  0.00    +0.000 A 
ATOM      6  N   UNL     1      48.244   5.365  15.793  0.00  0.00    +0.000 NA
ENDROOT
BRANCH   4   7
ATOM      7  C   UNL     1      47.029   6.698  12.528  0.00  0.00    +0.000 C 
ATOM      8  O   UNL     1      47.603   6.780  11.450  0.00  0.00    +0.000 OA
ATOM      9  N   UNL     1      45.664   6.626  12.672  0.00  0.00    +0.000 N 
ATOM     10  H   UNL     1      45.309   6.217  13.534  0.00  0.00    +0.000 HD
BRANCH   9  11
ATOM     11  C   UNL     1      44.793   6.543  11.530  0.00  0.00    +0.000 C 
BRANCH  11  12
ATOM     12  C   UNL     1      44.416   5.116  11.248  0.00  0.00    +0.000 A 
ATOM     13  C   UNL     1      43.563   4.410  12.084  0.00  0.00    +0.000 A 
ATOM     14  S   UNL     1      43.312   2.795  11.597  0.00  0.00    +0.000 S 
ATOM     15  C   UNL     1      44.326   2.983  10.244  0.00  0.00    +0.000 A 
ATOM     16  N   UNL     1      44.579   1.943   9.409  0.00  0.00    +0.000 NA
ATOM     17  C   UNL     1      45.357   2.227   8.421  0.00  0.00    +0.000 A 
ATOM     18  N   UNL     1      45.892   3.469   8.178  0.00  0.00    +0.000 N 
ATOM     19  C   UNL     1      45.651   4.558   8.984  0.00  0.00    +0.000 A 
ATOM     20  O   UNL     1      46.126   5.659   8.726  0.00  0.00    +0.000 OA
ATOM     21  C   UNL     1      44.815   4.276  10.140  0.00  0.00    +0.000 A 
ATOM     22  H   UNL     1      46.474   3.628   7.368  0.00  0.00    +0.000 HD
ENDBRANCH  11  12
ENDBRANCH   9  11
ENDBRANCH   4   7
BRANCH   1  23
ATOM     23  C   UNL     1      49.646   6.260  17.632  0.00  0.00    +0.000 C 
BRANCH  23  24
ATOM     24  N   UNL     1      49.254   5.087  18.460  0.00  0.00    +0.000 NA
BRANCH  24  26
ATOM     25  C   UNL     1      47.197   6.184  19.454  0.00  0.00    +0.000 C 
ATOM     26  C   UNL     1      48.504   5.434  19.680  0.00  0.00    +0.000 C 
ENDBRANCH  24  26
BRANCH  24  27
ATOM     27  C   UNL     1      50.438   4.253  18.767  0.00  0.00    +0.000 C 
BRANCH  27  28
ATOM     28  C   UNL     1      51.241   3.777  17.529  0.00  0.00    +0.000 C 
ATOM     29  C   UNL     1      50.737   2.412  17.030  0.00  0.00    +0.000 C 
ATOM     30  C   UNL     1      51.167   1.264  17.942  0.00  0.00    +0.000 C 
ATOM     31  N   UNL     1      52.617   1.242  18.144  0.00  0.00    +0.000 NA
ATOM     32  C   UNL     1      53.101   2.510  18.699  0.00  0.00    +0.000 C 
ATOM     33  C   UNL     1      52.749   3.695  17.800  0.00  0.00    +0.000 C 
ATOM     34  H   UNL     1      53.069   1.093  17.240  0.00  0.00    +0.000 HD
ENDBRANCH  27  28
ENDBRANCH  24  27
ENDBRANCH  23  24
ENDBRANCH   1  23
TORSDOF 8
ENDMDL
MODEL 5
REMARK VINA RESULT:    -6.486      3.978      5.177
REMARK INTER + INTRA:         -10.910
REMARK INTER:                  -9.758
REMARK INTRA:                  -1.153
REMARK UNBOUND:                -1.391
REMARK  Name = 
REMARK  9 active torsions:
REMARK  status: ('A' for Active; 'I' for Inactive)
REMARK    1  A    between atoms: C_1  and  C_2
REMARK    2  A    between atoms: C_2  and  N_3
REMARK    3  A    between atoms: N_3  and  C_4
REMARK    4  A    between atoms: N_3  and  C_25
REMARK    5  A    between atoms: C_4  and  C_5
REMARK    6  A    between atoms: C_8  and  C_9
REMARK    7  A    between atoms: N_11  and  C_12
REMARK    8  A    between atoms: C_12  and  C_13
REMARK    9  A    between atoms: C_25  and  C_26
REMARK                            x       y       z     vdW  Elec       q    Type
REMARK                         _______ _______ _______ _____ _____    ______ ____
ROOT
ATOM      1  C   UNL     1      46.266   5.376  12.882  0.00  0.00    +0.000 A 
ATOM      2  C   UNL     1      46.553   6.278  11.857  0.00  0.00    +0.000 A 
ATOM      3  C   UNL     1      47.644   7.138  11.999  0.00  0.00    +0.000 A 
ATOM      4  C   UNL     1      48.414   7.082  13.162  0.00  0.00    +0.000 A 
ATOM      5  C   UNL     1      48.019   6.213  14.161  0.00  0.00    +0.000 A 
ATOM      6  N   UNL     1      46.964   5.376  14.046  0.00  0.00    +0.000 NA
ENDROOT
BRANCH   4   7
ATOM      7  C   UNL     1      49.628   7.899  13.375  0.00  0.00    +0.000 C 
ATOM      8  O   UNL     1      49.796   8.932  12.740  0.00  0.00    +0.000 OA
ATOM      9  N   UNL     1      50.488   7.441  14.344  0.00  0.00    +0.000 N 
ATOM     10  H   UNL     1      50.107   6.798  15.036  0.00  0.00    +0.000 HD
BRANCH   9  11
ATOM     11  C   UNL     1      51.629   8.212  14.759  0.00  0.00    +0.000 C 
BRANCH  11  12
ATOM     12  C   UNL     1      52.662   7.331  15.404  0.00  0.00    +0.000 A 
ATOM     13  C   UNL     1      54.005   7.418  15.067  0.00  0.00    +0.000 A 
ATOM     14  S   UNL     1      54.989   6.293  15.888  0.00  0.00    +0.000 S 
ATOM     15  C   UNL     1      53.657   5.655  16.733  0.00  0.00    +0.000 A 
ATOM     16  N   UNL     1      53.806   4.614  17.592  0.00  0.00    +0.000 NA
ATOM     17  C   UNL     1      52.717   4.237  18.170  0.00  0.00    +0.000 A 
ATOM     18  N   UNL     1      51.488   4.823  17.983  0.00  0.00    +0.000 N 
ATOM     19  C   UNL     1      51.290   5.890  17.138  0.00  0.00    +0.000 A 
ATOM     20  O   UNL     1      50.183   6.405  17.010  0.00  0.00    +0.000 OA
ATOM     21  C   UNL     1      52.482   6.323  16.426  0.00  0.00    +0.000 A 
ATOM     22  H   UNL     1      50.679   4.493  18.490  0.00  0.00    +0.000 HD
ENDBRANCH  11  12
ENDBRANCH   9  11
ENDBRANCH   4   7
BRANCH   1  23
ATOM     23  C   UNL     1      45.160   4.340  12.697  0.00  0.00    +0.000 C 
BRANCH  23  24
ATOM     24  N   UNL     1      44.530   4.236  11.353  0.00  0.00    +0.000 NA
BRANCH  24  26
ATOM     25  C   UNL     1      42.371   5.459  11.873  0.00  0.00    +0.000 C 
ATOM     26  C   UNL     1      43.056   4.190  11.381  0.00  0.00    +0.000 C 
ENDBRANCH  24  26
BRANCH  24  27
ATOM     27  C   UNL     1      45.096   3.093  10.603  0.00  0.00    +0.000 C 
BRANCH  27  28
ATOM     28  C   UNL     1      44.450   2.837   9.217  0.00  0.00    +0.000 C 
ATOM     29  C   UNL     1      44.872   1.471   8.650  0.00  0.00    +0.000 C 
ATOM     30  C   UNL     1      46.316   1.468   8.150  0.00  0.00    +0.000 C 
ATOM     31  N   UNL     1      46.556   2.533   7.174  0.00  0.00    +0.000 NA
ATOM     32  C   UNL     1      46.238   3.852   7.731  0.00  0.00    +0.000 C 
ATOM     33  C   UNL     1      44.786   3.935   8.199  0.00  0.00    +0.000 C 
ATOM     34  H   UNL     1      45.957   2.372   6.363  0.00  0.00    +0.000 HD
ENDBRANCH  27  28
ENDBRANCH  24  27
ENDBRANCH  23  24
ENDBRANCH   1  23
TORSDOF 8
ENDMDL
MODEL 6
REMARK VINA RESULT:    -6.420      4.854      8.198
REMARK INTER + INTRA:         -10.813
REMARK INTER:                  -9.533
REMARK INTRA:                  -1.280
REMARK UNBOUND:                -1.391
REMARK  Name = 
REMARK  9 active torsions:
REMARK  status: ('A' for Active; 'I' for Inactive)
REMARK    1  A    between atoms: C_1  and  C_2
REMARK    2  A    between atoms: C_2  and  N_3
REMARK    3  A    between atoms: N_3  and  C_4
REMARK    4  A    between atoms: N_3  and  C_25
REMARK    5  A    between atoms: C_4  and  C_5
REMARK    6  A    between atoms: C_8  and  C_9
REMARK    7  A    between atoms: N_11  and  C_12
REMARK    8  A    between atoms: C_12  and  C_13
REMARK    9  A    between atoms: C_25  and  C_26
REMARK                            x       y       z     vdW  Elec       q    Type
REMARK                         _______ _______ _______ _____ _____    ______ ____
ROOT
ATOM      1  C   UNL     1      47.576   6.266  13.916  0.00  0.00    +0.000 A 
ATOM      2  C   UNL     1      47.259   4.915  14.061  0.00  0.00    +0.000 A 
ATOM      3  C   UNL     1      46.335   4.339  13.187  0.00  0.00    +0.000 A 
ATOM      4  C   UNL     1      45.746   5.127  12.197  0.00  0.00    +0.000 A 
ATOM      5  C   UNL     1      46.057   6.473  12.167  0.00  0.00    +0.000 A 
ATOM      6  N   UNL     1      46.944   7.051  13.007  0.00  0.00    +0.000 NA
ENDROOT
BRANCH   4   7
ATOM      7  C   UNL     1      44.813   4.595  11.181  0.00  0.00    +0.000 C 
ATOM      8  O   UNL     1      43.906   5.295  10.749  0.00  0.00    +0.000 OA
ATOM      9  N   UNL     1      45.076   3.318  10.745  0.00  0.00    +0.000 N 
ATOM     10  H   UNL     1      46.019   2.963  10.892  0.00  0.00    +0.000 HD
BRANCH   9  11
ATOM     11  C   UNL     1      44.343   2.731   9.655  0.00  0.00    +0.000 C 
BRANCH  11  12
ATOM     12  C   UNL     1      45.264   1.973   8.740  0.00  0.00    +0.000 A 
ATOM     13  C   UNL     1      45.230   0.589   8.658  0.00  0.00    +0.000 A 
ATOM     14  S   UNL     1      46.393  -0.060   7.593  0.00  0.00    +0.000 S 
ATOM     15  C   UNL     1      46.977   1.487   7.193  0.00  0.00    +0.000 A 
ATOM     16  N   UNL     1      48.023   1.642   6.341  0.00  0.00    +0.000 NA
ATOM     17  C   UNL     1      48.357   2.867   6.121  0.00  0.00    +0.000 A 
ATOM     18  N   UNL     1      47.723   3.960   6.662  0.00  0.00    +0.000 N 
ATOM     19  C   UNL     1      46.649   3.856   7.515  0.00  0.00    +0.000 A 
ATOM     20  O   UNL     1      46.092   4.853   7.963  0.00  0.00    +0.000 OA
ATOM     21  C   UNL     1      46.264   2.490   7.831  0.00  0.00    +0.000 A 
ATOM     22  H   UNL     1      48.021   4.896   6.424  0.00  0.00    +0.000 HD
ENDBRANCH  11  12
ENDBRANCH   9  11
ENDBRANCH   4   7
BRANCH   1  23
ATOM     23  C   UNL     1      48.675   6.888  14.775  0.00  0.00    +0.000 C 
BRANCH  23  24
ATOM     24  N   UNL     1      48.362   7.161  16.204  0.00  0.00    +0.000 NA
BRANCH  24  26
ATOM     25  C   UNL     1      47.985   9.457  17.211  0.00  0.00    +0.000 C 
ATOM     26  C   UNL     1      48.969   8.398  16.727  0.00  0.00    +0.000 C 
ENDBRANCH  24  26
BRANCH  24  27
ATOM     27  C   UNL     1      48.704   5.989  17.041  0.00  0.00    +0.000 C 
BRANCH  27  28
ATOM     28  C   UNL     1      47.500   5.320  17.751  0.00  0.00    +0.000 C 
ATOM     29  C   UNL     1      47.402   5.765  19.220  0.00  0.00    +0.000 C 
ATOM     30  C   UNL     1      48.474   5.121  20.097  0.00  0.00    +0.000 C 
ATOM     31  N   UNL     1      48.457   3.660  19.994  0.00  0.00    +0.000 NA
ATOM     32  C   UNL     1      48.635   3.219  18.607  0.00  0.00    +0.000 C 
ATOM     33  C   UNL     1      47.555   3.788  17.687  0.00  0.00    +0.000 C 
ATOM     34  H   UNL     1      47.553   3.321  20.327  0.00  0.00    +0.000 HD
ENDBRANCH  27  28
ENDBRANCH  24  27
ENDBRANCH  23  24
ENDBRANCH   1  23
TORSDOF 8
ENDMDL
MODEL 7
REMARK VINA RESULT:    -6.239      4.538      6.200
REMARK INTER + INTRA:         -10.548
REMARK INTER:                  -9.633
REMARK INTRA:                  -0.915
REMARK UNBOUND:                -1.391
REMARK  Name = 
REMARK  9 active torsions:
REMARK  status: ('A' for Active; 'I' for Inactive)
REMARK    1  A    between atoms: C_1  and  C_2
REMARK    2  A    between atoms: C_2  and  N_3
REMARK    3  A    between atoms: N_3  and  C_4
REMARK    4  A    between atoms: N_3  and  C_25
REMARK    5  A    between atoms: C_4  and  C_5
REMARK    6  A    between atoms: C_8  and  C_9
REMARK    7  A    between atoms: N_11  and  C_12
REMARK    8  A    between atoms: C_12  and  C_13
REMARK    9  A    between atoms: C_25  and  C_26
REMARK                            x       y       z     vdW  Elec       q    Type
REMARK                         _______ _______ _______ _____ _____    ______ ____
ROOT
ATOM      1  C   UNL     1      45.656   6.297  11.611  0.00  0.00    +0.000 A 
ATOM      2  C   UNL     1      46.885   6.737  11.118  0.00  0.00    +0.000 A 
ATOM      3  C   UNL     1      47.901   7.057  12.021  0.00  0.00    +0.000 A 
ATOM      4  C   UNL     1      47.662   6.939  13.391  0.00  0.00    +0.000 A 
ATOM      5  C   UNL     1      46.395   6.568  13.800  0.00  0.00    +0.000 A 
ATOM      6  N   UNL     1      45.397   6.259  12.943  0.00  0.00    +0.000 NA
ENDROOT
BRANCH   4   7
ATOM      7  C   UNL     1      48.693   7.184  14.421  0.00  0.00    +0.000 C 
ATOM      8  O   UNL     1      49.806   7.580  14.099  0.00  0.00    +0.000 OA
ATOM      9  N   UNL     1      48.292   6.985  15.721  0.00  0.00    +0.000 N 
ATOM     10  H   UNL     1      47.291   7.001  15.905  0.00  0.00    +0.000 HD
BRANCH   9  11
ATOM     11  C   UNL     1      49.142   7.329  16.829  0.00  0.00    +0.000 C 
BRANCH  11  12
ATOM     12  C   UNL     1      50.134   6.231  17.101  0.00  0.00    +0.000 A 
ATOM     13  C   UNL     1      51.474   6.504  17.331  0.00  0.00    +0.000 A 
ATOM     14  S   UNL     1      52.422   5.106  17.570  0.00  0.00    +0.000 S 
ATOM     15  C   UNL     1      51.073   4.087  17.386  0.00  0.00    +0.000 A 
ATOM     16  N   UNL     1      51.203   2.736  17.439  0.00  0.00    +0.000 NA
ATOM     17  C   UNL     1      50.099   2.086  17.292  0.00  0.00    +0.000 A 
ATOM     18  N   UNL     1      48.867   2.667  17.117  0.00  0.00    +0.000 N 
ATOM     19  C   UNL     1      48.680   4.029  17.074  0.00  0.00    +0.000 A 
ATOM     20  O   UNL     1      47.562   4.516  16.939  0.00  0.00    +0.000 OA
ATOM     21  C   UNL     1      49.904   4.806  17.189  0.00  0.00    +0.000 A 
ATOM     22  H   UNL     1      48.037   2.096  17.035  0.00  0.00    +0.000 HD
ENDBRANCH  11  12
ENDBRANCH   9  11
ENDBRANCH   4   7
BRANCH   1  23
ATOM     23  C   UNL     1      44.574   5.820  10.646  0.00  0.00    +0.000 C 
BRANCH  23  24
ATOM     24  N   UNL     1      44.669   4.424  10.140  0.00  0.00    +0.000 NA
BRANCH  24  26
ATOM     25  C   UNL     1      43.586   2.985  11.925  0.00  0.00    +0.000 C 
ATOM     26  C   UNL     1      44.855   3.412  11.196  0.00  0.00    +0.000 C 
ENDBRANCH  24  26
BRANCH  24  27
ATOM     27  C   UNL     1      45.714   4.321   9.097  0.00  0.00    +0.000 C 
BRANCH  27  28
ATOM     28  C   UNL     1      45.264   3.623   7.788  0.00  0.00    +0.000 C 
ATOM     29  C   UNL     1      44.827   2.172   8.054  0.00  0.00    +0.000 C 
ATOM     30  C   UNL     1      46.012   1.246   8.322  0.00  0.00    +0.000 C 
ATOM     31  N   UNL     1      47.003   1.302   7.245  0.00  0.00    +0.000 NA
ATOM     32  C   UNL     1      47.492   2.669   7.038  0.00  0.00    +0.000 C 
ATOM     33  C   UNL     1      46.355   3.635   6.709  0.00  0.00    +0.000 C 
ATOM     34  H   UNL     1      46.562   0.983   6.381  0.00  0.00    +0.000 HD
ENDBRANCH  27  28
ENDBRANCH  24  27
ENDBRANCH  23  24
ENDBRANCH   1  23
TORSDOF 8
ENDMDL
MODEL 8
REMARK VINA RESULT:    -5.978      5.053      7.108
REMARK INTER + INTRA:         -10.164
REMARK INTER:                  -9.110
REMARK INTRA:                  -1.054
REMARK UNBOUND:                -1.391
REMARK  Name = 
REMARK  9 active torsions:
REMARK  status: ('A' for Active; 'I' for Inactive)
REMARK    1  A    between atoms: C_1  and  C_2
REMARK    2  A    between atoms: C_2  and  N_3
REMARK    3  A    between atoms: N_3  and  C_4
REMARK    4  A    between atoms: N_3  and  C_25
REMARK    5  A    between atoms: C_4  and  C_5
REMARK    6  A    between atoms: C_8  and  C_9
REMARK    7  A    between atoms: N_11  and  C_12
REMARK    8  A    between atoms: C_12  and  C_13
REMARK    9  A    between atoms: C_25  and  C_26
REMARK                            x       y       z     vdW  Elec       q    Type
REMARK                         _______ _______ _______ _____ _____    ______ ____
ROOT
ATOM      1  C   UNL     1      47.968   7.113  13.126  0.00  0.00    +0.000 A 
ATOM      2  C   UNL     1      48.493   8.324  13.577  0.00  0.00    +0.000 A 
ATOM      3  C   UNL     1      49.103   8.371  14.833  0.00  0.00    +0.000 A 
ATOM      4  C   UNL     1      49.167   7.212  15.607  0.00  0.00    +0.000 A 
ATOM      5  C   UNL     1      48.558   6.071  15.120  0.00  0.00    +0.000 A 
ATOM      6  N   UNL     1      47.957   6.005  13.912  0.00  0.00    +0.000 NA
ENDROOT
BRANCH   4   7
ATOM      7  C   UNL     1      49.854   7.142  16.914  0.00  0.00    +0.000 C 
ATOM      8  O   UNL     1      50.340   8.151  17.411  0.00  0.00    +0.000 OA
ATOM      9  N   UNL     1      49.855   5.909  17.519  0.00  0.00    +0.000 N 
ATOM     10  H   UNL     1      49.149   5.242  17.213  0.00  0.00    +0.000 HD
BRANCH   9  11
ATOM     11  C   UNL     1      50.354   5.729  18.856  0.00  0.00    +0.000 C 
BRANCH  11  12
ATOM     12  C   UNL     1      51.489   4.743  18.874  0.00  0.00    +0.000 A 
ATOM     13  C   UNL     1      52.688   5.026  19.511  0.00  0.00    +0.000 A 
ATOM     14  S   UNL     1      53.848   3.784  19.365  0.00  0.00    +0.000 S 
ATOM     15  C   UNL     1      52.785   2.818  18.453  0.00  0.00    +0.000 A 
ATOM     16  N   UNL     1      53.178   1.612  17.965  0.00  0.00    +0.000 NA
ATOM     17  C   UNL     1      52.271   0.983  17.300  0.00  0.00    +0.000 A 
ATOM     18  N   UNL     1      50.992   1.442  17.093  0.00  0.00    +0.000 N 
ATOM     19  C   UNL     1      50.542   2.647  17.580  0.00  0.00    +0.000 A 
ATOM     20  O   UNL     1      49.387   3.017  17.397  0.00  0.00    +0.000 OA
ATOM     21  C   UNL     1      51.544   3.416  18.300  0.00  0.00    +0.000 A 
ATOM     22  H   UNL     1      50.323   0.883  16.583  0.00  0.00    +0.000 HD
ENDBRANCH  11  12
ENDBRANCH   9  11
ENDBRANCH   4   7
BRANCH   1  23
ATOM     23  C   UNL     1      47.411   7.004  11.709  0.00  0.00    +0.000 C 
BRANCH  23  24
ATOM     24  N   UNL     1      45.934   6.902  11.555  0.00  0.00    +0.000 NA
BRANCH  24  26
ATOM     25  C   UNL     1      45.074   9.193  12.217  0.00  0.00    +0.000 C 
ATOM     26  C   UNL     1      45.171   7.704  12.528  0.00  0.00    +0.000 C 
ENDBRANCH  24  26
BRANCH  24  27
ATOM     27  C   UNL     1      45.510   5.485  11.565  0.00  0.00    +0.000 C 
BRANCH  27  28
ATOM     28  C   UNL     1      44.104   5.220  10.966  0.00  0.00    +0.000 C 
ATOM     29  C   UNL     1      43.154   4.627  12.020  0.00  0.00    +0.000 C 
ATOM     30  C   UNL     1      43.467   3.164  12.330  0.00  0.00    +0.000 C 
ATOM     31  N   UNL     1      43.479   2.341  11.119  0.00  0.00    +0.000 NA
ATOM     32  C   UNL     1      44.445   2.846  10.137  0.00  0.00    +0.000 C 
ATOM     33  C   UNL     1      44.149   4.293   9.744  0.00  0.00    +0.000 C 
ATOM     34  H   UNL     1      42.549   2.366  10.699  0.00  0.00    +0.000 HD
ENDBRANCH  27  28
ENDBRANCH  24  27
ENDBRANCH  23  24
ENDBRANCH   1  23
TORSDOF 8
ENDMDL
MODEL 9
REMARK VINA RESULT:    -5.678      3.063      8.521
REMARK INTER + INTRA:          -9.724
REMARK INTER:                  -8.462
REMARK INTRA:                  -1.262
REMARK UNBOUND:                -1.391
REMARK  Name = 
REMARK  9 active torsions:
REMARK  status: ('A' for Active; 'I' for Inactive)
REMARK    1  A    between atoms: C_1  and  C_2
REMARK    2  A    between atoms: C_2  and  N_3
REMARK    3  A    between atoms: N_3  and  C_4
REMARK    4  A    between atoms: N_3  and  C_25
REMARK    5  A    between atoms: C_4  and  C_5
REMARK    6  A    between atoms: C_8  and  C_9
REMARK    7  A    between atoms: N_11  and  C_12
REMARK    8  A    between atoms: C_12  and  C_13
REMARK    9  A    between atoms: C_25  and  C_26
REMARK                            x       y       z     vdW  Elec       q    Type
REMARK                         _______ _______ _______ _____ _____    ______ ____
ROOT
ATOM      1  C   UNL     1      51.112   8.330  12.119  0.00  0.00    +0.000 A 
ATOM      2  C   UNL     1      50.448   7.706  11.062  0.00  0.00    +0.000 A 
ATOM      3  C   UNL     1      49.078   7.462  11.174  0.00  0.00    +0.000 A 
ATOM      4  C   UNL     1      48.407   7.837  12.339  0.00  0.00    +0.000 A 
ATOM      5  C   UNL     1      49.151   8.382  13.369  0.00  0.00    +0.000 A 
ATOM      6  N   UNL     1      50.478   8.621  13.284  0.00  0.00    +0.000 NA
ENDROOT
BRANCH   4   7
ATOM      7  C   UNL     1      46.948   7.688  12.524  0.00  0.00    +0.000 C 
ATOM      8  O   UNL     1      46.357   8.372  13.349  0.00  0.00    +0.000 OA
ATOM      9  N   UNL     1      46.334   6.787  11.687  0.00  0.00    +0.000 N 
ATOM     10  H   UNL     1      46.826   6.539  10.831  0.00  0.00    +0.000 HD
BRANCH   9  11
ATOM     11  C   UNL     1      44.902   6.650  11.654  0.00  0.00    +0.000 C 
BRANCH  11  12
ATOM     12  C   UNL     1      44.509   5.220  11.405  0.00  0.00    +0.000 A 
ATOM     13  C   UNL     1      43.711   4.520  12.298  0.00  0.00    +0.000 A 
ATOM     14  S   UNL     1      43.431   2.902  11.837  0.00  0.00    +0.000 S 
ATOM     15  C   UNL     1      44.358   3.082  10.422  0.00  0.00    +0.000 A 
ATOM     16  N   UNL     1      44.559   2.036   9.578  0.00  0.00    +0.000 NA
ATOM     17  C   UNL     1      45.273   2.315   8.542  0.00  0.00    +0.000 A 
ATOM     18  N   UNL     1      45.790   3.555   8.258  0.00  0.00    +0.000 N 
ATOM     19  C   UNL     1      45.600   4.649   9.071  0.00  0.00    +0.000 A 
ATOM     20  O   UNL     1      46.057   5.748   8.777  0.00  0.00    +0.000 OA
ATOM     21  C   UNL     1      44.838   4.374  10.279  0.00  0.00    +0.000 A 
ATOM     22  H   UNL     1      46.319   3.709   7.412  0.00  0.00    +0.000 HD
ENDBRANCH  11  12
ENDBRANCH   9  11
ENDBRANCH   4   7
BRANCH   1  23
ATOM     23  C   UNL     1      52.580   8.723  11.972  0.00  0.00    +0.000 C 
BRANCH  23  24
ATOM     24  N   UNL     1      53.469   7.796  11.220  0.00  0.00    +0.000 NA
BRANCH  24  26
ATOM     25  C   UNL     1      54.799   7.933  13.374  0.00  0.00    +0.000 C 
ATOM     26  C   UNL     1      54.619   7.301  11.999  0.00  0.00    +0.000 C 
ENDBRANCH  24  26
BRANCH  24  27
ATOM     27  C   UNL     1      53.900   8.413   9.946  0.00  0.00    +0.000 C 
BRANCH  27  28
ATOM     28  C   UNL     1      54.461   7.420   8.896  0.00  0.00    +0.000 C 
ATOM     29  C   UNL     1      54.805   8.137   7.580  0.00  0.00    +0.000 C 
ATOM     30  C   UNL     1      53.559   8.517   6.781  0.00  0.00    +0.000 C 
ATOM     31  N   UNL     1      52.696   7.361   6.533  0.00  0.00    +0.000 NA
ATOM     32  C   UNL     1      52.291   6.716   7.787  0.00  0.00    +0.000 C 
ATOM     33  C   UNL     1      53.497   6.261   8.607  0.00  0.00    +0.000 C 
ATOM     34  H   UNL     1      53.215   6.681   5.975  0.00  0.00    +0.000 HD
ENDBRANCH  27  28
ENDBRANCH  24  27
ENDBRANCH  23  24
ENDBRANCH   1  23
TORSDOF 8
ENDMDL
