MODEL 1
REMARK VINA RESULT:    -8.595      0.000      0.000
REMARK INTER + INTRA:         -13.352
REMARK INTER:                 -12.112
REMARK INTRA:                  -1.240
REMARK UNBOUND:                -1.240
REMARK  Name = 
REMARK  9 active torsions:
REMARK  status: ('A' for Active; 'I' for Inactive)
REMARK    1  A    between atoms: C_1  and  C_2
REMARK    2  A    between atoms: N_4  and  C_5
REMARK    3  A    between atoms: C_7  and  C_8
REMARK    4  A    between atoms: C_8  and  C_9
REMARK    5  A    between atoms: C_9  and  N_10
REMARK    6  A    between atoms: N_10  and  C_11
REMARK    7  A    between atoms: C_14  and  C_15
REMARK    8  A    between atoms: C_21  and  C_22
REMARK    9  A    between atoms: C_28  and  C_29
REMARK                            x       y       z     vdW  Elec       q    Type
REMARK                         _______ _______ _______ _____ _____    ______ ____
ROOT
ATOM      1  C   UNL     1      47.553   5.328  15.105  0.00  0.00    +0.000 A 
ATOM      2  C   UNL     1      46.633   4.481  14.461  0.00  0.00    +0.000 A 
ATOM      3  C   UNL     1      46.209   4.685  13.136  0.00  0.00    +0.000 A 
ATOM      4  C   UNL     1      46.751   5.747  12.411  0.00  0.00    +0.000 A 
ATOM      5  C   UNL     1      47.680   6.608  13.008  0.00  0.00    +0.000 A 
ATOM      6  C   UNL     1      48.081   6.373  14.338  0.00  0.00    +0.000 A 
ENDROOT
BRANCH   1  10
ATOM      7  C   UNL     1      48.995   2.116  16.463  0.00  0.00    +0.000 C 
ATOM      8  C   UNL     1      48.557   3.020  17.612  0.00  0.00    +0.000 C 
ATOM      9  C   UNL     1      47.415   3.988  17.236  0.00  0.00    +0.000 C 
ATOM     10  N   UNL     1      47.898   5.119  16.426  0.00  0.00    +0.000 N 
ATOM     11  C   UNL     1      49.072   5.799  17.007  0.00  0.00    +0.000 C 
ATOM     12  C   UNL     1      50.176   4.772  17.345  0.00  0.00    +0.000 C 
ATOM     13  C   UNL     1      51.324   5.446  18.086  0.00  0.00    +0.000 C 
ATOM     14  O   UNL     1      49.681   3.715  18.188  0.00  0.00    +0.000 OA
ENDBRANCH   1  10
BRANCH   5  15
ATOM     15  C   UNL     1      48.214   7.811  12.272  0.00  0.00    +0.000 C 
ATOM     16  F   UNL     1      47.241   8.654  11.828  0.00  0.00    +0.000 F 
ATOM     17  F   UNL     1      49.035   8.570  13.050  0.00  0.00    +0.000 F 
ATOM     18  F   UNL     1      48.947   7.475  11.174  0.00  0.00    +0.000 F 
ENDBRANCH   5  15
BRANCH   3  19
ATOM     19  C   UNL     1      45.177   3.773  12.514  0.00  0.00    +0.000 C 
BRANCH  19  20
ATOM     20  C   UNL     1      44.249   4.517  11.551  0.00  0.00    +0.000 C 
BRANCH  20  21
ATOM     21  N   UNL     1      43.786   3.619  10.482  0.00  0.00    +0.000 N 
ATOM     22  H   UNL     1      42.865   3.873  10.132  0.00  0.00    +0.000 HD
BRANCH  21  23
ATOM     23  C   UNL     1      44.680   3.347   9.432  0.00  0.00    +0.000 A 
ATOM     24  C   UNL     1      45.312   4.348   8.691  0.00  0.00    +0.000 A 
ATOM     25  C   UNL     1      46.242   4.029   7.704  0.00  0.00    +0.000 A 
ATOM     26  C   UNL     1      46.549   2.695   7.496  0.00  0.00    +0.000 A 
ATOM     27  N   UNL     1      46.004   1.675   8.215  0.00  0.00    +0.000 NA
ATOM     28  C   UNL     1      45.105   2.037   9.169  0.00  0.00    +0.000 A 
BRANCH  26  29
ATOM     29  C   UNL     1      47.547   2.334   6.440  0.00  0.00    +0.000 C 
ATOM     30  N   UNL     1      47.427   3.011   5.258  0.00  0.00    +0.000 N 
ATOM     31  O   UNL     1      48.417   1.487   6.611  0.00  0.00    +0.000 OA
ATOM     32  H   UNL     1      46.687   3.693   5.144  0.00  0.00    +0.000 HD
ATOM     33  H   UNL     1      48.056   2.797   4.500  0.00  0.00    +0.000 HD
ENDBRANCH  26  29
ENDBRANCH  21  23
ENDBRANCH  20  21
ENDBRANCH  19  20
ENDBRANCH   3  19
TORSDOF 7
ENDMDL
MODEL 2
REMARK VINA RESULT:    -8.245      3.053      4.519
REMARK INTER + INTRA:         -12.859
REMARK INTER:                 -11.647
REMARK INTRA:                  -1.212
REMARK UNBOUND:                -1.240
REMARK  Name = 
REMARK  9 active torsions:
REMARK  status: ('A' for Active; 'I' for Inactive)
REMARK    1  A    between atoms: C_1  and  C_2
REMARK    2  A    between atoms: N_4  and  C_5
REMARK    3  A    between atoms: C_7  and  C_8
REMARK    4  A    between atoms: C_8  and  C_9
REMARK    5  A    between atoms: C_9  and  N_10
REMARK    6  A    between atoms: N_10  and  C_11
REMARK    7  A    between atoms: C_14  and  C_15
REMARK    8  A    between atoms: C_21  and  C_22
REMARK    9  A    between atoms: C_28  and  C_29
REMARK                            x       y       z     vdW  Elec       q    Type
REMARK                         _______ _______ _______ _____ _____    ______ ____
ROOT
ATOM      1  C   UNL     1      46.775   7.027  12.687  0.00  0.00    +0.000 A 
ATOM      2  C   UNL     1      45.453   6.774  12.277  0.00  0.00    +0.000 A 
ATOM      3  C   UNL     1      44.687   5.713  12.791  0.00  0.00    +0.000 A 
ATOM      4  C   UNL     1      45.242   4.899  13.780  0.00  0.00    +0.000 A 
ATOM      5  C   UNL     1      46.551   5.122  14.227  0.00  0.00    +0.000 A 
ATOM      6  C   UNL     1      47.289   6.195  13.688  0.00  0.00    +0.000 A 
ENDROOT
BRANCH   1  10
ATOM      7  C   UNL     1      48.671   9.655  14.621  0.00  0.00    +0.000 C 
ATOM      8  C   UNL     1      48.566  10.060  13.153  0.00  0.00    +0.000 C 
ATOM      9  C   UNL     1      47.330   9.474  12.437  0.00  0.00    +0.000 C 
ATOM     10  N   UNL     1      47.507   8.048  12.113  0.00  0.00    +0.000 N 
ATOM     11  C   UNL     1      48.777   7.757  11.420  0.00  0.00    +0.000 C 
ATOM     12  C   UNL     1      49.967   8.361  12.198  0.00  0.00    +0.000 C 
ATOM     13  C   UNL     1      51.260   8.198  11.409  0.00  0.00    +0.000 C 
ATOM     14  O   UNL     1      49.785   9.768  12.443  0.00  0.00    +0.000 OA
ENDBRANCH   1  10
BRANCH   5  15
ATOM     15  C   UNL     1      47.199   4.203  15.231  0.00  0.00    +0.000 C 
ATOM     16  F   UNL     1      47.520   2.980  14.723  0.00  0.00    +0.000 F 
ATOM     17  F   UNL     1      48.361   4.715  15.724  0.00  0.00    +0.000 F 
ATOM     18  F   UNL     1      46.409   3.962  16.314  0.00  0.00    +0.000 F 
ENDBRANCH   5  15
BRANCH   3  19
ATOM     19  C   UNL     1      43.291   5.457  12.275  0.00  0.00    +0.000 C 
BRANCH  19  20
ATOM     20  C   UNL     1      43.250   4.327  11.244  0.00  0.00    +0.000 C 
BRANCH  20  21
ATOM     21  N   UNL     1      43.804   4.778   9.959  0.00  0.00    +0.000 N 
ATOM     22  H   UNL     1      44.166   5.728  10.003  0.00  0.00    +0.000 HD
BRANCH  21  23
ATOM     23  C   UNL     1      44.697   3.915   9.300  0.00  0.00    +0.000 A 
ATOM     24  C   UNL     1      44.638   2.524   9.417  0.00  0.00    +0.000 A 
ATOM     25  C   UNL     1      45.503   1.707   8.691  0.00  0.00    +0.000 A 
ATOM     26  C   UNL     1      46.404   2.307   7.828  0.00  0.00    +0.000 A 
ATOM     27  N   UNL     1      46.482   3.653   7.634  0.00  0.00    +0.000 NA
ATOM     28  C   UNL     1      45.614   4.407   8.361  0.00  0.00    +0.000 A 
BRANCH  26  29
ATOM     29  C   UNL     1      47.340   1.445   7.041  0.00  0.00    +0.000 C 
ATOM     30  N   UNL     1      48.394   2.094   6.460  0.00  0.00    +0.000 N 
ATOM     31  O   UNL     1      47.183   0.236   6.916  0.00  0.00    +0.000 OA
ATOM     32  H   UNL     1      48.486   3.097   6.570  0.00  0.00    +0.000 HD
ATOM     33  H   UNL     1      49.049   1.572   5.899  0.00  0.00    +0.000 HD
ENDBRANCH  26  29
ENDBRANCH  21  23
ENDBRANCH  20  21
ENDBRANCH  19  20
ENDBRANCH   3  19
TORSDOF 7
ENDMDL
MODEL 3
REMARK VINA RESULT:    -8.071      3.044      4.575
REMARK INTER + INTRA:         -12.614
REMARK INTER:                 -11.535
REMARK INTRA:                  -1.079
REMARK UNBOUND:                -1.240
REMARK  Name = 
REMARK  9 active torsions:
REMARK  status: ('A' for Active; 'I' for Inactive)
REMARK    1  A    between atoms: C_1  and  C_2
REMARK    2  A    between atoms: N_4  and  C_5
REMARK    3  A    between atoms: C_7  and  C_8
REMARK    4  A    between atoms: C_8  and  C_9
REMARK    5  A    between atoms: C_9  and  N_10
REMARK    6  A    between atoms: N_10  and  C_11
REMARK    7  A    between atoms: C_14  and  C_15
REMARK    8  A    between atoms: C_21  and  C_22
REMARK    9  A    between atoms: C_28  and  C_29
REMARK                            x       y       z     vdW  Elec       q    Type
REMARK                         _______ _______ _______ _____ _____    ______ ____
ROOT
ATOM      1  C   UNL     1      47.811   6.545  13.584  0.00  0.00    +0.000 A 
ATOM      2  C   UNL     1      46.723   6.082  12.822  0.00  0.00    +0.000 A 
ATOM      3  C   UNL     1      45.955   4.964  13.192  0.00  0.00    +0.000 A 
ATOM      4  C   UNL     1      46.255   4.306  14.386  0.00  0.00    +0.000 A 
ATOM      5  C   UNL     1      47.323   4.740  15.182  0.00  0.00    +0.000 A 
ATOM      6  C   UNL     1      48.071   5.864  14.779  0.00  0.00    +0.000 A 
ENDROOT
BRANCH   1  10
ATOM      7  C   UNL     1      46.399   9.735  12.146  0.00  0.00    +0.000 C 
ATOM      8  C   UNL     1      47.902   9.666  11.889  0.00  0.00    +0.000 C 
ATOM      9  C   UNL     1      48.450   8.224  11.816  0.00  0.00    +0.000 C 
ATOM     10  N   UNL     1      48.571   7.614  13.150  0.00  0.00    +0.000 N 
ATOM     11  C   UNL     1      49.287   8.463  14.122  0.00  0.00    +0.000 C 
ATOM     12  C   UNL     1      48.676   9.882  14.150  0.00  0.00    +0.000 C 
ATOM     13  C   UNL     1      49.507  10.804  15.034  0.00  0.00    +0.000 C 
ATOM     14  O   UNL     1      48.631  10.469  12.837  0.00  0.00    +0.000 OA
ENDBRANCH   1  10
BRANCH   5  15
ATOM     15  C   UNL     1      47.718   3.993  16.431  0.00  0.00    +0.000 C 
ATOM     16  F   UNL     1      46.776   4.038  17.414  0.00  0.00    +0.000 F 
ATOM     17  F   UNL     1      47.941   2.670  16.192  0.00  0.00    +0.000 F 
ATOM     18  F   UNL     1      48.865   4.469  16.991  0.00  0.00    +0.000 F 
ENDBRANCH   5  15
BRANCH   3  19
ATOM     19  C   UNL     1      44.830   4.481  12.308  0.00  0.00    +0.000 C 
BRANCH  19  20
ATOM     20  C   UNL     1      44.403   5.534  11.282  0.00  0.00    +0.000 C 
BRANCH  20  21
ATOM     21  N   UNL     1      43.890   4.890  10.063  0.00  0.00    +0.000 N 
ATOM     22  H   UNL     1      43.395   5.542   9.458  0.00  0.00    +0.000 HD
BRANCH  21  23
ATOM     23  C   UNL     1      44.779   4.081   9.335  0.00  0.00    +0.000 A 
ATOM     24  C   UNL     1      44.758   2.686   9.388  0.00  0.00    +0.000 A 
ATOM     25  C   UNL     1      45.616   1.926   8.596  0.00  0.00    +0.000 A 
ATOM     26  C   UNL     1      46.471   2.587   7.731  0.00  0.00    +0.000 A 
ATOM     27  N   UNL     1      46.510   3.942   7.598  0.00  0.00    +0.000 NA
ATOM     28  C   UNL     1      45.650   4.640   8.389  0.00  0.00    +0.000 A 
BRANCH  26  29
ATOM     29  C   UNL     1      47.400   1.787   6.873  0.00  0.00    +0.000 C 
ATOM     30  N   UNL     1      48.556   2.417   6.506  0.00  0.00    +0.000 N 
ATOM     31  O   UNL     1      47.150   0.641   6.515  0.00  0.00    +0.000 OA
ATOM     32  H   UNL     1      48.723   3.370   6.805  0.00  0.00    +0.000 HD
ATOM     33  H   UNL     1      49.213   1.938   5.910  0.00  0.00    +0.000 HD
ENDBRANCH  26  29
ENDBRANCH  21  23
ENDBRANCH  20  21
ENDBRANCH  19  20
ENDBRANCH   3  19
TORSDOF 7
ENDMDL
MODEL 4
REMARK VINA RESULT:    -7.523      2.950      3.978
REMARK INTER + INTRA:         -11.842
REMARK INTER:                 -10.862
REMARK INTRA:                  -0.981
REMARK UNBOUND:                -1.240
REMARK  Name = 
REMARK  9 active torsions:
REMARK  status: ('A' for Active; 'I' for Inactive)
REMARK    1  A    between atoms: C_1  and  C_2
REMARK    2  A    between atoms: N_4  and  C_5
REMARK    3  A    between atoms: C_7  and  C_8
REMARK    4  A    between atoms: C_8  and  C_9
REMARK    5  A    between atoms: C_9  and  N_10
REMARK    6  A    between atoms: N_10  and  C_11
REMARK    7  A    between atoms: C_14  and  C_15
REMARK    8  A    between atoms: C_21  and  C_22
REMARK    9  A    between atoms: C_28  and  C_29
REMARK                            x       y       z     vdW  Elec       q    Type
REMARK                         _______ _______ _______ _____ _____    ______ ____
ROOT
ATOM      1  C   UNL     1      46.593   8.565  12.658  0.00  0.00    +0.000 A 
ATOM      2  C   UNL     1      46.237   7.205  12.612  0.00  0.00    +0.000 A 
ATOM      3  C   UNL     1      45.056   6.748  12.003  0.00  0.00    +0.000 A 
ATOM      4  C   UNL     1      44.216   7.674  11.382  0.00  0.00    +0.000 A 
ATOM      5  C   UNL     1      44.537   9.037  11.393  0.00  0.00    +0.000 A 
ATOM      6  C   UNL     1      45.730   9.459  12.013  0.00  0.00    +0.000 A 
ENDROOT
BRANCH   1  10
ATOM      7  C   UNL     1      48.573   6.416  15.045  0.00  0.00    +0.000 C 
ATOM      8  C   UNL     1      49.022   7.870  15.155  0.00  0.00    +0.000 C 
ATOM      9  C   UNL     1      47.924   8.886  14.775  0.00  0.00    +0.000 C 
ATOM     10  N   UNL     1      47.737   8.973  13.317  0.00  0.00    +0.000 N 
ATOM     11  C   UNL     1      48.997   9.167  12.573  0.00  0.00    +0.000 C 
ATOM     12  C   UNL     1      50.040   8.109  12.995  0.00  0.00    +0.000 C 
ATOM     13  C   UNL     1      51.388   8.399  12.347  0.00  0.00    +0.000 C 
ATOM     14  O   UNL     1      50.241   8.097  14.420  0.00  0.00    +0.000 OA
ENDBRANCH   1  10
BRANCH   5  15
ATOM     15  C   UNL     1      43.603  10.063  10.802  0.00  0.00    +0.000 C 
ATOM     16  F   UNL     1      44.158  10.786   9.790  0.00  0.00    +0.000 F 
ATOM     17  F   UNL     1      42.479   9.497  10.279  0.00  0.00    +0.000 F 
ATOM     18  F   UNL     1      43.171  10.973  11.718  0.00  0.00    +0.000 F 
ENDBRANCH   5  15
BRANCH   3  19
ATOM     19  C   UNL     1      44.699   5.280  12.030  0.00  0.00    +0.000 C 
BRANCH  19  20
ATOM     20  C   UNL     1      43.621   4.924  11.004  0.00  0.00    +0.000 C 
BRANCH  20  21
ATOM     21  N   UNL     1      43.769   3.530  10.560  0.00  0.00    +0.000 N 
ATOM     22  H   UNL     1      42.872   3.069  10.420  0.00  0.00    +0.000 HD
BRANCH  21  23
ATOM     23  C   UNL     1      44.651   3.279   9.495  0.00  0.00    +0.000 A 
ATOM     24  C   UNL     1      45.227   4.295   8.729  0.00  0.00    +0.000 A 
ATOM     25  C   UNL     1      46.149   4.000   7.726  0.00  0.00    +0.000 A 
ATOM     26  C   UNL     1      46.503   2.676   7.527  0.00  0.00    +0.000 A 
ATOM     27  N   UNL     1      46.013   1.645   8.269  0.00  0.00    +0.000 NA
ATOM     28  C   UNL     1      45.120   1.984   9.238  0.00  0.00    +0.000 A 
BRANCH  26  29
ATOM     29  C   UNL     1      47.491   2.341   6.454  0.00  0.00    +0.000 C 
ATOM     30  N   UNL     1      47.455   3.141   5.346  0.00  0.00    +0.000 N 
ATOM     31  O   UNL     1      48.285   1.411   6.550  0.00  0.00    +0.000 OA
ATOM     32  H   UNL     1      46.775   3.890   5.292  0.00  0.00    +0.000 HD
ATOM     33  H   UNL     1      48.082   2.953   4.579  0.00  0.00    +0.000 HD
ENDBRANCH  26  29
ENDBRANCH  21  23
ENDBRANCH  20  21
ENDBRANCH  19  20
ENDBRANCH   3  19
TORSDOF 7
ENDMDL
MODEL 5
REMARK VINA RESULT:    -6.799      3.420      4.895
REMARK INTER + INTRA:         -10.822
REMARK INTER:                  -9.688
REMARK INTRA:                  -1.134
REMARK UNBOUND:                -1.240
REMARK  Name = 
REMARK  9 active torsions:
REMARK  status: ('A' for Active; 'I' for Inactive)
REMARK    1  A    between atoms: C_1  and  C_2
REMARK    2  A    between atoms: N_4  and  C_5
REMARK    3  A    between atoms: C_7  and  C_8
REMARK    4  A    between atoms: C_8  and  C_9
REMARK    5  A    between atoms: C_9  and  N_10
REMARK    6  A    between atoms: N_10  and  C_11
REMARK    7  A    between atoms: C_14  and  C_15
REMARK    8  A    between atoms: C_21  and  C_22
REMARK    9  A    between atoms: C_28  and  C_29
REMARK                            x       y       z     vdW  Elec       q    Type
REMARK                         _______ _______ _______ _____ _____    ______ ____
ROOT
ATOM      1  C   UNL     1      48.834   6.656  17.814  0.00  0.00    +0.000 A 
ATOM      2  C   UNL     1      49.007   6.836  16.430  0.00  0.00    +0.000 A 
ATOM      3  C   UNL     1      48.735   8.052  15.780  0.00  0.00    +0.000 A 
ATOM      4  C   UNL     1      48.313   9.143  16.542  0.00  0.00    +0.000 A 
ATOM      5  C   UNL     1      48.138   9.012  17.925  0.00  0.00    +0.000 A 
ATOM      6  C   UNL     1      48.420   7.777  18.542  0.00  0.00    +0.000 A 
ENDROOT
BRANCH   1  10
ATOM      7  C   UNL     1      47.794   3.349  16.325  0.00  0.00    +0.000 C 
ATOM      8  C   UNL     1      48.205   3.159  17.782  0.00  0.00    +0.000 C 
ATOM      9  C   UNL     1      48.011   4.423  18.647  0.00  0.00    +0.000 C 
ATOM     10  N   UNL     1      49.061   5.425  18.399  0.00  0.00    +0.000 N 
ATOM     11  C   UNL     1      50.428   4.873  18.469  0.00  0.00    +0.000 C 
ATOM     12  C   UNL     1      50.550   3.623  17.570  0.00  0.00    +0.000 C 
ATOM     13  C   UNL     1      51.910   2.961  17.757  0.00  0.00    +0.000 C 
ATOM     14  O   UNL     1      49.546   2.641  17.883  0.00  0.00    +0.000 OA
ENDBRANCH   1  10
BRANCH   5  15
ATOM     15  C   UNL     1      47.601  10.152  18.754  0.00  0.00    +0.000 C 
ATOM     16  F   UNL     1      46.549   9.802  19.546  0.00  0.00    +0.000 F 
ATOM     17  F   UNL     1      48.542  10.667  19.594  0.00  0.00    +0.000 F 
ATOM     18  F   UNL     1      47.166  11.197  17.997  0.00  0.00    +0.000 F 
ENDBRANCH   5  15
BRANCH   3  19
ATOM     19  C   UNL     1      48.890   8.171  14.283  0.00  0.00    +0.000 C 
BRANCH  19  20
ATOM     20  C   UNL     1      48.235   7.008  13.535  0.00  0.00    +0.000 C 
BRANCH  20  21
ATOM     21  N   UNL     1      46.769   7.116  13.592  0.00  0.00    +0.000 N 
ATOM     22  H   UNL     1      46.438   8.046  13.344  0.00  0.00    +0.000 HD
BRANCH  21  23
ATOM     23  C   UNL     1      46.022   6.113  12.952  0.00  0.00    +0.000 A 
ATOM     24  C   UNL     1      45.562   6.227  11.638  0.00  0.00    +0.000 A 
ATOM     25  C   UNL     1      44.881   5.177  11.024  0.00  0.00    +0.000 A 
ATOM     26  C   UNL     1      44.699   4.005  11.737  0.00  0.00    +0.000 A 
ATOM     27  N   UNL     1      45.162   3.813  13.004  0.00  0.00    +0.000 NA
ATOM     28  C   UNL     1      45.823   4.865  13.559  0.00  0.00    +0.000 A 
BRANCH  26  29
ATOM     29  C   UNL     1      43.971   2.867  11.094  0.00  0.00    +0.000 C 
ATOM     30  N   UNL     1      44.596   2.297  10.020  0.00  0.00    +0.000 N 
ATOM     31  O   UNL     1      42.883   2.465  11.493  0.00  0.00    +0.000 OA
ATOM     32  H   UNL     1      45.486   2.664   9.706  0.00  0.00    +0.000 HD
ATOM     33  H   UNL     1      44.146   1.539   9.530  0.00  0.00    +0.000 HD
ENDBRANCH  26  29
ENDBRANCH  21  23
ENDBRANCH  20  21
ENDBRANCH  19  20
ENDBRANCH   3  19
TORSDOF 7
ENDMDL
MODEL 6
REMARK VINA RESULT:    -6.726      2.907      8.132
REMARK INTER + INTRA:         -10.719
REMARK INTER:                  -9.742
REMARK INTRA:                  -0.977
REMARK UNBOUND:                -1.240
REMARK  Name = 
REMARK  9 active torsions:
REMARK  status: ('A' for Active; 'I' for Inactive)
REMARK    1  A    between atoms: C_1  and  C_2
REMARK    2  A    between atoms: N_4  and  C_5
REMARK    3  A    between atoms: C_7  and  C_8
REMARK    4  A    between atoms: C_8  and  C_9
REMARK    5  A    between atoms: C_9  and  N_10
REMARK    6  A    between atoms: N_10  and  C_11
REMARK    7  A    between atoms: C_14  and  C_15
REMARK    8  A    between atoms: C_21  and  C_22
REMARK    9  A    between atoms: C_28  and  C_29
REMARK                            x       y       z     vdW  Elec       q    Type
REMARK                         _______ _______ _______ _____ _____    ______ ____
ROOT
ATOM      1  C   UNL     1      46.106   5.053  13.218  0.00  0.00    +0.000 A 
ATOM      2  C   UNL     1      46.711   4.894  14.478  0.00  0.00    +0.000 A 
ATOM      3  C   UNL     1      47.775   5.700  14.919  0.00  0.00    +0.000 A 
ATOM      4  C   UNL     1      48.228   6.729  14.092  0.00  0.00    +0.000 A 
ATOM      5  C   UNL     1      47.647   6.931  12.834  0.00  0.00    +0.000 A 
ATOM      6  C   UNL     1      46.582   6.104  12.425  0.00  0.00    +0.000 A 
ENDROOT
BRANCH   1  10
ATOM      7  C   UNL     1      43.037   6.128  11.304  0.00  0.00    +0.000 C 
ATOM      8  C   UNL     1      42.856   4.705  11.826  0.00  0.00    +0.000 C 
ATOM      9  C   UNL     1      43.672   4.408  13.103  0.00  0.00    +0.000 C 
ATOM     10  N   UNL     1      45.099   4.201  12.807  0.00  0.00    +0.000 N 
ATOM     11  C   UNL     1      45.340   3.232  11.720  0.00  0.00    +0.000 C 
ATOM     12  C   UNL     1      44.503   3.601  10.475  0.00  0.00    +0.000 C 
ATOM     13  C   UNL     1      44.628   2.520   9.408  0.00  0.00    +0.000 C 
ATOM     14  O   UNL     1      43.105   3.733  10.792  0.00  0.00    +0.000 OA
ENDBRANCH   1  10
BRANCH   5  15
ATOM     15  C   UNL     1      48.177   7.981  11.890  0.00  0.00    +0.000 C 
ATOM     16  F   UNL     1      47.240   8.893  11.508  0.00  0.00    +0.000 F 
ATOM     17  F   UNL     1      49.194   8.703  12.440  0.00  0.00    +0.000 F 
ATOM     18  F   UNL     1      48.675   7.453  10.738  0.00  0.00    +0.000 F 
ENDBRANCH   5  15
BRANCH   3  19
ATOM     19  C   UNL     1      48.420   5.448  16.261  0.00  0.00    +0.000 C 
BRANCH  19  20
ATOM     20  C   UNL     1      47.978   4.121  16.880  0.00  0.00    +0.000 C 
BRANCH  20  21
ATOM     21  N   UNL     1      48.752   3.834  18.098  0.00  0.00    +0.000 N 
ATOM     22  H   UNL     1      48.197   3.364  18.810  0.00  0.00    +0.000 HD
BRANCH  21  23
ATOM     23  C   UNL     1      50.009   3.228  17.939  0.00  0.00    +0.000 A 
ATOM     24  C   UNL     1      51.187   3.769  18.458  0.00  0.00    +0.000 A 
ATOM     25  C   UNL     1      52.401   3.096  18.332  0.00  0.00    +0.000 A 
ATOM     26  C   UNL     1      52.406   1.862  17.704  0.00  0.00    +0.000 A 
ATOM     27  N   UNL     1      51.287   1.259  17.217  0.00  0.00    +0.000 NA
ATOM     28  C   UNL     1      50.126   1.953  17.368  0.00  0.00    +0.000 A 
BRANCH  26  29
ATOM     29  C   UNL     1      53.701   1.125  17.559  0.00  0.00    +0.000 C 
ATOM     30  N   UNL     1      53.876   0.065  18.404  0.00  0.00    +0.000 N 
ATOM     31  O   UNL     1      54.557   1.444  16.741  0.00  0.00    +0.000 OA
ATOM     32  H   UNL     1      53.155  -0.161  19.080  0.00  0.00    +0.000 HD
ATOM     33  H   UNL     1      54.737  -0.458  18.370  0.00  0.00    +0.000 HD
ENDBRANCH  26  29
ENDBRANCH  21  23
ENDBRANCH  20  21
ENDBRANCH  19  20
ENDBRANCH   3  19
TORSDOF 7
ENDMDL
MODEL 7
REMARK VINA RESULT:    -6.701      3.236      4.297
REMARK INTER + INTRA:         -10.683
REMARK INTER:                  -9.895
REMARK INTRA:                  -0.788
REMARK UNBOUND:                -1.240
REMARK  Name = 
REMARK  9 active torsions:
REMARK  status: ('A' for Active; 'I' for Inactive)
REMARK    1  A    between atoms: C_1  and  C_2
REMARK    2  A    between atoms: N_4  and  C_5
REMARK    3  A    between atoms: C_7  and  C_8
REMARK    4  A    between atoms: C_8  and  C_9
REMARK    5  A    between atoms: C_9  and  N_10
REMARK    6  A    between atoms: N_10  and  C_11
REMARK    7  A    between atoms: C_14  and  C_15
REMARK    8  A    between atoms: C_21  and  C_22
REMARK    9  A    between atoms: C_28  and  C_29
REMARK                            x       y       z     vdW  Elec       q    Type
REMARK                         _______ _______ _______ _____ _____    ______ ____
ROOT
ATOM      1  C   UNL     1      48.658   6.353  15.671  0.00  0.00    +0.000 A 
ATOM      2  C   UNL     1      47.890   6.204  14.501  0.00  0.00    +0.000 A 
ATOM      3  C   UNL     1      47.133   5.052  14.229  0.00  0.00    +0.000 A 
ATOM      4  C   UNL     1      47.105   4.026  15.174  0.00  0.00    +0.000 A 
ATOM      5  C   UNL     1      47.844   4.135  16.358  0.00  0.00    +0.000 A 
ATOM      6  C   UNL     1      48.592   5.305  16.597  0.00  0.00    +0.000 A 
ENDROOT
BRANCH   1  10
ATOM      7  C   UNL     1      52.306   6.309  16.634  0.00  0.00    +0.000 C 
ATOM      8  C   UNL     1      51.737   7.715  16.805  0.00  0.00    +0.000 C 
ATOM      9  C   UNL     1      50.219   7.736  17.087  0.00  0.00    +0.000 C 
ATOM     10  N   UNL     1      49.430   7.480  15.869  0.00  0.00    +0.000 N 
ATOM     11  C   UNL     1      49.824   8.325  14.726  0.00  0.00    +0.000 C 
ATOM     12  C   UNL     1      51.350   8.243  14.496  0.00  0.00    +0.000 C 
ATOM     13  C   UNL     1      51.782   9.231  13.419  0.00  0.00    +0.000 C 
ATOM     14  O   UNL     1      52.087   8.560  15.691  0.00  0.00    +0.000 OA
ENDBRANCH   1  10
BRANCH   5  15
ATOM     15  C   UNL     1      47.895   3.003  17.353  0.00  0.00    +0.000 C 
ATOM     16  F   UNL     1      46.670   2.495  17.664  0.00  0.00    +0.000 F 
ATOM     17  F   UNL     1      48.629   1.950  16.898  0.00  0.00    +0.000 F 
ATOM     18  F   UNL     1      48.460   3.367  18.538  0.00  0.00    +0.000 F 
ENDBRANCH   5  15
BRANCH   3  19
ATOM     19  C   UNL     1      46.370   4.927  12.931  0.00  0.00    +0.000 C 
BRANCH  19  20
ATOM     20  C   UNL     1      44.866   4.749  13.155  0.00  0.00    +0.000 C 
BRANCH  20  21
ATOM     21  N   UNL     1      44.135   4.885  11.886  0.00  0.00    +0.000 N 
ATOM     22  H   UNL     1      43.784   5.829  11.738  0.00  0.00    +0.000 HD
BRANCH  21  23
ATOM     23  C   UNL     1      44.746   4.373  10.729  0.00  0.00    +0.000 A 
ATOM     24  C   UNL     1      44.679   3.026  10.365  0.00  0.00    +0.000 A 
ATOM     25  C   UNL     1      45.244   2.578   9.173  0.00  0.00    +0.000 A 
ATOM     26  C   UNL     1      45.848   3.506   8.342  0.00  0.00    +0.000 A 
ATOM     27  N   UNL     1      45.907   4.838   8.616  0.00  0.00    +0.000 NA
ATOM     28  C   UNL     1      45.337   5.228   9.789  0.00  0.00    +0.000 A 
BRANCH  26  29
ATOM     29  C   UNL     1      46.460   3.042   7.057  0.00  0.00    +0.000 C 
ATOM     30  N   UNL     1      46.960   1.770   7.065  0.00  0.00    +0.000 N 
ATOM     31  O   UNL     1      46.518   3.749   6.056  0.00  0.00    +0.000 OA
ATOM     32  H   UNL     1      46.910   1.218   7.914  0.00  0.00    +0.000 HD
ATOM     33  H   UNL     1      47.404   1.407   6.236  0.00  0.00    +0.000 HD
ENDBRANCH  26  29
ENDBRANCH  21  23
ENDBRANCH  20  21
ENDBRANCH  19  20
ENDBRANCH   3  19
TORSDOF 7
ENDMDL
MODEL 8
REMARK VINA RESULT:    -6.613      4.319      7.411
REMARK INTER + INTRA:         -10.559
REMARK INTER:                  -9.443
REMARK INTRA:                  -1.116
REMARK UNBOUND:                -1.240
REMARK  Name = 
REMARK  9 active torsions:
REMARK  status: ('A' for Active; 'I' for Inactive)
REMARK    1  A    between atoms: C_1  and  C_2
REMARK    2  A    between atoms: N_4  and  C_5
REMARK    3  A    between atoms: C_7  and  C_8
REMARK    4  A    between atoms: C_8  and  C_9
REMARK    5  A    between atoms: C_9  and  N_10
REMARK    6  A    between atoms: N_10  and  C_11
REMARK    7  A    between atoms: C_14  and  C_15
REMARK    8  A    between atoms: C_21  and  C_22
REMARK    9  A    between atoms: C_28  and  C_29
REMARK                            x       y       z     vdW  Elec       q    Type
REMARK                         _______ _______ _______ _____ _____    ______ ____
ROOT
ATOM      1  C   UNL     1      46.022   4.667  13.175  0.00  0.00    +0.000 A 
ATOM      2  C   UNL     1      46.554   5.823  12.575  0.00  0.00    +0.000 A 
ATOM      3  C   UNL     1      47.540   6.614  13.189  0.00  0.00    +0.000 A 
ATOM      4  C   UNL     1      48.046   6.219  14.429  0.00  0.00    +0.000 A 
ATOM      5  C   UNL     1      47.554   5.068  15.057  0.00  0.00    +0.000 A 
ATOM      6  C   UNL     1      46.564   4.300  14.412  0.00  0.00    +0.000 A 
ENDROOT
BRANCH   1  10
ATOM      7  C   UNL     1      43.037   6.214  11.462  0.00  0.00    +0.000 C 
ATOM      8  C   UNL     1      42.814   4.716  11.651  0.00  0.00    +0.000 C 
ATOM      9  C   UNL     1      43.582   4.124  12.852  0.00  0.00    +0.000 C 
ATOM     10  N   UNL     1      45.014   3.952  12.557  0.00  0.00    +0.000 N 
ATOM     11  C   UNL     1      45.273   3.241  11.290  0.00  0.00    +0.000 C 
ATOM     12  C   UNL     1      44.483   3.897  10.134  0.00  0.00    +0.000 C 
ATOM     13  C   UNL     1      44.624   3.075   8.858  0.00  0.00    +0.000 C 
ATOM     14  O   UNL     1      43.079   3.991  10.434  0.00  0.00    +0.000 OA
ENDBRANCH   1  10
BRANCH   5  15
ATOM     15  C   UNL     1      48.024   4.671  16.434  0.00  0.00    +0.000 C 
ATOM     16  F   UNL     1      48.315   3.345  16.548  0.00  0.00    +0.000 F 
ATOM     17  F   UNL     1      49.156   5.333  16.804  0.00  0.00    +0.000 F 
ATOM     18  F   UNL     1      47.104   4.935  17.403  0.00  0.00    +0.000 F 
ENDBRANCH   5  15
BRANCH   3  19
ATOM     19  C   UNL     1      48.037   7.874  12.520  0.00  0.00    +0.000 C 
BRANCH  19  20
ATOM     20  C   UNL     1      47.908   9.102  13.424  0.00  0.00    +0.000 C 
BRANCH  20  21
ATOM     21  N   UNL     1      47.596  10.300  12.629  0.00  0.00    +0.000 N 
ATOM     22  H   UNL     1      48.324  10.517  11.951  0.00  0.00    +0.000 HD
BRANCH  21  23
ATOM     23  C   UNL     1      46.316  10.380  12.056  0.00  0.00    +0.000 A 
ATOM     24  C   UNL     1      46.020  11.196  10.962  0.00  0.00    +0.000 A 
ATOM     25  C   UNL     1      44.751  11.192  10.387  0.00  0.00    +0.000 A 
ATOM     26  C   UNL     1      43.797  10.335  10.907  0.00  0.00    +0.000 A 
ATOM     27  N   UNL     1      44.033   9.482  11.942  0.00  0.00    +0.000 NA
ATOM     28  C   UNL     1      45.288   9.520  12.467  0.00  0.00    +0.000 A 
BRANCH  26  29
ATOM     29  C   UNL     1      42.428  10.316  10.302  0.00  0.00    +0.000 C 
ATOM     30  N   UNL     1      41.486   9.606  10.993  0.00  0.00    +0.000 N 
ATOM     31  O   UNL     1      42.157  10.895   9.255  0.00  0.00    +0.000 OA
ATOM     32  H   UNL     1      41.746   9.126  11.846  0.00  0.00    +0.000 HD
ATOM     33  H   UNL     1      40.549   9.538  10.625  0.00  0.00    +0.000 HD
ENDBRANCH  26  29
ENDBRANCH  21  23
ENDBRANCH  20  21
ENDBRANCH  19  20
ENDBRANCH   3  19
TORSDOF 7
ENDMDL
MODEL 9
REMARK VINA RESULT:    -6.437      3.501      5.387
REMARK INTER + INTRA:         -10.311
REMARK INTER:                  -9.186
REMARK INTRA:                  -1.125
REMARK UNBOUND:                -1.240
REMARK  Name = 
REMARK  9 active torsions:
REMARK  status: ('A' for Active; 'I' for Inactive)
REMARK    1  A    between atoms: C_1  and  C_2
REMARK    2  A    between atoms: N_4  and  C_5
REMARK    3  A    between atoms: C_7  and  C_8
REMARK    4  A    between atoms: C_8  and  C_9
REMARK    5  A    between atoms: C_9  and  N_10
REMARK    6  A    between atoms: N_10  and  C_11
REMARK    7  A    between atoms: C_14  and  C_15
REMARK    8  A    between atoms: C_21  and  C_22
REMARK    9  A    between atoms: C_28  and  C_29
REMARK                            x       y       z     vdW  Elec       q    Type
REMARK                         _______ _______ _______ _____ _____    ______ ____
ROOT
ATOM      1  C   UNL     1      49.807   5.865  18.521  0.00  0.00    +0.000 A 
ATOM      2  C   UNL     1      49.557   6.850  17.548  0.00  0.00    +0.000 A 
ATOM      3  C   UNL     1      48.886   6.577  16.344  0.00  0.00    +0.000 A 
ATOM      4  C   UNL     1      48.410   5.284  16.116  0.00  0.00    +0.000 A 
ATOM      5  C   UNL     1      48.627   4.275  17.062  0.00  0.00    +0.000 A 
ATOM      6  C   UNL     1      49.304   4.586  18.258  0.00  0.00    +0.000 A 
ENDROOT
BRANCH   1  10
ATOM      7  C   UNL     1      52.911   4.048  19.660  0.00  0.00    +0.000 C 
ATOM      8  C   UNL     1      52.384   4.936  20.783  0.00  0.00    +0.000 C 
ATOM      9  C   UNL     1      50.863   5.189  20.708  0.00  0.00    +0.000 C 
ATOM     10  N   UNL     1      50.520   6.170  19.665  0.00  0.00    +0.000 N 
ATOM     11  C   UNL     1      51.315   7.410  19.740  0.00  0.00    +0.000 C 
ATOM     12  C   UNL     1      52.823   7.080  19.799  0.00  0.00    +0.000 C 
ATOM     13  C   UNL     1      53.639   8.346  20.033  0.00  0.00    +0.000 C 
ATOM     14  O   UNL     1      53.128   6.167  20.869  0.00  0.00    +0.000 OA
ENDBRANCH   1  10
BRANCH   5  15
ATOM     15  C   UNL     1      48.197   2.854  16.799  0.00  0.00    +0.000 C 
ATOM     16  F   UNL     1      47.238   2.407  17.656  0.00  0.00    +0.000 F 
ATOM     17  F   UNL     1      47.680   2.695  15.549  0.00  0.00    +0.000 F 
ATOM     18  F   UNL     1      49.225   1.965  16.893  0.00  0.00    +0.000 F 
ENDBRANCH   5  15
BRANCH   3  19
ATOM     19  C   UNL     1      48.691   7.663  15.312  0.00  0.00    +0.000 C 
BRANCH  19  20
ATOM     20  C   UNL     1      48.300   7.102  13.943  0.00  0.00    +0.000 C 
BRANCH  20  21
ATOM     21  N   UNL     1      46.878   7.354  13.667  0.00  0.00    +0.000 N 
ATOM     22  H   UNL     1      46.718   8.268  13.249  0.00  0.00    +0.000 HD
BRANCH  21  23
ATOM     23  C   UNL     1      46.160   6.348  12.998  0.00  0.00    +0.000 A 
ATOM     24  C   UNL     1      45.785   6.443  11.656  0.00  0.00    +0.000 A 
ATOM     25  C   UNL     1      45.132   5.390  11.018  0.00  0.00    +0.000 A 
ATOM     26  C   UNL     1      44.892   4.233  11.739  0.00  0.00    +0.000 A 
ATOM     27  N   UNL     1      45.272   4.058  13.035  0.00  0.00    +0.000 NA
ATOM     28  C   UNL     1      45.909   5.113  13.613  0.00  0.00    +0.000 A 
BRANCH  26  29
ATOM     29  C   UNL     1      44.193   3.091  11.070  0.00  0.00    +0.000 C 
ATOM     30  N   UNL     1      44.918   2.427  10.120  0.00  0.00    +0.000 N 
ATOM     31  O   UNL     1      43.043   2.764  11.346  0.00  0.00    +0.000 OA
ATOM     32  H   UNL     1      45.860   2.734   9.905  0.00  0.00    +0.000 HD
ATOM     33  H   UNL     1      44.495   1.662   9.619  0.00  0.00    +0.000 HD
ENDBRANCH  26  29
ENDBRANCH  21  23
ENDBRANCH  20  21
ENDBRANCH  19  20
ENDBRANCH   3  19
TORSDOF 7
ENDMDL
