MODEL 1
REMARK VINA RESULT:    -7.358      0.000      0.000
REMARK INTER + INTRA:          -8.389
REMARK INTER:                  -8.648
REMARK INTRA:                   0.259
REMARK UNBOUND:                 0.259
REMARK  Name = 
REMARK  5 active torsions:
REMARK  status: ('A' for Active; 'I' for Inactive)
REMARK    1  A    between atoms: C_1  and  C_2
REMARK    2  A    between atoms: C_2  and  C_3
REMARK    3  A    between atoms: C_2  and  N_4
REMARK    4  A    between atoms: C_2  and  C_14
REMARK    5  A    between atoms: C_8  and  C_9
REMARK                            x       y       z     vdW  Elec       q    Type
REMARK                         _______ _______ _______ _____ _____    ______ ____
ROOT
ATOM      1  N   UNL     1      43.742   3.681  10.958  0.00  0.00    +0.000 N 
ATOM      2  C   UNL     1      44.512   3.400   9.838  0.00  0.00    +0.000 A 
ATOM      3  C   UNL     1      44.908   2.078   9.588  0.00  0.00    +0.000 A 
ATOM      4  N   UNL     1      45.774   1.706   8.605  0.00  0.00    +0.000 NA
ATOM      5  C   UNL     1      46.224   2.738   7.844  0.00  0.00    +0.000 A 
ATOM      6  C   UNL     1      45.799   4.040   8.035  0.00  0.00    +0.000 A 
ATOM      7  N   UNL     1      44.937   4.386   9.027  0.00  0.00    +0.000 NA
ATOM      8  H   UNL     1      42.811   3.286  10.884  0.00  0.00    +0.000 HD
ENDROOT
BRANCH   5   9
ATOM      9  C   UNL     1      47.255   2.450   6.812  0.00  0.00    +0.000 C 
ATOM     10  N   UNL     1      47.273   3.293   5.733  0.00  0.00    +0.000 N 
ATOM     11  O   UNL     1      48.029   1.505   6.903  0.00  0.00    +0.000 OA
ATOM     12  H   UNL     1      46.593   4.043   5.665  0.00  0.00    +0.000 HD
ATOM     13  H   UNL     1      47.920   3.119   4.979  0.00  0.00    +0.000 HD
ENDBRANCH   5   9
BRANCH   1  15
ATOM     14  C   UNL     1      43.405   6.160  10.665  0.00  0.00    +0.000 C 
ATOM     15  C   UNL     1      43.758   5.001  11.624  0.00  0.00    +0.000 C 
ATOM     16  C   UNL     1      42.777   4.971  12.812  0.00  0.00    +0.000 C 
BRANCH  15  17
ATOM     17  C   UNL     1      45.219   5.270  12.067  0.00  0.00    +0.000 A 
ATOM     18  C   UNL     1      45.845   4.516  13.076  0.00  0.00    +0.000 A 
ATOM     19  C   UNL     1      47.122   4.845  13.541  0.00  0.00    +0.000 A 
ATOM     20  C   UNL     1      47.803   5.936  13.009  0.00  0.00    +0.000 A 
ATOM     21  C   UNL     1      47.208   6.701  12.012  0.00  0.00    +0.000 A 
ATOM     22  C   UNL     1      45.929   6.377  11.554  0.00  0.00    +0.000 A 
ENDBRANCH  15  17
ENDBRANCH   1  15
TORSDOF 3
ENDMDL
MODEL 2
REMARK VINA RESULT:    -6.659      3.496      5.903
REMARK INTER + INTRA:          -7.567
REMARK INTER:                  -8.000
REMARK INTRA:                   0.433
REMARK UNBOUND:                 0.259
REMARK  Name = 
REMARK  5 active torsions:
REMARK  status: ('A' for Active; 'I' for Inactive)
REMARK    1  A    between atoms: C_1  and  C_2
REMARK    2  A    between atoms: C_2  and  C_3
REMARK    3  A    between atoms: C_2  and  N_4
REMARK    4  A    between atoms: C_2  and  C_14
REMARK    5  A    between atoms: C_8  and  C_9
REMARK                            x       y       z     vdW  Elec       q    Type
REMARK                         _______ _______ _______ _____ _____    ______ ____
ROOT
ATOM      1  N   UNL     1      45.436   3.448  12.492  0.00  0.00    +0.000 N 
ATOM      2  C   UNL     1      46.333   4.390  12.976  0.00  0.00    +0.000 A 
ATOM      3  C   UNL     1      46.933   4.191  14.229  0.00  0.00    +0.000 A 
ATOM      4  N   UNL     1      47.715   5.108  14.862  0.00  0.00    +0.000 NA
ATOM      5  C   UNL     1      47.897   6.259  14.163  0.00  0.00    +0.000 A 
ATOM      6  C   UNL     1      47.365   6.452  12.900  0.00  0.00    +0.000 A 
ATOM      7  N   UNL     1      46.583   5.522  12.291  0.00  0.00    +0.000 NA
ATOM      8  H   UNL     1      45.894   2.572  12.270  0.00  0.00    +0.000 HD
ENDROOT
BRANCH   5   9
ATOM      9  C   UNL     1      48.649   7.364  14.814  0.00  0.00    +0.000 C 
ATOM     10  N   UNL     1      47.909   8.456  15.180  0.00  0.00    +0.000 N 
ATOM     11  O   UNL     1      49.860   7.317  14.995  0.00  0.00    +0.000 OA
ATOM     12  H   UNL     1      46.915   8.485  14.981  0.00  0.00    +0.000 HD
ATOM     13  H   UNL     1      48.372   9.256  15.584  0.00  0.00    +0.000 HD
ENDBRANCH   5   9
BRANCH   1  15
ATOM     14  C   UNL     1      43.133   2.855  11.661  0.00  0.00    +0.000 C 
ATOM     15  C   UNL     1      44.355   3.792  11.543  0.00  0.00    +0.000 C 
ATOM     16  C   UNL     1      43.933   5.256  11.780  0.00  0.00    +0.000 C 
BRANCH  15  17
ATOM     17  C   UNL     1      44.911   3.559  10.116  0.00  0.00    +0.000 A 
ATOM     18  C   UNL     1      45.141   2.268   9.605  0.00  0.00    +0.000 A 
ATOM     19  C   UNL     1      45.748   2.079   8.359  0.00  0.00    +0.000 A 
ATOM     20  C   UNL     1      46.140   3.175   7.596  0.00  0.00    +0.000 A 
ATOM     21  C   UNL     1      45.927   4.461   8.077  0.00  0.00    +0.000 A 
ATOM     22  C   UNL     1      45.328   4.650   9.324  0.00  0.00    +0.000 A 
ENDBRANCH  15  17
ENDBRANCH   1  15
TORSDOF 3
ENDMDL
MODEL 3
REMARK VINA RESULT:    -6.487      3.773      6.059
REMARK INTER + INTRA:          -7.365
REMARK INTER:                  -7.711
REMARK INTRA:                   0.346
REMARK UNBOUND:                 0.259
REMARK  Name = 
REMARK  5 active torsions:
REMARK  status: ('A' for Active; 'I' for Inactive)
REMARK    1  A    between atoms: C_1  and  C_2
REMARK    2  A    between atoms: C_2  and  C_3
REMARK    3  A    between atoms: C_2  and  N_4
REMARK    4  A    between atoms: C_2  and  C_14
REMARK    5  A    between atoms: C_8  and  C_9
REMARK                            x       y       z     vdW  Elec       q    Type
REMARK                         _______ _______ _______ _____ _____    ______ ____
ROOT
ATOM      1  N   UNL     1      45.337   4.263  12.686  0.00  0.00    +0.000 N 
ATOM      2  C   UNL     1      46.453   4.958  13.130  0.00  0.00    +0.000 A 
ATOM      3  C   UNL     1      46.893   4.785  14.452  0.00  0.00    +0.000 A 
ATOM      4  N   UNL     1      47.884   5.514  15.035  0.00  0.00    +0.000 NA
ATOM      5  C   UNL     1      48.452   6.435  14.213  0.00  0.00    +0.000 A 
ATOM      6  C   UNL     1      48.076   6.580  12.890  0.00  0.00    +0.000 A 
ATOM      7  N   UNL     1      47.079   5.843  12.332  0.00  0.00    +0.000 NA
ATOM      8  H   UNL     1      45.513   3.267  12.627  0.00  0.00    +0.000 HD
ENDROOT
BRANCH   5   9
ATOM      9  C   UNL     1      49.472   7.353  14.787  0.00  0.00    +0.000 C 
ATOM     10  N   UNL     1      50.532   7.651  13.974  0.00  0.00    +0.000 N 
ATOM     11  O   UNL     1      49.387   7.799  15.924  0.00  0.00    +0.000 OA
ATOM     12  H   UNL     1      50.597   7.234  13.052  0.00  0.00    +0.000 HD
ATOM     13  H   UNL     1      51.278   8.232  14.326  0.00  0.00    +0.000 HD
ENDBRANCH   5   9
BRANCH   1  15
ATOM     14  C   UNL     1      43.011   4.273  11.721  0.00  0.00    +0.000 C 
ATOM     15  C   UNL     1      44.471   4.763  11.597  0.00  0.00    +0.000 C 
ATOM     16  C   UNL     1      44.520   6.303  11.589  0.00  0.00    +0.000 C 
BRANCH  15  17
ATOM     17  C   UNL     1      44.997   4.145  10.276  0.00  0.00    +0.000 A 
ATOM     18  C   UNL     1      45.558   4.933   9.255  0.00  0.00    +0.000 A 
ATOM     19  C   UNL     1      45.923   4.374   8.026  0.00  0.00    +0.000 A 
ATOM     20  C   UNL     1      45.736   3.015   7.790  0.00  0.00    +0.000 A 
ATOM     21  C   UNL     1      45.182   2.213   8.781  0.00  0.00    +0.000 A 
ATOM     22  C   UNL     1      44.810   2.773  10.005  0.00  0.00    +0.000 A 
ENDBRANCH  15  17
ENDBRANCH   1  15
TORSDOF 3
ENDMDL
MODEL 4
REMARK VINA RESULT:    -6.011      3.153      4.964
REMARK INTER + INTRA:          -6.806
REMARK INTER:                  -6.973
REMARK INTRA:                   0.167
REMARK UNBOUND:                 0.259
REMARK  Name = 
REMARK  5 active torsions:
REMARK  status: ('A' for Active; 'I' for Inactive)
REMARK    1  A    between atoms: C_1  and  C_2
REMARK    2  A    between atoms: C_2  and  C_3
REMARK    3  A    between atoms: C_2  and  N_4
REMARK    4  A    between atoms: C_2  and  C_14
REMARK    5  A    between atoms: C_8  and  C_9
REMARK                            x       y       z     vdW  Elec       q    Type
REMARK                         _______ _______ _______ _____ _____    ______ ____
ROOT
ATOM      1  N   UNL     1      47.087   6.163  14.084  0.00  0.00    +0.000 N 
ATOM      2  C   UNL     1      46.285   5.627  13.086  0.00  0.00    +0.000 A 
ATOM      3  C   UNL     1      45.784   4.324  13.229  0.00  0.00    +0.000 A 
ATOM      4  N   UNL     1      45.108   3.649  12.259  0.00  0.00    +0.000 NA
ATOM      5  C   UNL     1      44.927   4.358  11.113  0.00  0.00    +0.000 A 
ATOM      6  C   UNL     1      45.359   5.664  10.974  0.00  0.00    +0.000 A 
ATOM      7  N   UNL     1      46.037   6.315  11.956  0.00  0.00    +0.000 NA
ATOM      8  H   UNL     1      46.566   6.325  14.939  0.00  0.00    +0.000 HD
ENDROOT
BRANCH   5   9
ATOM      9  C   UNL     1      44.292   3.671   9.957  0.00  0.00    +0.000 C 
ATOM     10  N   UNL     1      44.112   4.434   8.835  0.00  0.00    +0.000 N 
ATOM     11  O   UNL     1      43.930   2.502  10.006  0.00  0.00    +0.000 OA
ATOM     12  H   UNL     1      44.384   5.411   8.837  0.00  0.00    +0.000 HD
ATOM     13  H   UNL     1      43.644   4.035   8.034  0.00  0.00    +0.000 HD
ENDBRANCH   5   9
BRANCH   1  15
ATOM     14  C   UNL     1      48.827   7.005  12.470  0.00  0.00    +0.000 C 
ATOM     15  C   UNL     1      48.099   7.207  13.818  0.00  0.00    +0.000 C 
ATOM     16  C   UNL     1      47.411   8.586  13.853  0.00  0.00    +0.000 C 
BRANCH  15  17
ATOM     17  C   UNL     1      49.198   7.064  14.901  0.00  0.00    +0.000 A 
ATOM     18  C   UNL     1      50.487   7.602  14.733  0.00  0.00    +0.000 A 
ATOM     19  C   UNL     1      51.499   7.367  15.670  0.00  0.00    +0.000 A 
ATOM     20  C   UNL     1      51.246   6.587  16.795  0.00  0.00    +0.000 A 
ATOM     21  C   UNL     1      49.982   6.041  16.985  0.00  0.00    +0.000 A 
ATOM     22  C   UNL     1      48.974   6.270  16.045  0.00  0.00    +0.000 A 
ENDBRANCH  15  17
ENDBRANCH   1  15
TORSDOF 3
ENDMDL
MODEL 5
REMARK VINA RESULT:    -5.813      4.473      6.523
REMARK INTER + INTRA:          -6.573
REMARK INTER:                  -6.995
REMARK INTRA:                   0.422
REMARK UNBOUND:                 0.259
REMARK  Name = 
REMARK  5 active torsions:
REMARK  status: ('A' for Active; 'I' for Inactive)
REMARK    1  A    between atoms: C_1  and  C_2
REMARK    2  A    between atoms: C_2  and  C_3
REMARK    3  A    between atoms: C_2  and  N_4
REMARK    4  A    between atoms: C_2  and  C_14
REMARK    5  A    between atoms: C_8  and  C_9
REMARK                            x       y       z     vdW  Elec       q    Type
REMARK                         _______ _______ _______ _____ _____    ______ ____
ROOT
ATOM      1  N   UNL     1      48.098   5.495  15.925  0.00  0.00    +0.000 N 
ATOM      2  C   UNL     1      47.453   5.076  14.769  0.00  0.00    +0.000 A 
ATOM      3  C   UNL     1      47.009   6.031  13.843  0.00  0.00    +0.000 A 
ATOM      4  N   UNL     1      46.246   5.748  12.751  0.00  0.00    +0.000 NA
ATOM      5  C   UNL     1      45.956   4.428  12.604  0.00  0.00    +0.000 A 
ATOM      6  C   UNL     1      46.435   3.463  13.472  0.00  0.00    +0.000 A 
ATOM      7  N   UNL     1      47.191   3.772  14.559  0.00  0.00    +0.000 NA
ATOM      8  H   UNL     1      49.005   5.901  15.723  0.00  0.00    +0.000 HD
ENDROOT
BRANCH   5   9
ATOM      9  C   UNL     1      45.042   4.029  11.501  0.00  0.00    +0.000 C 
ATOM     10  N   UNL     1      44.930   2.684  11.275  0.00  0.00    +0.000 N 
ATOM     11  O   UNL     1      44.441   4.850  10.818  0.00  0.00    +0.000 OA
ATOM     12  H   UNL     1      45.471   2.030  11.830  0.00  0.00    +0.000 HD
ATOM     13  H   UNL     1      44.359   2.356  10.510  0.00  0.00    +0.000 HD
ENDBRANCH   5   9
BRANCH   1  15
ATOM     14  C   UNL     1      48.072   5.589  18.441  0.00  0.00    +0.000 C 
ATOM     15  C   UNL     1      48.083   4.705  17.175  0.00  0.00    +0.000 C 
ATOM     16  C   UNL     1      46.855   3.774  17.160  0.00  0.00    +0.000 C 
BRANCH  15  17
ATOM     17  C   UNL     1      49.420   3.923  17.236  0.00  0.00    +0.000 A 
ATOM     18  C   UNL     1      49.476   2.525  17.081  0.00  0.00    +0.000 A 
ATOM     19  C   UNL     1      50.674   1.824  17.251  0.00  0.00    +0.000 A 
ATOM     20  C   UNL     1      51.844   2.504  17.581  0.00  0.00    +0.000 A 
ATOM     21  C   UNL     1      51.817   3.884  17.741  0.00  0.00    +0.000 A 
ATOM     22  C   UNL     1      50.619   4.583  17.579  0.00  0.00    +0.000 A 
ENDBRANCH  15  17
ENDBRANCH   1  15
TORSDOF 3
ENDMDL
MODEL 6
REMARK VINA RESULT:    -5.516      4.475      6.759
REMARK INTER + INTRA:          -6.224
REMARK INTER:                  -6.433
REMARK INTRA:                   0.209
REMARK UNBOUND:                 0.259
REMARK  Name = 
REMARK  5 active torsions:
REMARK  status: ('A' for Active; 'I' for Inactive)
REMARK    1  A    between atoms: C_1  and  C_2
REMARK    2  A    between atoms: C_2  and  C_3
REMARK    3  A    between atoms: C_2  and  N_4
REMARK    4  A    between atoms: C_2  and  C_14
REMARK    5  A    between atoms: C_8  and  C_9
REMARK                            x       y       z     vdW  Elec       q    Type
REMARK                         _______ _______ _______ _____ _____    ______ ____
ROOT
ATOM      1  N   UNL     1      46.743   6.549  11.452  0.00  0.00    +0.000 N 
ATOM      2  C   UNL     1      47.667   7.092  12.334  0.00  0.00    +0.000 A 
ATOM      3  C   UNL     1      48.962   7.384  11.883  0.00  0.00    +0.000 A 
ATOM      4  N   UNL     1      49.986   7.785  12.687  0.00  0.00    +0.000 NA
ATOM      5  C   UNL     1      49.646   7.909  13.997  0.00  0.00    +0.000 A 
ATOM      6  C   UNL     1      48.359   7.684  14.453  0.00  0.00    +0.000 A 
ATOM      7  N   UNL     1      47.355   7.279  13.631  0.00  0.00    +0.000 NA
ATOM      8  H   UNL     1      46.475   7.211  10.733  0.00  0.00    +0.000 HD
ENDROOT
BRANCH   5   9
ATOM      9  C   UNL     1      50.718   8.239  14.972  0.00  0.00    +0.000 C 
ATOM     10  N   UNL     1      51.852   7.477  14.895  0.00  0.00    +0.000 N 
ATOM     11  O   UNL     1      50.593   9.124  15.810  0.00  0.00    +0.000 OA
ATOM     12  H   UNL     1      51.912   6.724  14.217  0.00  0.00    +0.000 HD
ATOM     13  H   UNL     1      52.596   7.625  15.561  0.00  0.00    +0.000 HD
ENDBRANCH   5   9
BRANCH   1  15
ATOM     14  C   UNL     1      45.978   4.831  13.128  0.00  0.00    +0.000 C 
ATOM     15  C   UNL     1      45.621   5.696  11.900  0.00  0.00    +0.000 C 
ATOM     16  C   UNL     1      44.408   6.595  12.212  0.00  0.00    +0.000 C 
BRANCH  15  17
ATOM     17  C   UNL     1      45.333   4.687  10.759  0.00  0.00    +0.000 A 
ATOM     18  C   UNL     1      45.621   4.977   9.413  0.00  0.00    +0.000 A 
ATOM     19  C   UNL     1      45.251   4.101   8.387  0.00  0.00    +0.000 A 
ATOM     20  C   UNL     1      44.584   2.916   8.683  0.00  0.00    +0.000 A 
ATOM     21  C   UNL     1      44.284   2.605  10.004  0.00  0.00    +0.000 A 
ATOM     22  C   UNL     1      44.646   3.483  11.028  0.00  0.00    +0.000 A 
ENDBRANCH  15  17
ENDBRANCH   1  15
TORSDOF 3
ENDMDL
MODEL 7
REMARK VINA RESULT:    -5.504      3.734      5.517
REMARK INTER + INTRA:          -6.210
REMARK INTER:                  -6.600
REMARK INTRA:                   0.390
REMARK UNBOUND:                 0.259
REMARK  Name = 
REMARK  5 active torsions:
REMARK  status: ('A' for Active; 'I' for Inactive)
REMARK    1  A    between atoms: C_1  and  C_2
REMARK    2  A    between atoms: C_2  and  C_3
REMARK    3  A    between atoms: C_2  and  N_4
REMARK    4  A    between atoms: C_2  and  C_14
REMARK    5  A    between atoms: C_8  and  C_9
REMARK                            x       y       z     vdW  Elec       q    Type
REMARK                         _______ _______ _______ _____ _____    ______ ____
ROOT
ATOM      1  N   UNL     1      47.731   6.592  13.900  0.00  0.00    +0.000 N 
ATOM      2  C   UNL     1      46.636   5.828  13.520  0.00  0.00    +0.000 A 
ATOM      3  C   UNL     1      46.731   4.428  13.541  0.00  0.00    +0.000 A 
ATOM      4  N   UNL     1      45.777   3.584  13.061  0.00  0.00    +0.000 NA
ATOM      5  C   UNL     1      44.680   4.214  12.563  0.00  0.00    +0.000 A 
ATOM      6  C   UNL     1      44.540   5.590  12.587  0.00  0.00    +0.000 A 
ATOM      7  N   UNL     1      45.510   6.412  13.069  0.00  0.00    +0.000 NA
ATOM      8  H   UNL     1      47.929   6.498  14.890  0.00  0.00    +0.000 HD
ENDROOT
BRANCH   5   9
ATOM      9  C   UNL     1      43.627   3.384  11.919  0.00  0.00    +0.000 C 
ATOM     10  N   UNL     1      43.589   2.069  12.295  0.00  0.00    +0.000 N 
ATOM     11  O   UNL     1      42.854   3.839  11.084  0.00  0.00    +0.000 OA
ATOM     12  H   UNL     1      44.268   1.711  12.958  0.00  0.00    +0.000 HD
ATOM     13  H   UNL     1      42.925   1.447  11.857  0.00  0.00    +0.000 HD
ENDBRANCH   5   9
BRANCH   1  15
ATOM     14  C   UNL     1      47.135   8.276  12.125  0.00  0.00    +0.000 C 
ATOM     15  C   UNL     1      47.961   7.961  13.391  0.00  0.00    +0.000 C 
ATOM     16  C   UNL     1      47.632   8.969  14.511  0.00  0.00    +0.000 C 
BRANCH  15  17
ATOM     17  C   UNL     1      49.442   8.037  12.941  0.00  0.00    +0.000 A 
ATOM     18  C   UNL     1      50.440   8.610  13.750  0.00  0.00    +0.000 A 
ATOM     19  C   UNL     1      51.749   8.772  13.282  0.00  0.00    +0.000 A 
ATOM     20  C   UNL     1      52.088   8.366  11.994  0.00  0.00    +0.000 A 
ATOM     21  C   UNL     1      51.122   7.799  11.173  0.00  0.00    +0.000 A 
ATOM     22  C   UNL     1      49.813   7.644  11.638  0.00  0.00    +0.000 A 
ENDBRANCH  15  17
ENDBRANCH   1  15
TORSDOF 3
ENDMDL
MODEL 8
REMARK VINA RESULT:    -5.390      5.143      7.099
REMARK INTER + INTRA:          -6.076
REMARK INTER:                  -6.400
REMARK INTRA:                   0.324
REMARK UNBOUND:                 0.259
REMARK  Name = 
REMARK  5 active torsions:
REMARK  status: ('A' for Active; 'I' for Inactive)
REMARK    1  A    between atoms: C_1  and  C_2
REMARK    2  A    between atoms: C_2  and  C_3
REMARK    3  A    between atoms: C_2  and  N_4
REMARK    4  A    between atoms: C_2  and  C_14
REMARK    5  A    between atoms: C_8  and  C_9
REMARK                            x       y       z     vdW  Elec       q    Type
REMARK                         _______ _______ _______ _____ _____    ______ ____
ROOT
ATOM      1  N   UNL     1      47.334   6.861  12.649  0.00  0.00    +0.000 N 
ATOM      2  C   UNL     1      47.482   5.976  13.707  0.00  0.00    +0.000 A 
ATOM      3  C   UNL     1      46.675   4.830  13.766  0.00  0.00    +0.000 A 
ATOM      4  N   UNL     1      46.634   3.970  14.821  0.00  0.00    +0.000 NA
ATOM      5  C   UNL     1      47.476   4.298  15.836  0.00  0.00    +0.000 A 
ATOM      6  C   UNL     1      48.324   5.389  15.773  0.00  0.00    +0.000 A 
ATOM      7  N   UNL     1      48.343   6.236  14.710  0.00  0.00    +0.000 NA
ATOM      8  H   UNL     1      47.637   6.453  11.772  0.00  0.00    +0.000 HD
ENDROOT
BRANCH   5   9
ATOM      9  C   UNL     1      47.429   3.481  17.078  0.00  0.00    +0.000 C 
ATOM     10  N   UNL     1      48.624   3.304  17.722  0.00  0.00    +0.000 N 
ATOM     11  O   UNL     1      46.393   2.975  17.491  0.00  0.00    +0.000 OA
ATOM     12  H   UNL     1      49.473   3.700  17.334  0.00  0.00    +0.000 HD
ATOM     13  H   UNL     1      48.662   2.720  18.544  0.00  0.00    +0.000 HD
ENDBRANCH   5   9
BRANCH   1  15
ATOM     14  C   UNL     1      47.683   8.796  14.224  0.00  0.00    +0.000 C 
ATOM     15  C   UNL     1      47.664   8.298  12.761  0.00  0.00    +0.000 C 
ATOM     16  C   UNL     1      49.029   8.549  12.092  0.00  0.00    +0.000 C 
BRANCH  15  17
ATOM     17  C   UNL     1      46.515   9.084  12.079  0.00  0.00    +0.000 A 
ATOM     18  C   UNL     1      46.579  10.475  11.874  0.00  0.00    +0.000 A 
ATOM     19  C   UNL     1      45.488  11.183  11.360  0.00  0.00    +0.000 A 
ATOM     20  C   UNL     1      44.308  10.518  11.040  0.00  0.00    +0.000 A 
ATOM     21  C   UNL     1      44.216   9.145  11.234  0.00  0.00    +0.000 A 
ATOM     22  C   UNL     1      45.303   8.439  11.755  0.00  0.00    +0.000 A 
ENDBRANCH  15  17
ENDBRANCH   1  15
TORSDOF 3
ENDMDL
MODEL 9
REMARK VINA RESULT:    -4.968      6.813      9.122
REMARK INTER + INTRA:          -5.580
REMARK INTER:                  -5.844
REMARK INTRA:                   0.264
REMARK UNBOUND:                 0.259
REMARK  Name = 
REMARK  5 active torsions:
REMARK  status: ('A' for Active; 'I' for Inactive)
REMARK    1  A    between atoms: C_1  and  C_2
REMARK    2  A    between atoms: C_2  and  C_3
REMARK    3  A    between atoms: C_2  and  N_4
REMARK    4  A    between atoms: C_2  and  C_14
REMARK    5  A    between atoms: C_8  and  C_9
REMARK                            x       y       z     vdW  Elec       q    Type
REMARK                         _______ _______ _______ _____ _____    ______ ____
ROOT
ATOM      1  N   UNL     1      50.022   3.218  18.012  0.00  0.00    +0.000 N 
ATOM      2  C   UNL     1      49.048   3.613  17.106  0.00  0.00    +0.000 A 
ATOM      3  C   UNL     1      48.388   2.644  16.335  0.00  0.00    +0.000 A 
ATOM      4  N   UNL     1      47.522   2.924  15.323  0.00  0.00    +0.000 NA
ATOM      5  C   UNL     1      47.316   4.252  15.121  0.00  0.00    +0.000 A 
ATOM      6  C   UNL     1      47.909   5.222  15.909  0.00  0.00    +0.000 A 
ATOM      7  N   UNL     1      48.775   4.917  16.911  0.00  0.00    +0.000 NA
ATOM      8  H   UNL     1      49.627   2.695  18.785  0.00  0.00    +0.000 HD
ENDROOT
BRANCH   5   9
ATOM      9  C   UNL     1      46.468   4.663  13.971  0.00  0.00    +0.000 C 
ATOM     10  N   UNL     1      46.403   6.008  13.727  0.00  0.00    +0.000 N 
ATOM     11  O   UNL     1      45.844   3.854  13.294  0.00  0.00    +0.000 OA
ATOM     12  H   UNL     1      46.897   6.657  14.329  0.00  0.00    +0.000 HD
ATOM     13  H   UNL     1      45.806   6.350  12.988  0.00  0.00    +0.000 HD
ENDBRANCH   5   9
BRANCH   1  15
ATOM     14  C   UNL     1      51.485   5.158  17.349  0.00  0.00    +0.000 C 
ATOM     15  C   UNL     1      51.134   4.102  18.421  0.00  0.00    +0.000 C 
ATOM     16  C   UNL     1      50.761   4.789  19.749  0.00  0.00    +0.000 C 
BRANCH  15  17
ATOM     17  C   UNL     1      52.399   3.215  18.547  0.00  0.00    +0.000 A 
ATOM     18  C   UNL     1      52.561   2.033  17.801  0.00  0.00    +0.000 A 
ATOM     19  C   UNL     1      53.655   1.187  18.010  0.00  0.00    +0.000 A 
ATOM     20  C   UNL     1      54.611   1.502  18.971  0.00  0.00    +0.000 A 
ATOM     21  C   UNL     1      54.476   2.662  19.725  0.00  0.00    +0.000 A 
ATOM     22  C   UNL     1      53.379   3.503  19.521  0.00  0.00    +0.000 A 
ENDBRANCH  15  17
ENDBRANCH   1  15
TORSDOF 3
ENDMDL
