MODEL 1
REMARK VINA RESULT:    -7.332      0.000      0.000
REMARK INTER + INTRA:          -9.927
REMARK INTER:                  -9.261
REMARK INTRA:                  -0.666
REMARK UNBOUND:                -0.666
REMARK  Name = 
REMARK  5 active torsions:
REMARK  status: ('A' for Active; 'I' for Inactive)
REMARK    1  A    between atoms: N_1  and  C_2
REMARK    2  A    between atoms: C_2  and  C_3
REMARK    3  A    between atoms: C_6  and  C_7
REMARK    4  A    between atoms: C_7  and  N_8
REMARK    5  A    between atoms: C_13  and  C_14
REMARK                            x       y       z     vdW  Elec       q    Type
REMARK                         _______ _______ _______ _____ _____    ______ ____
ROOT
ATOM      1  N   UNL     1      44.433   4.726  10.346  0.00  0.00    +0.000 N 
ATOM      2  C   UNL     1      43.757   3.678  10.925  0.00  0.00    +0.000 A 
ATOM      3  C   UNL     1      44.136   2.518  10.287  0.00  0.00    +0.000 A 
ATOM      4  C   UNL     1      45.065   2.871   9.275  0.00  0.00    +0.000 A 
ATOM      5  C   UNL     1      45.799   2.155   8.314  0.00  0.00    +0.000 A 
ATOM      6  C   UNL     1      46.621   2.879   7.445  0.00  0.00    +0.000 A 
ATOM      7  C   UNL     1      46.683   4.263   7.604  0.00  0.00    +0.000 A 
ATOM      8  N   UNL     1      46.013   5.006   8.527  0.00  0.00    +0.000 NA
ATOM      9  C   UNL     1      45.221   4.256   9.325  0.00  0.00    +0.000 A 
ENDROOT
BRANCH   6  10
ATOM     10  C   UNL     1      47.419   2.249   6.366  0.00  0.00    +0.000 C 
ATOM     11  N   UNL     1      47.740   2.993   5.263  0.00  0.00    +0.000 N 
ATOM     12  O   UNL     1      47.801   1.086   6.450  0.00  0.00    +0.000 OA
ATOM     13  H   UNL     1      47.503   3.963   5.122  0.00  0.00    +0.000 HD
ATOM     14  H   UNL     1      48.309   2.544   4.557  0.00  0.00    +0.000 HD
ENDBRANCH   6  10
BRANCH   1  15
ATOM     15  C   UNL     1      44.399   6.094  10.836  0.00  0.00    +0.000 C 
BRANCH  15  19
ATOM     16  C   UNL     1      47.360   8.223  12.180  0.00  0.00    +0.000 C 
ATOM     17  C   UNL     1      47.479   6.776  11.674  0.00  0.00    +0.000 C 
ATOM     18  C   UNL     1      46.481   5.836  12.350  0.00  0.00    +0.000 C 
ATOM     19  C   UNL     1      45.017   6.304  12.234  0.00  0.00    +0.000 C 
ATOM     20  C   UNL     1      44.885   7.784  12.650  0.00  0.00    +0.000 C 
ATOM     21  C   UNL     1      45.912   8.704  11.978  0.00  0.00    +0.000 C 
BRANCH  16  22
ATOM     22  C   UNL     1      47.792   8.409  13.651  0.00  0.00    +0.000 C 
BRANCH  22  23
ATOM     23  N   UNL     1      47.791   9.807  14.067  0.00  0.00    +0.000 NA
ATOM     24  H   UNL     1      47.284  10.361  13.379  0.00  0.00    +0.000 HD
ATOM     25  H   UNL     1      48.747  10.164  14.070  0.00  0.00    +0.000 HD
ENDBRANCH  22  23
ENDBRANCH  16  22
ENDBRANCH  15  19
ENDBRANCH   1  15
TORSDOF 5
ENDMDL
MODEL 2
REMARK VINA RESULT:    -5.909      2.936      6.877
REMARK INTER + INTRA:          -8.129
REMARK INTER:                  -8.291
REMARK INTRA:                   0.162
REMARK UNBOUND:                -0.666
REMARK  Name = 
REMARK  5 active torsions:
REMARK  status: ('A' for Active; 'I' for Inactive)
REMARK    1  A    between atoms: N_1  and  C_2
REMARK    2  A    between atoms: C_2  and  C_3
REMARK    3  A    between atoms: C_6  and  C_7
REMARK    4  A    between atoms: C_7  and  N_8
REMARK    5  A    between atoms: C_13  and  C_14
REMARK                            x       y       z     vdW  Elec       q    Type
REMARK                         _______ _______ _______ _____ _____    ______ ____
ROOT
ATOM      1  N   UNL     1      44.513   4.059  11.105  0.00  0.00    +0.000 N 
ATOM      2  C   UNL     1      43.980   5.254  10.684  0.00  0.00    +0.000 A 
ATOM      3  C   UNL     1      44.534   6.262  11.441  0.00  0.00    +0.000 A 
ATOM      4  C   UNL     1      45.428   5.661  12.365  0.00  0.00    +0.000 A 
ATOM      5  C   UNL     1      46.278   6.143  13.374  0.00  0.00    +0.000 A 
ATOM      6  C   UNL     1      47.008   5.210  14.116  0.00  0.00    +0.000 A 
ATOM      7  C   UNL     1      46.870   3.861  13.790  0.00  0.00    +0.000 A 
ATOM      8  N   UNL     1      46.079   3.339  12.812  0.00  0.00    +0.000 NA
ATOM      9  C   UNL     1      45.383   4.284  12.143  0.00  0.00    +0.000 A 
ENDROOT
BRANCH   6  10
ATOM     10  C   UNL     1      47.912   5.584  15.230  0.00  0.00    +0.000 C 
ATOM     11  N   UNL     1      47.668   5.076  16.477  0.00  0.00    +0.000 N 
ATOM     12  O   UNL     1      48.873   6.327  15.050  0.00  0.00    +0.000 OA
ATOM     13  H   UNL     1      46.928   4.433  16.712  0.00  0.00    +0.000 HD
ATOM     14  H   UNL     1      48.319   5.328  17.210  0.00  0.00    +0.000 HD
ENDBRANCH   6  10
BRANCH   1  15
ATOM     15  C   UNL     1      44.274   2.780  10.456  0.00  0.00    +0.000 C 
BRANCH  15  19
ATOM     16  C   UNL     1      46.866   2.630   7.564  0.00  0.00    +0.000 C 
ATOM     17  C   UNL     1      46.396   3.921   8.254  0.00  0.00    +0.000 C 
ATOM     18  C   UNL     1      44.873   4.049   8.283  0.00  0.00    +0.000 C 
ATOM     19  C   UNL     1      44.164   2.837   8.919  0.00  0.00    +0.000 C 
ATOM     20  C   UNL     1      44.685   1.520   8.306  0.00  0.00    +0.000 C 
ATOM     21  C   UNL     1      46.215   1.426   8.265  0.00  0.00    +0.000 C 
BRANCH  16  22
ATOM     22  C   UNL     1      46.579   2.593   6.046  0.00  0.00    +0.000 C 
BRANCH  22  23
ATOM     23  N   UNL     1      47.751   2.922   5.242  0.00  0.00    +0.000 NA
ATOM     24  H   UNL     1      48.556   2.410   5.599  0.00  0.00    +0.000 HD
ATOM     25  H   UNL     1      47.973   3.911   5.351  0.00  0.00    +0.000 HD
ENDBRANCH  22  23
ENDBRANCH  16  22
ENDBRANCH  15  19
ENDBRANCH   1  15
TORSDOF 5
ENDMDL
MODEL 3
REMARK VINA RESULT:    -5.884      4.630      6.333
REMARK INTER + INTRA:          -8.098
REMARK INTER:                  -7.666
REMARK INTRA:                  -0.432
REMARK UNBOUND:                -0.666
REMARK  Name = 
REMARK  5 active torsions:
REMARK  status: ('A' for Active; 'I' for Inactive)
REMARK    1  A    between atoms: N_1  and  C_2
REMARK    2  A    between atoms: C_2  and  C_3
REMARK    3  A    between atoms: C_6  and  C_7
REMARK    4  A    between atoms: C_7  and  N_8
REMARK    5  A    between atoms: C_13  and  C_14
REMARK                            x       y       z     vdW  Elec       q    Type
REMARK                         _______ _______ _______ _____ _____    ______ ____
ROOT
ATOM      1  N   UNL     1      47.493   5.406  14.573  0.00  0.00    +0.000 N 
ATOM      2  C   UNL     1      48.002   6.612  14.154  0.00  0.00    +0.000 A 
ATOM      3  C   UNL     1      47.480   6.890  12.911  0.00  0.00    +0.000 A 
ATOM      4  C   UNL     1      46.633   5.810  12.551  0.00  0.00    +0.000 A 
ATOM      5  C   UNL     1      45.830   5.512  11.438  0.00  0.00    +0.000 A 
ATOM      6  C   UNL     1      45.139   4.298  11.435  0.00  0.00    +0.000 A 
ATOM      7  C   UNL     1      45.266   3.469  12.550  0.00  0.00    +0.000 A 
ATOM      8  N   UNL     1      46.012   3.714  13.663  0.00  0.00    +0.000 NA
ATOM      9  C   UNL     1      46.672   4.892  13.600  0.00  0.00    +0.000 A 
ENDROOT
BRANCH   6  10
ATOM     10  C   UNL     1      44.287   3.848  10.308  0.00  0.00    +0.000 C 
ATOM     11  N   UNL     1      44.133   4.673   9.227  0.00  0.00    +0.000 N 
ATOM     12  O   UNL     1      43.731   2.754  10.325  0.00  0.00    +0.000 OA
ATOM     13  H   UNL     1      44.577   5.571   9.108  0.00  0.00    +0.000 HD
ATOM     14  H   UNL     1      43.567   4.327   8.463  0.00  0.00    +0.000 HD
ENDBRANCH   6  10
BRANCH   1  15
ATOM     15  C   UNL     1      47.705   4.841  15.895  0.00  0.00    +0.000 C 
BRANCH  15  19
ATOM     16  C   UNL     1      48.622   4.795  19.671  0.00  0.00    +0.000 C 
ATOM     17  C   UNL     1      47.632   5.776  19.020  0.00  0.00    +0.000 C 
ATOM     18  C   UNL     1      48.230   6.496  17.812  0.00  0.00    +0.000 C 
ATOM     19  C   UNL     1      48.789   5.540  16.740  0.00  0.00    +0.000 C 
ATOM     20  C   UNL     1      49.717   4.486  17.381  0.00  0.00    +0.000 C 
ATOM     21  C   UNL     1      49.105   3.796  18.606  0.00  0.00    +0.000 C 
BRANCH  16  22
ATOM     22  C   UNL     1      49.825   5.483  20.354  0.00  0.00    +0.000 C 
BRANCH  22  23
ATOM     23  N   UNL     1      50.751   4.531  20.958  0.00  0.00    +0.000 NA
ATOM     24  H   UNL     1      50.540   4.443  21.951  0.00  0.00    +0.000 HD
ATOM     25  H   UNL     1      51.702   4.895  20.900  0.00  0.00    +0.000 HD
ENDBRANCH  22  23
ENDBRANCH  16  22
ENDBRANCH  15  19
ENDBRANCH   1  15
TORSDOF 5
ENDMDL
MODEL 4
REMARK VINA RESULT:    -5.838      4.877      8.353
REMARK INTER + INTRA:          -8.039
REMARK INTER:                  -7.571
REMARK INTRA:                  -0.469
REMARK UNBOUND:                -0.666
REMARK  Name = 
REMARK  5 active torsions:
REMARK  status: ('A' for Active; 'I' for Inactive)
REMARK    1  A    between atoms: N_1  and  C_2
REMARK    2  A    between atoms: C_2  and  C_3
REMARK    3  A    between atoms: C_6  and  C_7
REMARK    4  A    between atoms: C_7  and  N_8
REMARK    5  A    between atoms: C_13  and  C_14
REMARK                            x       y       z     vdW  Elec       q    Type
REMARK                         _______ _______ _______ _____ _____    ______ ____
ROOT
ATOM      1  N   UNL     1      48.145   6.553  14.250  0.00  0.00    +0.000 N 
ATOM      2  C   UNL     1      48.714   7.801  14.348  0.00  0.00    +0.000 A 
ATOM      3  C   UNL     1      49.259   7.927  15.605  0.00  0.00    +0.000 A 
ATOM      4  C   UNL     1      49.005   6.719  16.305  0.00  0.00    +0.000 A 
ATOM      5  C   UNL     1      49.305   6.240  17.591  0.00  0.00    +0.000 A 
ATOM      6  C   UNL     1      48.849   4.965  17.938  0.00  0.00    +0.000 A 
ATOM      7  C   UNL     1      48.149   4.237  16.977  0.00  0.00    +0.000 A 
ATOM      8  N   UNL     1      47.847   4.640  15.712  0.00  0.00    +0.000 NA
ATOM      9  C   UNL     1      48.295   5.886  15.441  0.00  0.00    +0.000 A 
ENDROOT
BRANCH   6  10
ATOM     10  C   UNL     1      49.067   4.358  19.272  0.00  0.00    +0.000 C 
ATOM     11  N   UNL     1      48.365   3.232  19.608  0.00  0.00    +0.000 N 
ATOM     12  O   UNL     1      49.868   4.838  20.069  0.00  0.00    +0.000 OA
ATOM     13  H   UNL     1      47.715   2.747  19.009  0.00  0.00    +0.000 HD
ATOM     14  H   UNL     1      48.556   2.826  20.515  0.00  0.00    +0.000 HD
ENDBRANCH   6  10
BRANCH   1  15
ATOM     15  C   UNL     1      47.588   5.999  13.027  0.00  0.00    +0.000 C 
BRANCH  15  19
ATOM     16  C   UNL     1      44.926   4.204  10.839  0.00  0.00    +0.000 C 
ATOM     17  C   UNL     1      45.680   5.480  10.432  0.00  0.00    +0.000 C 
ATOM     18  C   UNL     1      45.589   6.577  11.492  0.00  0.00    +0.000 C 
ATOM     19  C   UNL     1      46.058   6.125  12.889  0.00  0.00    +0.000 C 
ATOM     20  C   UNL     1      45.383   4.795  13.285  0.00  0.00    +0.000 C 
ATOM     21  C   UNL     1      45.465   3.718  12.195  0.00  0.00    +0.000 C 
BRANCH  16  22
ATOM     22  C   UNL     1      43.391   4.375  10.896  0.00  0.00    +0.000 C 
BRANCH  22  23
ATOM     23  N   UNL     1      42.713   3.207  11.448  0.00  0.00    +0.000 NA
ATOM     24  H   UNL     1      42.526   2.544  10.697  0.00  0.00    +0.000 HD
ATOM     25  H   UNL     1      41.803   3.483  11.817  0.00  0.00    +0.000 HD
ENDBRANCH  22  23
ENDBRANCH  16  22
ENDBRANCH  15  19
ENDBRANCH   1  15
TORSDOF 5
ENDMDL
MODEL 5
REMARK VINA RESULT:    -5.518      4.025      6.737
REMARK INTER + INTRA:          -7.635
REMARK INTER:                  -7.214
REMARK INTRA:                  -0.421
REMARK UNBOUND:                -0.666
REMARK  Name = 
REMARK  5 active torsions:
REMARK  status: ('A' for Active; 'I' for Inactive)
REMARK    1  A    between atoms: N_1  and  C_2
REMARK    2  A    between atoms: C_2  and  C_3
REMARK    3  A    between atoms: C_6  and  C_7
REMARK    4  A    between atoms: C_7  and  N_8
REMARK    5  A    between atoms: C_13  and  C_14
REMARK                            x       y       z     vdW  Elec       q    Type
REMARK                         _______ _______ _______ _____ _____    ______ ____
ROOT
ATOM      1  N   UNL     1      46.208   8.568  12.425  0.00  0.00    +0.000 N 
ATOM      2  C   UNL     1      45.795   9.845  12.129  0.00  0.00    +0.000 A 
ATOM      3  C   UNL     1      46.888  10.560  11.693  0.00  0.00    +0.000 A 
ATOM      4  C   UNL     1      48.011   9.693  11.735  0.00  0.00    +0.000 A 
ATOM      5  C   UNL     1      49.372   9.823  11.417  0.00  0.00    +0.000 A 
ATOM      6  C   UNL     1      50.202   8.717  11.623  0.00  0.00    +0.000 A 
ATOM      7  C   UNL     1      49.621   7.544  12.104  0.00  0.00    +0.000 A 
ATOM      8  N   UNL     1      48.308   7.354  12.410  0.00  0.00    +0.000 NA
ATOM      9  C   UNL     1      47.560   8.461  12.210  0.00  0.00    +0.000 A 
ENDROOT
BRANCH   6  10
ATOM     10  C   UNL     1      51.661   8.733  11.361  0.00  0.00    +0.000 C 
ATOM     11  N   UNL     1      52.478   7.949  12.129  0.00  0.00    +0.000 N 
ATOM     12  O   UNL     1      52.141   9.424  10.467  0.00  0.00    +0.000 OA
ATOM     13  H   UNL     1      52.172   7.324  12.858  0.00  0.00    +0.000 HD
ATOM     14  H   UNL     1      53.466   7.961  11.908  0.00  0.00    +0.000 HD
ENDBRANCH   6  10
BRANCH   1  15
ATOM     15  C   UNL     1      45.314   7.481  12.788  0.00  0.00    +0.000 C 
BRANCH  15  19
ATOM     16  C   UNL     1      43.777   3.915  12.643  0.00  0.00    +0.000 C 
ATOM     17  C   UNL     1      45.281   4.218  12.731  0.00  0.00    +0.000 C 
ATOM     18  C   UNL     1      45.745   5.197  11.653  0.00  0.00    +0.000 C 
ATOM     19  C   UNL     1      44.953   6.519  11.638  0.00  0.00    +0.000 C 
ATOM     20  C   UNL     1      43.435   6.243  11.642  0.00  0.00    +0.000 C 
ATOM     21  C   UNL     1      42.997   5.239  12.715  0.00  0.00    +0.000 C 
BRANCH  16  22
ATOM     22  C   UNL     1      43.373   3.116  11.384  0.00  0.00    +0.000 C 
BRANCH  22  23
ATOM     23  N   UNL     1      42.951   1.754  11.691  0.00  0.00    +0.000 NA
ATOM     24  H   UNL     1      43.074   1.171  10.865  0.00  0.00    +0.000 HD
ATOM     25  H   UNL     1      41.952   1.744  11.899  0.00  0.00    +0.000 HD
ENDBRANCH  22  23
ENDBRANCH  16  22
ENDBRANCH  15  19
ENDBRANCH   1  15
TORSDOF 5
ENDMDL
MODEL 6
REMARK VINA RESULT:    -5.503      2.216      2.921
REMARK INTER + INTRA:          -7.617
REMARK INTER:                  -8.389
REMARK INTRA:                   0.772
REMARK UNBOUND:                -0.666
REMARK  Name = 
REMARK  5 active torsions:
REMARK  status: ('A' for Active; 'I' for Inactive)
REMARK    1  A    between atoms: N_1  and  C_2
REMARK    2  A    between atoms: C_2  and  C_3
REMARK    3  A    between atoms: C_6  and  C_7
REMARK    4  A    between atoms: C_7  and  N_8
REMARK    5  A    between atoms: C_13  and  C_14
REMARK                            x       y       z     vdW  Elec       q    Type
REMARK                         _______ _______ _______ _____ _____    ______ ____
ROOT
ATOM      1  N   UNL     1      44.437   4.658  10.248  0.00  0.00    +0.000 N 
ATOM      2  C   UNL     1      45.015   5.890  10.053  0.00  0.00    +0.000 A 
ATOM      3  C   UNL     1      45.986   5.761   9.085  0.00  0.00    +0.000 A 
ATOM      4  C   UNL     1      46.011   4.401   8.683  0.00  0.00    +0.000 A 
ATOM      5  C   UNL     1      46.756   3.659   7.752  0.00  0.00    +0.000 A 
ATOM      6  C   UNL     1      46.505   2.287   7.655  0.00  0.00    +0.000 A 
ATOM      7  C   UNL     1      45.510   1.745   8.468  0.00  0.00    +0.000 A 
ATOM      8  N   UNL     1      44.744   2.417   9.372  0.00  0.00    +0.000 NA
ATOM      9  C   UNL     1      45.045   3.732   9.436  0.00  0.00    +0.000 A 
ENDROOT
BRANCH   6  10
ATOM     10  C   UNL     1      47.245   1.387   6.739  0.00  0.00    +0.000 C 
ATOM     11  N   UNL     1      48.241   1.911   5.960  0.00  0.00    +0.000 N 
ATOM     12  O   UNL     1      46.988   0.188   6.677  0.00  0.00    +0.000 OA
ATOM     13  H   UNL     1      48.546   2.872   5.969  0.00  0.00    +0.000 HD
ATOM     14  H   UNL     1      48.746   1.266   5.366  0.00  0.00    +0.000 HD
ENDBRANCH   6  10
BRANCH   1  15
ATOM     15  C   UNL     1      43.281   4.419  11.095  0.00  0.00    +0.000 C 
BRANCH  15  19
ATOM     16  C   UNL     1      46.518   4.665  13.230  0.00  0.00    +0.000 C 
ATOM     17  C   UNL     1      46.041   3.397  12.503  0.00  0.00    +0.000 C 
ATOM     18  C   UNL     1      44.595   3.037  12.842  0.00  0.00    +0.000 C 
ATOM     19  C   UNL     1      43.598   4.184  12.586  0.00  0.00    +0.000 C 
ATOM     20  C   UNL     1      44.099   5.494  13.229  0.00  0.00    +0.000 C 
ATOM     21  C   UNL     1      45.560   5.821  12.895  0.00  0.00    +0.000 C 
BRANCH  16  22
ATOM     22  C   UNL     1      46.650   4.497  14.760  0.00  0.00    +0.000 C 
BRANCH  22  23
ATOM     23  N   UNL     1      47.512   3.380  15.133  0.00  0.00    +0.000 NA
ATOM     24  H   UNL     1      47.991   3.035  14.303  0.00  0.00    +0.000 HD
ATOM     25  H   UNL     1      46.941   2.607  15.474  0.00  0.00    +0.000 HD
ENDBRANCH  22  23
ENDBRANCH  16  22
ENDBRANCH  15  19
ENDBRANCH   1  15
TORSDOF 5
ENDMDL
MODEL 7
REMARK VINA RESULT:    -5.410      4.202      6.468
REMARK INTER + INTRA:          -7.499
REMARK INTER:                  -6.885
REMARK INTRA:                  -0.614
REMARK UNBOUND:                -0.666
REMARK  Name = 
REMARK  5 active torsions:
REMARK  status: ('A' for Active; 'I' for Inactive)
REMARK    1  A    between atoms: N_1  and  C_2
REMARK    2  A    between atoms: C_2  and  C_3
REMARK    3  A    between atoms: C_6  and  C_7
REMARK    4  A    between atoms: C_7  and  N_8
REMARK    5  A    between atoms: C_13  and  C_14
REMARK                            x       y       z     vdW  Elec       q    Type
REMARK                         _______ _______ _______ _____ _____    ______ ____
ROOT
ATOM      1  N   UNL     1      47.980   7.022  13.929  0.00  0.00    +0.000 N 
ATOM      2  C   UNL     1      47.524   8.281  13.619  0.00  0.00    +0.000 A 
ATOM      3  C   UNL     1      46.289   8.156  13.022  0.00  0.00    +0.000 A 
ATOM      4  C   UNL     1      45.986   6.771  12.953  0.00  0.00    +0.000 A 
ATOM      5  C   UNL     1      44.901   6.020  12.472  0.00  0.00    +0.000 A 
ATOM      6  C   UNL     1      44.979   4.627  12.556  0.00  0.00    +0.000 A 
ATOM      7  C   UNL     1      46.117   4.070  13.139  0.00  0.00    +0.000 A 
ATOM      8  N   UNL     1      47.188   4.747  13.639  0.00  0.00    +0.000 NA
ATOM      9  C   UNL     1      47.065   6.087  13.512  0.00  0.00    +0.000 A 
ENDROOT
BRANCH   6  10
ATOM     10  C   UNL     1      43.920   3.720  12.054  0.00  0.00    +0.000 C 
ATOM     11  N   UNL     1      43.901   2.423  12.490  0.00  0.00    +0.000 N 
ATOM     12  O   UNL     1      43.062   4.114  11.270  0.00  0.00    +0.000 OA
ATOM     13  H   UNL     1      44.540   2.021  13.158  0.00  0.00    +0.000 HD
ATOM     14  H   UNL     1      43.150   1.836  12.150  0.00  0.00    +0.000 HD
ENDBRANCH   6  10
BRANCH   1  15
ATOM     15  C   UNL     1      49.187   6.751  14.691  0.00  0.00    +0.000 C 
BRANCH  15  19
ATOM     16  C   UNL     1      50.578   4.880  17.800  0.00  0.00    +0.000 C 
ATOM     17  C   UNL     1      49.235   4.571  17.118  0.00  0.00    +0.000 C 
ATOM     18  C   UNL     1      48.362   5.814  16.956  0.00  0.00    +0.000 C 
ATOM     19  C   UNL     1      49.063   6.968  16.213  0.00  0.00    +0.000 C 
ATOM     20  C   UNL     1      50.456   7.239  16.820  0.00  0.00    +0.000 C 
ATOM     21  C   UNL     1      51.304   5.973  16.997  0.00  0.00    +0.000 C 
BRANCH  16  22
ATOM     22  C   UNL     1      50.447   5.293  19.282  0.00  0.00    +0.000 C 
BRANCH  22  23
ATOM     23  N   UNL     1      49.692   4.327  20.073  0.00  0.00    +0.000 NA
ATOM     24  H   UNL     1      49.490   3.510  19.499  0.00  0.00    +0.000 HD
ATOM     25  H   UNL     1      48.788   4.726  20.327  0.00  0.00    +0.000 HD
ENDBRANCH  22  23
ENDBRANCH  16  22
ENDBRANCH  15  19
ENDBRANCH   1  15
TORSDOF 5
ENDMDL
MODEL 8
REMARK VINA RESULT:    -5.063      3.676      5.302
REMARK INTER + INTRA:          -7.060
REMARK INTER:                  -6.792
REMARK INTRA:                  -0.268
REMARK UNBOUND:                -0.666
REMARK  Name = 
REMARK  5 active torsions:
REMARK  status: ('A' for Active; 'I' for Inactive)
REMARK    1  A    between atoms: N_1  and  C_2
REMARK    2  A    between atoms: C_2  and  C_3
REMARK    3  A    between atoms: C_6  and  C_7
REMARK    4  A    between atoms: C_7  and  N_8
REMARK    5  A    between atoms: C_13  and  C_14
REMARK                            x       y       z     vdW  Elec       q    Type
REMARK                         _______ _______ _______ _____ _____    ______ ____
ROOT
ATOM      1  N   UNL     1      46.664   7.854  13.035  0.00  0.00    +0.000 N 
ATOM      2  C   UNL     1      46.007   8.851  12.353  0.00  0.00    +0.000 A 
ATOM      3  C   UNL     1      44.960   8.282  11.664  0.00  0.00    +0.000 A 
ATOM      4  C   UNL     1      44.985   6.887  11.923  0.00  0.00    +0.000 A 
ATOM      5  C   UNL     1      44.196   5.794  11.527  0.00  0.00    +0.000 A 
ATOM      6  C   UNL     1      44.561   4.524  11.983  0.00  0.00    +0.000 A 
ATOM      7  C   UNL     1      45.668   4.424  12.825  0.00  0.00    +0.000 A 
ATOM      8  N   UNL     1      46.456   5.447  13.258  0.00  0.00    +0.000 NA
ATOM      9  C   UNL     1      46.067   6.646  12.769  0.00  0.00    +0.000 A 
ENDROOT
BRANCH   6  10
ATOM     10  C   UNL     1      43.836   3.286  11.611  0.00  0.00    +0.000 C 
ATOM     11  N   UNL     1      43.673   2.307  12.554  0.00  0.00    +0.000 N 
ATOM     12  O   UNL     1      43.374   3.131  10.484  0.00  0.00    +0.000 OA
ATOM     13  H   UNL     1      43.984   2.360  13.511  0.00  0.00    +0.000 HD
ATOM     14  H   UNL     1      43.150   1.486  12.277  0.00  0.00    +0.000 HD
ENDBRANCH   6  10
BRANCH   1  15
ATOM     15  C   UNL     1      47.742   8.081  13.983  0.00  0.00    +0.000 C 
BRANCH  15  19
ATOM     16  C   UNL     1      51.176   9.294  12.627  0.00  0.00    +0.000 C 
ATOM     17  C   UNL     1      50.001   8.831  11.751  0.00  0.00    +0.000 C 
ATOM     18  C   UNL     1      49.470   7.458  12.162  0.00  0.00    +0.000 C 
ATOM     19  C   UNL     1      49.069   7.372  13.648  0.00  0.00    +0.000 C 
ATOM     20  C   UNL     1      50.198   7.917  14.548  0.00  0.00    +0.000 C 
ATOM     21  C   UNL     1      50.733   9.283  14.100  0.00  0.00    +0.000 C 
BRANCH  16  22
ATOM     22  C   UNL     1      52.462   8.458  12.443  0.00  0.00    +0.000 C 
BRANCH  22  23
ATOM     23  N   UNL     1      52.520   7.790  11.147  0.00  0.00    +0.000 NA
ATOM     24  H   UNL     1      52.566   6.782  11.292  0.00  0.00    +0.000 HD
ATOM     25  H   UNL     1      53.382   8.048  10.668  0.00  0.00    +0.000 HD
ENDBRANCH  22  23
ENDBRANCH  16  22
ENDBRANCH  15  19
ENDBRANCH   1  15
TORSDOF 5
ENDMDL
MODEL 9
REMARK VINA RESULT:    -4.948      3.238      5.057
REMARK INTER + INTRA:          -6.916
REMARK INTER:                  -6.435
REMARK INTRA:                  -0.481
REMARK UNBOUND:                -0.666
REMARK  Name = 
REMARK  5 active torsions:
REMARK  status: ('A' for Active; 'I' for Inactive)
REMARK    1  A    between atoms: N_1  and  C_2
REMARK    2  A    between atoms: C_2  and  C_3
REMARK    3  A    between atoms: C_6  and  C_7
REMARK    4  A    between atoms: C_7  and  N_8
REMARK    5  A    between atoms: C_13  and  C_14
REMARK                            x       y       z     vdW  Elec       q    Type
REMARK                         _______ _______ _______ _____ _____    ______ ____
ROOT
ATOM      1  N   UNL     1      47.663   6.362  14.047  0.00  0.00    +0.000 N 
ATOM      2  C   UNL     1      47.778   5.447  15.066  0.00  0.00    +0.000 A 
ATOM      3  C   UNL     1      47.022   4.343  14.741  0.00  0.00    +0.000 A 
ATOM      4  C   UNL     1      46.414   4.597  13.484  0.00  0.00    +0.000 A 
ATOM      5  C   UNL     1      45.556   3.876  12.637  0.00  0.00    +0.000 A 
ATOM      6  C   UNL     1      45.136   4.488  11.453  0.00  0.00    +0.000 A 
ATOM      7  C   UNL     1      45.618   5.767  11.172  0.00  0.00    +0.000 A 
ATOM      8  N   UNL     1      46.464   6.504  11.943  0.00  0.00    +0.000 NA
ATOM      9  C   UNL     1      46.819   5.870  13.082  0.00  0.00    +0.000 A 
ENDROOT
BRANCH   6  10
ATOM     10  C   UNL     1      44.206   3.851  10.492  0.00  0.00    +0.000 C 
ATOM     11  N   UNL     1      44.127   2.485  10.457  0.00  0.00    +0.000 N 
ATOM     12  O   UNL     1      43.504   4.522   9.742  0.00  0.00    +0.000 OA
ATOM     13  H   UNL     1      44.635   1.854  11.057  0.00  0.00    +0.000 HD
ATOM     14  H   UNL     1      43.463   2.080   9.809  0.00  0.00    +0.000 HD
ENDBRANCH   6  10
BRANCH   1  15
ATOM     15  C   UNL     1      48.423   7.598  13.964  0.00  0.00    +0.000 C 
BRANCH  15  19
ATOM     16  C   UNL     1      50.619  10.170  12.049  0.00  0.00    +0.000 C 
ATOM     17  C   UNL     1      49.482   9.347  11.421  0.00  0.00    +0.000 C 
ATOM     18  C   UNL     1      49.627   7.849  11.689  0.00  0.00    +0.000 C 
ATOM     19  C   UNL     1      49.750   7.499  13.185  0.00  0.00    +0.000 C 
ATOM     20  C   UNL     1      50.824   8.377  13.862  0.00  0.00    +0.000 C 
ATOM     21  C   UNL     1      50.673   9.873  13.558  0.00  0.00    +0.000 C 
BRANCH  16  22
ATOM     22  C   UNL     1      51.999   9.928  11.400  0.00  0.00    +0.000 C 
BRANCH  22  23
ATOM     23  N   UNL     1      52.174  10.667  10.155  0.00  0.00    +0.000 NA
ATOM     24  H   UNL     1      53.167  10.719   9.933  0.00  0.00    +0.000 HD
ATOM     25  H   UNL     1      51.862  11.630  10.282  0.00  0.00    +0.000 HD
ENDBRANCH  22  23
ENDBRANCH  16  22
ENDBRANCH  15  19
ENDBRANCH   1  15
TORSDOF 5
ENDMDL
