MODEL 1
REMARK VINA RESULT:    -7.217      0.000      0.000
REMARK INTER + INTRA:         -10.680
REMARK INTER:                  -9.749
REMARK INTRA:                  -0.931
REMARK UNBOUND:                -0.931
REMARK  Name = 
REMARK  6 active torsions:
REMARK  status: ('A' for Active; 'I' for Inactive)
REMARK    1  A    between atoms: C_2  and  C_3
REMARK    2  A    between atoms: N_10  and  C_11
REMARK    3  A    between atoms: C_11  and  C_12
REMARK    4  A    between atoms: C_15  and  C_16
REMARK    5  A    between atoms: C_16  and  N_17
REMARK    6  A    between atoms: C_18  and  C_20
REMARK                            x       y       z     vdW  Elec       q    Type
REMARK                         _______ _______ _______ _____ _____    ______ ____
ROOT
ATOM      1  C   UNL     1      49.713   7.139  16.447  0.00  0.00    +0.000 C 
ATOM      2  C   UNL     1      48.624   6.237  15.849  0.00  0.00    +0.000 C 
ATOM      3  C   UNL     1      48.048   6.769  14.539  0.00  0.00    +0.000 C 
ATOM      4  C   UNL     1      49.130   6.981  13.478  0.00  0.00    +0.000 C 
ATOM      5  C   UNL     1      50.210   7.921  14.052  0.00  0.00    +0.000 C 
ATOM      6  C   UNL     1      50.794   7.419  15.385  0.00  0.00    +0.000 C 
ENDROOT
BRANCH   1   7
ATOM      7  C   UNL     1      50.326   6.537  17.738  0.00  0.00    +0.000 C 
BRANCH   7  15
ATOM      8  C   UNL     1      51.369   2.111  17.420  0.00  0.00    +0.000 A 
ATOM      9  C   UNL     1      52.324   1.108  17.384  0.00  0.00    +0.000 A 
ATOM     10  C   UNL     1      53.429   1.539  18.138  0.00  0.00    +0.000 A 
ATOM     11  C   UNL     1      53.100   2.769  18.653  0.00  0.00    +0.000 A 
ATOM     12  N   UNL     1      51.834   3.156  18.216  0.00  0.00    +0.000 N 
ATOM     13  C   UNL     1      51.227   4.388  18.595  0.00  0.00    +0.000 C 
ATOM     14  O   UNL     1      51.127   4.672  19.774  0.00  0.00    +0.000 OA
ATOM     15  N   UNL     1      50.892   5.199  17.530  0.00  0.00    +0.000 N 
ATOM     16  H   UNL     1      50.914   4.850  16.582  0.00  0.00    +0.000 HD
BRANCH   8  18
ATOM     17  N   UNL     1      49.122   1.912  16.184  0.00  0.00    +0.000 NA
ATOM     18  C   UNL     1      50.105   2.018  16.754  0.00  0.00    +0.000 C 
ENDBRANCH   8  18
ENDBRANCH   7  15
ENDBRANCH   1   7
BRANCH   4  19
ATOM     19  C   UNL     1      48.530   7.531  12.165  0.00  0.00    +0.000 C 
BRANCH  19  20
ATOM     20  N   UNL     1      47.613   6.610  11.517  0.00  0.00    +0.000 N 
ATOM     21  C   UNL     1      46.270   6.848  11.373  0.00  0.00    +0.000 C 
ATOM     22  O   UNL     1      45.753   7.907  11.733  0.00  0.00    +0.000 OA
ATOM     23  H   UNL     1      47.992   5.734  11.199  0.00  0.00    +0.000 HD
BRANCH  21  24
ATOM     24  C   UNL     1      45.488   5.776  10.743  0.00  0.00    +0.000 A 
ATOM     25  C   UNL     1      45.654   5.443   9.404  0.00  0.00    +0.000 A 
ATOM     26  S   UNL     1      44.756   4.066   8.930  0.00  0.00    +0.000 S 
ATOM     27  C   UNL     1      44.266   3.794  10.531  0.00  0.00    +0.000 A 
ATOM     28  N   UNL     1      43.789   2.589  10.933  0.00  0.00    +0.000 NA
ATOM     29  C   UNL     1      43.431   2.553  12.174  0.00  0.00    +0.000 A 
ATOM     30  N   UNL     1      43.320   3.646  12.982  0.00  0.00    +0.000 N 
ATOM     31  C   UNL     1      44.024   4.783  12.709  0.00  0.00    +0.000 A 
ATOM     32  O   UNL     1      44.232   5.600  13.609  0.00  0.00    +0.000 OA
ATOM     33  C   UNL     1      44.547   4.868  11.358  0.00  0.00    +0.000 A 
ATOM     34  H   UNL     1      42.993   3.553  13.930  0.00  0.00    +0.000 HD
ENDBRANCH  21  24
ENDBRANCH  19  20
ENDBRANCH   4  19
TORSDOF 6
ENDMDL
MODEL 2
REMARK VINA RESULT:    -6.741      2.885      8.782
REMARK INTER + INTRA:         -10.036
REMARK INTER:                  -9.171
REMARK INTRA:                  -0.865
REMARK UNBOUND:                -0.931
REMARK  Name = 
REMARK  6 active torsions:
REMARK  status: ('A' for Active; 'I' for Inactive)
REMARK    1  A    between atoms: C_2  and  C_3
REMARK    2  A    between atoms: N_10  and  C_11
REMARK    3  A    between atoms: C_11  and  C_12
REMARK    4  A    between atoms: C_15  and  C_16
REMARK    5  A    between atoms: C_16  and  N_17
REMARK    6  A    between atoms: C_18  and  C_20
REMARK                            x       y       z     vdW  Elec       q    Type
REMARK                         _______ _______ _______ _____ _____    ______ ____
ROOT
ATOM      1  C   UNL     1      48.444   7.381  12.948  0.00  0.00    +0.000 C 
ATOM      2  C   UNL     1      47.914   6.308  13.909  0.00  0.00    +0.000 C 
ATOM      3  C   UNL     1      48.651   6.273  15.245  0.00  0.00    +0.000 C 
ATOM      4  C   UNL     1      48.605   7.624  15.964  0.00  0.00    +0.000 C 
ATOM      5  C   UNL     1      49.175   8.706  15.022  0.00  0.00    +0.000 C 
ATOM      6  C   UNL     1      48.463   8.748  13.658  0.00  0.00    +0.000 C 
ENDROOT
BRANCH   1   7
ATOM      7  C   UNL     1      47.630   7.436  11.629  0.00  0.00    +0.000 C 
BRANCH   7  15
ATOM      8  C   UNL     1      44.648   4.217  10.397  0.00  0.00    +0.000 A 
ATOM      9  C   UNL     1      43.826   3.156  10.739  0.00  0.00    +0.000 A 
ATOM     10  C   UNL     1      43.400   3.351  12.065  0.00  0.00    +0.000 A 
ATOM     11  C   UNL     1      43.934   4.547  12.478  0.00  0.00    +0.000 A 
ATOM     12  N   UNL     1      44.721   5.103  11.470  0.00  0.00    +0.000 N 
ATOM     13  C   UNL     1      45.399   6.348  11.614  0.00  0.00    +0.000 C 
ATOM     14  O   UNL     1      44.775   7.337  11.948  0.00  0.00    +0.000 OA
ATOM     15  N   UNL     1      46.766   6.265  11.443  0.00  0.00    +0.000 N 
ATOM     16  H   UNL     1      47.195   5.431  11.069  0.00  0.00    +0.000 HD
BRANCH   8  18
ATOM     17  N   UNL     1      45.748   4.504   8.090  0.00  0.00    +0.000 NA
ATOM     18  C   UNL     1      45.269   4.348   9.113  0.00  0.00    +0.000 C 
ENDBRANCH   8  18
ENDBRANCH   7  15
ENDBRANCH   1   7
BRANCH   4  19
ATOM     19  C   UNL     1      49.366   7.573  17.307  0.00  0.00    +0.000 C 
BRANCH  19  20
ATOM     20  N   UNL     1      50.393   6.548  17.352  0.00  0.00    +0.000 N 
ATOM     21  C   UNL     1      50.493   5.613  18.351  0.00  0.00    +0.000 C 
ATOM     22  O   UNL     1      49.664   5.540  19.260  0.00  0.00    +0.000 OA
ATOM     23  H   UNL     1      51.087   6.563  16.625  0.00  0.00    +0.000 HD
BRANCH  21  24
ATOM     24  C   UNL     1      51.631   4.690  18.261  0.00  0.00    +0.000 A 
ATOM     25  C   UNL     1      52.887   5.031  18.750  0.00  0.00    +0.000 A 
ATOM     26  S   UNL     1      54.016   3.747  18.680  0.00  0.00    +0.000 S 
ATOM     27  C   UNL     1      52.810   2.674  18.157  0.00  0.00    +0.000 A 
ATOM     28  N   UNL     1      52.968   1.329  18.251  0.00  0.00    +0.000 NA
ATOM     29  C   UNL     1      51.973   0.650  17.782  0.00  0.00    +0.000 A 
ATOM     30  N   UNL     1      50.945   1.178  17.060  0.00  0.00    +0.000 N 
ATOM     31  C   UNL     1      50.622   2.499  17.177  0.00  0.00    +0.000 A 
ATOM     32  O   UNL     1      49.497   2.882  16.848  0.00  0.00    +0.000 OA
ATOM     33  C   UNL     1      51.649   3.327  17.782  0.00  0.00    +0.000 A 
ATOM     34  H   UNL     1      50.222   0.585  16.686  0.00  0.00    +0.000 HD
ENDBRANCH  21  24
ENDBRANCH  19  20
ENDBRANCH   4  19
TORSDOF 6
ENDMDL
MODEL 3
REMARK VINA RESULT:    -6.657      2.008      2.975
REMARK INTER + INTRA:          -9.923
REMARK INTER:                  -9.149
REMARK INTRA:                  -0.774
REMARK UNBOUND:                -0.931
REMARK  Name = 
REMARK  6 active torsions:
REMARK  status: ('A' for Active; 'I' for Inactive)
REMARK    1  A    between atoms: C_2  and  C_3
REMARK    2  A    between atoms: N_10  and  C_11
REMARK    3  A    between atoms: C_11  and  C_12
REMARK    4  A    between atoms: C_15  and  C_16
REMARK    5  A    between atoms: C_16  and  N_17
REMARK    6  A    between atoms: C_18  and  C_20
REMARK                            x       y       z     vdW  Elec       q    Type
REMARK                         _______ _______ _______ _____ _____    ______ ____
ROOT
ATOM      1  C   UNL     1      50.210   4.490  17.306  0.00  0.00    +0.000 C 
ATOM      2  C   UNL     1      50.735   5.927  17.189  0.00  0.00    +0.000 C 
ATOM      3  C   UNL     1      50.276   6.639  15.918  0.00  0.00    +0.000 C 
ATOM      4  C   UNL     1      48.751   6.674  15.797  0.00  0.00    +0.000 C 
ATOM      5  C   UNL     1      48.214   5.229  15.872  0.00  0.00    +0.000 C 
ATOM      6  C   UNL     1      48.680   4.481  17.134  0.00  0.00    +0.000 C 
ENDROOT
BRANCH   1   7
ATOM      7  C   UNL     1      50.637   3.820  18.639  0.00  0.00    +0.000 C 
BRANCH   7  15
ATOM      8  C   UNL     1      54.582   1.832  17.517  0.00  0.00    +0.000 A 
ATOM      9  C   UNL     1      55.498   0.809  17.697  0.00  0.00    +0.000 A 
ATOM     10  C   UNL     1      54.791  -0.332  18.118  0.00  0.00    +0.000 A 
ATOM     11  C   UNL     1      53.462   0.013  18.137  0.00  0.00    +0.000 A 
ATOM     12  N   UNL     1      53.301   1.351  17.780  0.00  0.00    +0.000 N 
ATOM     13  C   UNL     1      52.028   1.986  17.709  0.00  0.00    +0.000 C 
ATOM     14  O   UNL     1      51.147   1.492  17.031  0.00  0.00    +0.000 OA
ATOM     15  N   UNL     1      51.904   3.089  18.529  0.00  0.00    +0.000 N 
ATOM     16  H   UNL     1      52.711   3.494  18.983  0.00  0.00    +0.000 HD
BRANCH   8  18
ATOM     17  N   UNL     1      55.273   4.176  16.714  0.00  0.00    +0.000 NA
ATOM     18  C   UNL     1      54.950   3.149  17.092  0.00  0.00    +0.000 C 
ENDBRANCH   8  18
ENDBRANCH   7  15
ENDBRANCH   1   7
BRANCH   4  19
ATOM     19  C   UNL     1      48.306   7.386  14.501  0.00  0.00    +0.000 C 
BRANCH  19  20
ATOM     20  N   UNL     1      47.020   6.931  14.002  0.00  0.00    +0.000 N 
ATOM     21  C   UNL     1      46.773   6.646  12.683  0.00  0.00    +0.000 C 
ATOM     22  O   UNL     1      47.659   6.696  11.828  0.00  0.00    +0.000 OA
ATOM     23  H   UNL     1      46.269   6.866  14.666  0.00  0.00    +0.000 HD
BRANCH  21  24
ATOM     24  C   UNL     1      45.397   6.254  12.355  0.00  0.00    +0.000 A 
ATOM     25  C   UNL     1      44.476   7.170  11.858  0.00  0.00    +0.000 A 
ATOM     26  S   UNL     1      42.989   6.459  11.399  0.00  0.00    +0.000 S 
ATOM     27  C   UNL     1      43.603   4.905  11.695  0.00  0.00    +0.000 A 
ATOM     28  N   UNL     1      43.018   3.799  11.172  0.00  0.00    +0.000 NA
ATOM     29  C   UNL     1      43.588   2.691  11.515  0.00  0.00    +0.000 A 
ATOM     30  N   UNL     1      44.548   2.578  12.477  0.00  0.00    +0.000 N 
ATOM     31  C   UNL     1      45.323   3.650  12.812  0.00  0.00    +0.000 A 
ATOM     32  O   UNL     1      46.409   3.466  13.367  0.00  0.00    +0.000 OA
ATOM     33  C   UNL     1      44.805   4.936  12.382  0.00  0.00    +0.000 A 
ATOM     34  H   UNL     1      44.921   1.676  12.727  0.00  0.00    +0.000 HD
ENDBRANCH  21  24
ENDBRANCH  19  20
ENDBRANCH   4  19
TORSDOF 6
ENDMDL
MODEL 4
REMARK VINA RESULT:    -6.500      3.198      8.585
REMARK INTER + INTRA:          -9.711
REMARK INTER:                  -8.757
REMARK INTRA:                  -0.955
REMARK UNBOUND:                -0.931
REMARK  Name = 
REMARK  6 active torsions:
REMARK  status: ('A' for Active; 'I' for Inactive)
REMARK    1  A    between atoms: C_2  and  C_3
REMARK    2  A    between atoms: N_10  and  C_11
REMARK    3  A    between atoms: C_11  and  C_12
REMARK    4  A    between atoms: C_15  and  C_16
REMARK    5  A    between atoms: C_16  and  N_17
REMARK    6  A    between atoms: C_18  and  C_20
REMARK                            x       y       z     vdW  Elec       q    Type
REMARK                         _______ _______ _______ _____ _____    ______ ____
ROOT
ATOM      1  C   UNL     1      46.953   8.189  12.474  0.00  0.00    +0.000 C 
ATOM      2  C   UNL     1      47.628   9.509  12.078  0.00  0.00    +0.000 C 
ATOM      3  C   UNL     1      49.001   9.703  12.718  0.00  0.00    +0.000 C 
ATOM      4  C   UNL     1      49.959   8.557  12.388  0.00  0.00    +0.000 C 
ATOM      5  C   UNL     1      49.308   7.226  12.820  0.00  0.00    +0.000 C 
ATOM      6  C   UNL     1      47.912   7.014  12.205  0.00  0.00    +0.000 C 
ENDROOT
BRANCH   1   7
ATOM      7  C   UNL     1      45.594   7.990  11.754  0.00  0.00    +0.000 C 
BRANCH   7  15
ATOM      8  C   UNL     1      44.496   3.943   9.968  0.00  0.00    +0.000 A 
ATOM      9  C   UNL     1      44.105   2.625  10.144  0.00  0.00    +0.000 A 
ATOM     10  C   UNL     1      43.343   2.557  11.323  0.00  0.00    +0.000 A 
ATOM     11  C   UNL     1      43.250   3.839  11.807  0.00  0.00    +0.000 A 
ATOM     12  N   UNL     1      43.964   4.719  10.996  0.00  0.00    +0.000 N 
ATOM     13  C   UNL     1      44.043   6.118  11.251  0.00  0.00    +0.000 C 
ATOM     14  O   UNL     1      43.020   6.762  11.392  0.00  0.00    +0.000 OA
ATOM     15  N   UNL     1      45.330   6.588  11.411  0.00  0.00    +0.000 N 
ATOM     16  H   UNL     1      46.128   6.012  11.180  0.00  0.00    +0.000 HD
BRANCH   8  18
ATOM     17  N   UNL     1      45.971   4.707   8.004  0.00  0.00    +0.000 NA
ATOM     18  C   UNL     1      45.294   4.384   8.864  0.00  0.00    +0.000 C 
ENDBRANCH   8  18
ENDBRANCH   7  15
ENDBRANCH   1   7
BRANCH   4  19
ATOM     19  C   UNL     1      51.337   8.765  13.053  0.00  0.00    +0.000 C 
BRANCH  19  20
ATOM     20  N   UNL     1      51.652   7.764  14.057  0.00  0.00    +0.000 N 
ATOM     21  C   UNL     1      51.394   7.920  15.395  0.00  0.00    +0.000 C 
ATOM     22  O   UNL     1      50.808   8.911  15.835  0.00  0.00    +0.000 OA
ATOM     23  H   UNL     1      52.124   6.934  13.742  0.00  0.00    +0.000 HD
BRANCH  21  24
ATOM     24  C   UNL     1      51.836   6.826  16.269  0.00  0.00    +0.000 A 
ATOM     25  C   UNL     1      53.173   6.661  16.613  0.00  0.00    +0.000 A 
ATOM     26  S   UNL     1      53.431   5.421  17.763  0.00  0.00    +0.000 S 
ATOM     27  C   UNL     1      51.759   5.199  17.947  0.00  0.00    +0.000 A 
ATOM     28  N   UNL     1      51.242   4.567  19.031  0.00  0.00    +0.000 NA
ATOM     29  C   UNL     1      49.955   4.452  19.007  0.00  0.00    +0.000 A 
ATOM     30  N   UNL     1      49.171   4.728  17.926  0.00  0.00    +0.000 N 
ATOM     31  C   UNL     1      49.602   5.589  16.959  0.00  0.00    +0.000 A 
ATOM     32  O   UNL     1      48.780   6.131  16.216  0.00  0.00    +0.000 OA
ATOM     33  C   UNL     1      51.030   5.851  16.968  0.00  0.00    +0.000 A 
ATOM     34  H   UNL     1      48.176   4.576  17.961  0.00  0.00    +0.000 HD
ENDBRANCH  21  24
ENDBRANCH  19  20
ENDBRANCH   4  19
TORSDOF 6
ENDMDL
MODEL 5
REMARK VINA RESULT:    -6.262      3.377      8.351
REMARK INTER + INTRA:          -9.389
REMARK INTER:                  -8.092
REMARK INTRA:                  -1.298
REMARK UNBOUND:                -0.931
REMARK  Name = 
REMARK  6 active torsions:
REMARK  status: ('A' for Active; 'I' for Inactive)
REMARK    1  A    between atoms: C_2  and  C_3
REMARK    2  A    between atoms: N_10  and  C_11
REMARK    3  A    between atoms: C_11  and  C_12
REMARK    4  A    between atoms: C_15  and  C_16
REMARK    5  A    between atoms: C_16  and  N_17
REMARK    6  A    between atoms: C_18  and  C_20
REMARK                            x       y       z     vdW  Elec       q    Type
REMARK                         _______ _______ _______ _____ _____    ______ ____
ROOT
ATOM      1  C   UNL     1      48.211   7.639  12.769  0.00  0.00    +0.000 C 
ATOM      2  C   UNL     1      47.575   8.755  13.610  0.00  0.00    +0.000 C 
ATOM      3  C   UNL     1      48.264   8.967  14.956  0.00  0.00    +0.000 C 
ATOM      4  C   UNL     1      49.755   9.275  14.799  0.00  0.00    +0.000 C 
ATOM      5  C   UNL     1      50.414   8.138  13.990  0.00  0.00    +0.000 C 
ATOM      6  C   UNL     1      49.725   7.889  12.636  0.00  0.00    +0.000 C 
ENDROOT
BRANCH   1   7
ATOM      7  C   UNL     1      47.533   7.497  11.382  0.00  0.00    +0.000 C 
BRANCH   7  15
ATOM      8  C   UNL     1      44.597   4.151  10.402  0.00  0.00    +0.000 A 
ATOM      9  C   UNL     1      43.829   3.075  10.817  0.00  0.00    +0.000 A 
ATOM     10  C   UNL     1      43.469   3.295  12.159  0.00  0.00    +0.000 A 
ATOM     11  C   UNL     1      43.984   4.520  12.509  0.00  0.00    +0.000 A 
ATOM     12  N   UNL     1      44.698   5.070  11.445  0.00  0.00    +0.000 N 
ATOM     13  C   UNL     1      45.341   6.339  11.518  0.00  0.00    +0.000 C 
ATOM     14  O   UNL     1      44.703   7.318  11.858  0.00  0.00    +0.000 OA
ATOM     15  N   UNL     1      46.699   6.295  11.275  0.00  0.00    +0.000 N 
ATOM     16  H   UNL     1      47.135   5.463  10.902  0.00  0.00    +0.000 HD
BRANCH   8  18
ATOM     17  N   UNL     1      45.530   4.367   8.015  0.00  0.00    +0.000 NA
ATOM     18  C   UNL     1      45.144   4.264   9.084  0.00  0.00    +0.000 C 
ENDBRANCH   8  18
ENDBRANCH   7  15
ENDBRANCH   1   7
BRANCH   4  19
ATOM     19  C   UNL     1      50.436   9.474  16.171  0.00  0.00    +0.000 C 
BRANCH  19  20
ATOM     20  N   UNL     1      50.355   8.308  17.032  0.00  0.00    +0.000 N 
ATOM     21  C   UNL     1      49.586   8.251  18.166  0.00  0.00    +0.000 C 
ATOM     22  O   UNL     1      48.849   9.180  18.501  0.00  0.00    +0.000 OA
ATOM     23  H   UNL     1      50.933   7.520  16.792  0.00  0.00    +0.000 HD
BRANCH  21  24
ATOM     24  C   UNL     1      49.673   7.009  18.944  0.00  0.00    +0.000 A 
ATOM     25  C   UNL     1      49.917   7.021  20.313  0.00  0.00    +0.000 A 
ATOM     26  S   UNL     1      49.820   5.473  21.035  0.00  0.00    +0.000 S 
ATOM     27  C   UNL     1      49.290   4.790  19.575  0.00  0.00    +0.000 A 
ATOM     28  N   UNL     1      48.662   3.588  19.541  0.00  0.00    +0.000 NA
ATOM     29  C   UNL     1      48.348   3.193  18.350  0.00  0.00    +0.000 A 
ATOM     30  N   UNL     1      48.776   3.784  17.199  0.00  0.00    +0.000 N 
ATOM     31  C   UNL     1      49.160   5.094  17.194  0.00  0.00    +0.000 A 
ATOM     32  O   UNL     1      49.168   5.721  16.132  0.00  0.00    +0.000 OA
ATOM     33  C   UNL     1      49.444   5.652  18.503  0.00  0.00    +0.000 A 
ATOM     34  H   UNL     1      48.529   3.399  16.301  0.00  0.00    +0.000 HD
ENDBRANCH  21  24
ENDBRANCH  19  20
ENDBRANCH   4  19
TORSDOF 6
ENDMDL
MODEL 6
REMARK VINA RESULT:    -6.122      3.184      8.603
REMARK INTER + INTRA:          -9.200
REMARK INTER:                  -8.696
REMARK INTRA:                  -0.504
REMARK UNBOUND:                -0.931
REMARK  Name = 
REMARK  6 active torsions:
REMARK  status: ('A' for Active; 'I' for Inactive)
REMARK    1  A    between atoms: C_2  and  C_3
REMARK    2  A    between atoms: N_10  and  C_11
REMARK    3  A    between atoms: C_11  and  C_12
REMARK    4  A    between atoms: C_15  and  C_16
REMARK    5  A    between atoms: C_16  and  N_17
REMARK    6  A    between atoms: C_18  and  C_20
REMARK                            x       y       z     vdW  Elec       q    Type
REMARK                         _______ _______ _______ _____ _____    ______ ____
ROOT
ATOM      1  C   UNL     1      48.655   8.006  15.224  0.00  0.00    +0.000 C 
ATOM      2  C   UNL     1      48.751   6.511  15.562  0.00  0.00    +0.000 C 
ATOM      3  C   UNL     1      49.576   6.224  16.813  0.00  0.00    +0.000 C 
ATOM      4  C   UNL     1      49.036   6.959  18.042  0.00  0.00    +0.000 C 
ATOM      5  C   UNL     1      48.975   8.469  17.729  0.00  0.00    +0.000 C 
ATOM      6  C   UNL     1      48.165   8.785  16.459  0.00  0.00    +0.000 C 
ENDROOT
BRANCH   1   7
ATOM      7  C   UNL     1      47.754   8.269  13.990  0.00  0.00    +0.000 C 
BRANCH   7  15
ATOM      8  C   UNL     1      45.949   4.273  12.742  0.00  0.00    +0.000 A 
ATOM      9  C   UNL     1      44.910   3.558  12.168  0.00  0.00    +0.000 A 
ATOM     10  C   UNL     1      44.301   4.383  11.205  0.00  0.00    +0.000 A 
ATOM     11  C   UNL     1      45.014   5.557  11.185  0.00  0.00    +0.000 A 
ATOM     12  N   UNL     1      46.034   5.525  12.135  0.00  0.00    +0.000 N 
ATOM     13  C   UNL     1      46.939   6.606  12.337  0.00  0.00    +0.000 C 
ATOM     14  O   UNL     1      47.561   7.054  11.392  0.00  0.00    +0.000 OA
ATOM     15  N   UNL     1      46.937   7.106  13.622  0.00  0.00    +0.000 N 
ATOM     16  H   UNL     1      46.470   6.616  14.372  0.00  0.00    +0.000 HD
BRANCH   8  18
ATOM     17  N   UNL     1      47.496   3.366  14.586  0.00  0.00    +0.000 NA
ATOM     18  C   UNL     1      46.791   3.744  13.772  0.00  0.00    +0.000 C 
ENDBRANCH   8  18
ENDBRANCH   7  15
ENDBRANCH   1   7
BRANCH   4  19
ATOM     19  C   UNL     1      49.891   6.666  19.294  0.00  0.00    +0.000 C 
BRANCH  19  20
ATOM     20  N   UNL     1      50.825   5.568  19.114  0.00  0.00    +0.000 N 
ATOM     21  C   UNL     1      52.119   5.732  18.692  0.00  0.00    +0.000 C 
ATOM     22  O   UNL     1      52.605   6.847  18.495  0.00  0.00    +0.000 OA
ATOM     23  H   UNL     1      50.475   4.639  19.272  0.00  0.00    +0.000 HD
BRANCH  21  24
ATOM     24  C   UNL     1      52.900   4.502  18.511  0.00  0.00    +0.000 A 
ATOM     25  C   UNL     1      54.216   4.402  18.946  0.00  0.00    +0.000 A 
ATOM     26  S   UNL     1      54.873   2.832  18.773  0.00  0.00    +0.000 S 
ATOM     27  C   UNL     1      53.370   2.223  18.275  0.00  0.00    +0.000 A 
ATOM     28  N   UNL     1      53.094   0.895  18.313  0.00  0.00    +0.000 NA
ATOM     29  C   UNL     1      51.918   0.591  17.873  0.00  0.00    +0.000 A 
ATOM     30  N   UNL     1      51.085   1.453  17.223  0.00  0.00    +0.000 N 
ATOM     31  C   UNL     1      51.205   2.800  17.403  0.00  0.00    +0.000 A 
ATOM     32  O   UNL     1      50.249   3.536  17.146  0.00  0.00    +0.000 OA
ATOM     33  C   UNL     1      52.464   3.228  17.983  0.00  0.00    +0.000 A 
ATOM     34  H   UNL     1      50.197   1.138  16.866  0.00  0.00    +0.000 HD
ENDBRANCH  21  24
ENDBRANCH  19  20
ENDBRANCH   4  19
TORSDOF 6
ENDMDL
MODEL 7
REMARK VINA RESULT:    -6.082      3.450      8.475
REMARK INTER + INTRA:          -9.147
REMARK INTER:                  -7.918
REMARK INTRA:                  -1.228
REMARK UNBOUND:                -0.931
REMARK  Name = 
REMARK  6 active torsions:
REMARK  status: ('A' for Active; 'I' for Inactive)
REMARK    1  A    between atoms: C_2  and  C_3
REMARK    2  A    between atoms: N_10  and  C_11
REMARK    3  A    between atoms: C_11  and  C_12
REMARK    4  A    between atoms: C_15  and  C_16
REMARK    5  A    between atoms: C_16  and  N_17
REMARK    6  A    between atoms: C_18  and  C_20
REMARK                            x       y       z     vdW  Elec       q    Type
REMARK                         _______ _______ _______ _____ _____    ______ ____
ROOT
ATOM      1  C   UNL     1      47.378   8.581  12.406  0.00  0.00    +0.000 C 
ATOM      2  C   UNL     1      48.549   7.802  11.790  0.00  0.00    +0.000 C 
ATOM      3  C   UNL     1      49.853   7.951  12.570  0.00  0.00    +0.000 C 
ATOM      4  C   UNL     1      49.704   7.516  14.030  0.00  0.00    +0.000 C 
ATOM      5  C   UNL     1      48.556   8.322  14.673  0.00  0.00    +0.000 C 
ATOM      6  C   UNL     1      47.233   8.207  13.893  0.00  0.00    +0.000 C 
ENDROOT
BRANCH   1   7
ATOM      7  C   UNL     1      46.054   8.353  11.631  0.00  0.00    +0.000 C 
BRANCH   7  15
ATOM      8  C   UNL     1      44.924   4.042  12.583  0.00  0.00    +0.000 A 
ATOM      9  C   UNL     1      44.020   2.995  12.493  0.00  0.00    +0.000 A 
ATOM     10  C   UNL     1      43.301   3.149  11.294  0.00  0.00    +0.000 A 
ATOM     11  C   UNL     1      43.819   4.255  10.664  0.00  0.00    +0.000 A 
ATOM     12  N   UNL     1      44.818   4.837  11.443  0.00  0.00    +0.000 N 
ATOM     13  C   UNL     1      45.537   5.998  11.040  0.00  0.00    +0.000 C 
ATOM     14  O   UNL     1      46.093   6.016   9.957  0.00  0.00    +0.000 OA
ATOM     15  N   UNL     1      45.438   7.054  11.923  0.00  0.00    +0.000 N 
ATOM     16  H   UNL     1      45.044   6.928  12.844  0.00  0.00    +0.000 HD
BRANCH   8  18
ATOM     17  N   UNL     1      46.566   4.384  14.532  0.00  0.00    +0.000 NA
ATOM     18  C   UNL     1      45.826   4.208  13.682  0.00  0.00    +0.000 C 
ENDBRANCH   8  18
ENDBRANCH   7  15
ENDBRANCH   1   7
BRANCH   4  19
ATOM     19  C   UNL     1      51.029   7.684  14.805  0.00  0.00    +0.000 C 
BRANCH  19  20
ATOM     20  N   UNL     1      50.995   7.114  16.140  0.00  0.00    +0.000 N 
ATOM     21  C   UNL     1      52.026   6.393  16.686  0.00  0.00    +0.000 C 
ATOM     22  O   UNL     1      53.094   6.232  16.094  0.00  0.00    +0.000 OA
ATOM     23  H   UNL     1      50.145   7.229  16.665  0.00  0.00    +0.000 HD
BRANCH  21  24
ATOM     24  C   UNL     1      51.790   5.845  18.028  0.00  0.00    +0.000 A 
ATOM     25  C   UNL     1      52.642   6.125  19.090  0.00  0.00    +0.000 A 
ATOM     26  S   UNL     1      52.087   5.510  20.587  0.00  0.00    +0.000 S 
ATOM     27  C   UNL     1      50.629   5.010  19.878  0.00  0.00    +0.000 A 
ATOM     28  N   UNL     1      49.530   4.741  20.627  0.00  0.00    +0.000 NA
ATOM     29  C   UNL     1      48.510   4.343  19.939  0.00  0.00    +0.000 A 
ATOM     30  N   UNL     1      48.549   4.003  18.620  0.00  0.00    +0.000 N 
ATOM     31  C   UNL     1      49.523   4.501  17.804  0.00  0.00    +0.000 A 
ATOM     32  O   UNL     1      49.344   4.520  16.584  0.00  0.00    +0.000 OA
ATOM     33  C   UNL     1      50.672   5.057  18.495  0.00  0.00    +0.000 A 
ATOM     34  H   UNL     1      47.725   3.658  18.154  0.00  0.00    +0.000 HD
ENDBRANCH  21  24
ENDBRANCH  19  20
ENDBRANCH   4  19
TORSDOF 6
ENDMDL
MODEL 8
REMARK VINA RESULT:    -5.408      5.107      8.697
REMARK INTER + INTRA:          -8.235
REMARK INTER:                  -7.196
REMARK INTRA:                  -1.039
REMARK UNBOUND:                -0.931
REMARK  Name = 
REMARK  6 active torsions:
REMARK  status: ('A' for Active; 'I' for Inactive)
REMARK    1  A    between atoms: C_2  and  C_3
REMARK    2  A    between atoms: N_10  and  C_11
REMARK    3  A    between atoms: C_11  and  C_12
REMARK    4  A    between atoms: C_15  and  C_16
REMARK    5  A    between atoms: C_16  and  N_17
REMARK    6  A    between atoms: C_18  and  C_20
REMARK                            x       y       z     vdW  Elec       q    Type
REMARK                         _______ _______ _______ _____ _____    ______ ____
ROOT
ATOM      1  C   UNL     1      48.848   7.428  13.576  0.00  0.00    +0.000 C 
ATOM      2  C   UNL     1      49.185   7.374  12.079  0.00  0.00    +0.000 C 
ATOM      3  C   UNL     1      50.113   8.498  11.626  0.00  0.00    +0.000 C 
ATOM      4  C   UNL     1      51.426   8.514  12.412  0.00  0.00    +0.000 C 
ATOM      5  C   UNL     1      51.102   8.610  13.918  0.00  0.00    +0.000 C 
ATOM      6  C   UNL     1      50.149   7.499  14.397  0.00  0.00    +0.000 C 
ENDROOT
BRANCH   1   7
ATOM      7  C   UNL     1      47.962   6.234  14.017  0.00  0.00    +0.000 C 
BRANCH   7  15
ATOM      8  C   UNL     1      44.427   5.377  11.269  0.00  0.00    +0.000 A 
ATOM      9  C   UNL     1      43.808   4.559  10.339  0.00  0.00    +0.000 A 
ATOM     10  C   UNL     1      44.213   3.236  10.592  0.00  0.00    +0.000 A 
ATOM     11  C   UNL     1      45.027   3.278  11.698  0.00  0.00    +0.000 A 
ATOM     12  N   UNL     1      45.189   4.593  12.134  0.00  0.00    +0.000 N 
ATOM     13  C   UNL     1      45.980   4.942  13.266  0.00  0.00    +0.000 C 
ATOM     14  O   UNL     1      45.770   4.402  14.336  0.00  0.00    +0.000 OA
ATOM     15  N   UNL     1      47.003   5.824  12.985  0.00  0.00    +0.000 N 
ATOM     16  H   UNL     1      47.048   6.304  12.097  0.00  0.00    +0.000 HD
BRANCH   8  18
ATOM     17  N   UNL     1      44.155   7.933  11.361  0.00  0.00    +0.000 NA
ATOM     18  C   UNL     1      44.248   6.797  11.310  0.00  0.00    +0.000 C 
ENDBRANCH   8  18
ENDBRANCH   7  15
ENDBRANCH   1   7
BRANCH   4  19
ATOM     19  C   UNL     1      52.346   9.664  11.948  0.00  0.00    +0.000 C 
BRANCH  19  20
ATOM     20  N   UNL     1      52.902   9.462  10.622  0.00  0.00    +0.000 N 
ATOM     21  C   UNL     1      52.514  10.175   9.517  0.00  0.00    +0.000 C 
ATOM     22  O   UNL     1      51.698  11.096   9.589  0.00  0.00    +0.000 OA
ATOM     23  H   UNL     1      53.579   8.726  10.517  0.00  0.00    +0.000 HD
BRANCH  21  24
ATOM     24  C   UNL     1      53.145   9.793   8.247  0.00  0.00    +0.000 A 
ATOM     25  C   UNL     1      53.787  10.727   7.442  0.00  0.00    +0.000 A 
ATOM     26  S   UNL     1      54.582  10.032   6.096  0.00  0.00    +0.000 S 
ATOM     27  C   UNL     1      54.228   8.469   6.653  0.00  0.00    +0.000 A 
ATOM     28  N   UNL     1      54.911   7.384   6.207  0.00  0.00    +0.000 NA
ATOM     29  C   UNL     1      54.502   6.264   6.706  0.00  0.00    +0.000 A 
ATOM     30  N   UNL     1      53.363   6.112   7.441  0.00  0.00    +0.000 N 
ATOM     31  C   UNL     1      52.825   7.171   8.112  0.00  0.00    +0.000 A 
ATOM     32  O   UNL     1      52.060   6.967   9.058  0.00  0.00    +0.000 OA
ATOM     33  C   UNL     1      53.300   8.473   7.680  0.00  0.00    +0.000 A 
ATOM     34  H   UNL     1      53.078   5.202   7.764  0.00  0.00    +0.000 HD
ENDBRANCH  21  24
ENDBRANCH  19  20
ENDBRANCH   4  19
TORSDOF 6
ENDMDL
MODEL 9
REMARK VINA RESULT:    -5.142      3.533      9.348
REMARK INTER + INTRA:          -7.877
REMARK INTER:                  -6.848
REMARK INTRA:                  -1.029
REMARK UNBOUND:                -0.931
REMARK  Name = 
REMARK  6 active torsions:
REMARK  status: ('A' for Active; 'I' for Inactive)
REMARK    1  A    between atoms: C_2  and  C_3
REMARK    2  A    between atoms: N_10  and  C_11
REMARK    3  A    between atoms: C_11  and  C_12
REMARK    4  A    between atoms: C_15  and  C_16
REMARK    5  A    between atoms: C_16  and  N_17
REMARK    6  A    between atoms: C_18  and  C_20
REMARK                            x       y       z     vdW  Elec       q    Type
REMARK                         _______ _______ _______ _____ _____    ______ ____
ROOT
ATOM      1  C   UNL     1      48.717   7.941  15.328  0.00  0.00    +0.000 C 
ATOM      2  C   UNL     1      48.618   6.483  15.799  0.00  0.00    +0.000 C 
ATOM      3  C   UNL     1      49.331   6.226  17.125  0.00  0.00    +0.000 C 
ATOM      4  C   UNL     1      48.810   7.128  18.245  0.00  0.00    +0.000 C 
ATOM      5  C   UNL     1      48.943   8.600  17.799  0.00  0.00    +0.000 C 
ATOM      6  C   UNL     1      48.250   8.883  16.453  0.00  0.00    +0.000 C 
ENDROOT
BRANCH   1   7
ATOM      7  C   UNL     1      47.926   8.184  14.017  0.00  0.00    +0.000 C 
BRANCH   7  15
ATOM      8  C   UNL     1      45.928   4.280  12.774  0.00  0.00    +0.000 A 
ATOM      9  C   UNL     1      44.845   3.614  12.224  0.00  0.00    +0.000 A 
ATOM     10  C   UNL     1      44.237   4.476  11.294  0.00  0.00    +0.000 A 
ATOM     11  C   UNL     1      44.993   5.622  11.266  0.00  0.00    +0.000 A 
ATOM     12  N   UNL     1      46.042   5.537  12.181  0.00  0.00    +0.000 N 
ATOM     13  C   UNL     1      46.994   6.579  12.368  0.00  0.00    +0.000 C 
ATOM     14  O   UNL     1      47.602   7.018  11.409  0.00  0.00    +0.000 OA
ATOM     15  N   UNL     1      47.054   7.059  13.660  0.00  0.00    +0.000 N 
ATOM     16  H   UNL     1      46.592   6.576  14.418  0.00  0.00    +0.000 HD
BRANCH   8  18
ATOM     17  N   UNL     1      47.506   3.268  14.535  0.00  0.00    +0.000 NA
ATOM     18  C   UNL     1      46.783   3.704  13.768  0.00  0.00    +0.000 C 
ENDBRANCH   8  18
ENDBRANCH   7  15
ENDBRANCH   1   7
BRANCH   4  19
ATOM     19  C   UNL     1      49.550   6.862  19.574  0.00  0.00    +0.000 C 
BRANCH  19  20
ATOM     20  N   UNL     1      50.673   5.950  19.438  0.00  0.00    +0.000 N 
ATOM     21  C   UNL     1      51.951   6.254  19.831  0.00  0.00    +0.000 C 
ATOM     22  O   UNL     1      52.226   7.315  20.394  0.00  0.00    +0.000 OA
ATOM     23  H   UNL     1      50.494   5.067  18.992  0.00  0.00    +0.000 HD
BRANCH  21  24
ATOM     24  C   UNL     1      52.969   5.230  19.562  0.00  0.00    +0.000 A 
ATOM     25  C   UNL     1      52.967   4.007  20.224  0.00  0.00    +0.000 A 
ATOM     26  S   UNL     1      54.147   2.915  19.639  0.00  0.00    +0.000 S 
ATOM     27  C   UNL     1      54.565   3.985  18.391  0.00  0.00    +0.000 A 
ATOM     28  N   UNL     1      55.238   3.564  17.290  0.00  0.00    +0.000 NA
ATOM     29  C   UNL     1      55.507   4.506  16.447  0.00  0.00    +0.000 A 
ATOM     30  N   UNL     1      55.345   5.837  16.692  0.00  0.00    +0.000 N 
ATOM     31  C   UNL     1      54.456   6.265  17.634  0.00  0.00    +0.000 A 
ATOM     32  O   UNL     1      54.029   7.421  17.588  0.00  0.00    +0.000 OA
ATOM     33  C   UNL     1      54.023   5.246  18.573  0.00  0.00    +0.000 A 
ATOM     34  H   UNL     1      55.616   6.522  16.006  0.00  0.00    +0.000 HD
ENDBRANCH  21  24
ENDBRANCH  19  20
ENDBRANCH   4  19
TORSDOF 6
ENDMDL
