MODEL 1
REMARK VINA RESULT:    -7.738      0.000      0.000
REMARK INTER + INTRA:         -12.026
REMARK INTER:                 -10.904
REMARK INTRA:                  -1.123
REMARK UNBOUND:                -1.123
REMARK  Name = 
REMARK  7 active torsions:
REMARK  status: ('A' for Active; 'I' for Inactive)
REMARK    1  A    between atoms: C_2  and  C_19
REMARK    2  A    between atoms: N_3  and  C_4
REMARK    3  A    between atoms: C_4  and  C_5
REMARK    4  A    between atoms: C_8  and  C_9
REMARK    5  A    between atoms: C_9  and  C_10
REMARK    6  A    between atoms: C_10  and  C_11
REMARK    7  A    between atoms: C_11  and  N_12
REMARK                            x       y       z     vdW  Elec       q    Type
REMARK                         _______ _______ _______ _____ _____    ______ ____
ROOT
ATOM      1  O   UNL     1      49.437   6.952  13.585  0.00  0.00    +0.000 OA
ATOM      2  C   UNL     1      48.639   6.837  14.511  0.00  0.00    +0.000 C 
ATOM      3  N   UNL     1      47.332   7.238  14.410  0.00  0.00    +0.000 N 
ATOM      4  H   UNL     1      46.757   7.276  15.244  0.00  0.00    +0.000 HD
ENDROOT
BRANCH   2   5
ATOM      5  C   UNL     1      49.026   6.206  15.777  0.00  0.00    +0.000 A 
ATOM      6  C   UNL     1      50.080   6.730  16.514  0.00  0.00    +0.000 A 
ATOM      7  S   UNL     1      50.383   5.888  17.965  0.00  0.00    +0.000 S 
ATOM      8  C   UNL     1      49.095   4.816  17.677  0.00  0.00    +0.000 A 
ATOM      9  N   UNL     1      48.774   3.849  18.578  0.00  0.00    +0.000 NA
ATOM     10  C   UNL     1      47.751   3.131  18.249  0.00  0.00    +0.000 A 
ATOM     11  N   UNL     1      47.035   3.279  17.091  0.00  0.00    +0.000 N 
ATOM     12  C   UNL     1      47.374   4.184  16.115  0.00  0.00    +0.000 A 
ATOM     13  O   UNL     1      46.815   4.186  15.026  0.00  0.00    +0.000 OA
ATOM     14  C   UNL     1      48.469   5.064  16.464  0.00  0.00    +0.000 A 
ATOM     15  H   UNL     1      46.274   2.653  16.870  0.00  0.00    +0.000 HD
ENDBRANCH   2   5
BRANCH   3  16
ATOM     16  C   UNL     1      46.806   7.874  13.230  0.00  0.00    +0.000 C 
BRANCH  16  17
ATOM     17  C   UNL     1      46.040   6.918  12.367  0.00  0.00    +0.000 A 
ATOM     18  C   UNL     1      46.431   6.657  11.053  0.00  0.00    +0.000 A 
ATOM     19  C   UNL     1      45.732   5.722  10.296  0.00  0.00    +0.000 A 
ATOM     20  C   UNL     1      44.638   5.075  10.865  0.00  0.00    +0.000 A 
ATOM     21  N   UNL     1      44.209   5.346  12.122  0.00  0.00    +0.000 NA
ATOM     22  C   UNL     1      44.915   6.252  12.839  0.00  0.00    +0.000 A 
BRANCH  20  23
ATOM     23  C   UNL     1      43.890   4.017  10.098  0.00  0.00    +0.000 C 
BRANCH  23  24
ATOM     24  C   UNL     1      44.537   3.639   8.762  0.00  0.00    +0.000 C 
BRANCH  24  25
ATOM     25  C   UNL     1      45.123   2.219   8.700  0.00  0.00    +0.000 C 
BRANCH  25  26
ATOM     26  N   UNL     1      45.926   1.991   7.500  0.00  0.00    +0.000 NA
ATOM     27  C   UNL     1      46.702   3.147   7.059  0.00  0.00    +0.000 C 
ATOM     28  C   UNL     1      48.083   2.607   6.718  0.00  0.00    +0.000 C 
ATOM     29  O   UNL     1      47.977   1.183   6.756  0.00  0.00    +0.000 OA
ATOM     30  C   UNL     1      46.893   0.917   7.644  0.00  0.00    +0.000 C 
ENDBRANCH  25  26
ENDBRANCH  24  25
ENDBRANCH  23  24
ENDBRANCH  20  23
ENDBRANCH  16  17
ENDBRANCH   3  16
TORSDOF 7
ENDMDL
MODEL 2
REMARK VINA RESULT:    -6.970      3.466      7.704
REMARK INTER + INTRA:         -10.944
REMARK INTER:                  -9.744
REMARK INTRA:                  -1.201
REMARK UNBOUND:                -1.123
REMARK  Name = 
REMARK  7 active torsions:
REMARK  status: ('A' for Active; 'I' for Inactive)
REMARK    1  A    between atoms: C_2  and  C_19
REMARK    2  A    between atoms: N_3  and  C_4
REMARK    3  A    between atoms: C_4  and  C_5
REMARK    4  A    between atoms: C_8  and  C_9
REMARK    5  A    between atoms: C_9  and  C_10
REMARK    6  A    between atoms: C_10  and  C_11
REMARK    7  A    between atoms: C_11  and  N_12
REMARK                            x       y       z     vdW  Elec       q    Type
REMARK                         _______ _______ _______ _____ _____    ______ ____
ROOT
ATOM      1  O   UNL     1      45.514   7.880  11.686  0.00  0.00    +0.000 OA
ATOM      2  C   UNL     1      46.178   6.886  11.405  0.00  0.00    +0.000 C 
ATOM      3  N   UNL     1      47.514   6.787  11.695  0.00  0.00    +0.000 N 
ATOM      4  H   UNL     1      48.054   6.025  11.300  0.00  0.00    +0.000 HD
ENDROOT
BRANCH   2   5
ATOM      5  C   UNL     1      45.561   5.709  10.783  0.00  0.00    +0.000 A 
ATOM      6  C   UNL     1      45.750   5.467   9.428  0.00  0.00    +0.000 A 
ATOM      7  S   UNL     1      44.982   4.050   8.874  0.00  0.00    +0.000 S 
ATOM      8  C   UNL     1      44.401   3.690  10.431  0.00  0.00    +0.000 A 
ATOM      9  N   UNL     1      43.684   2.558  10.667  0.00  0.00    +0.000 NA
ATOM     10  C   UNL     1      43.338   2.393  11.901  0.00  0.00    +0.000 A 
ATOM     11  N   UNL     1      43.626   3.268  12.916  0.00  0.00    +0.000 N 
ATOM     12  C   UNL     1      44.272   4.463  12.709  0.00  0.00    +0.000 A 
ATOM     13  O   UNL     1      44.375   5.293  13.603  0.00  0.00    +0.000 OA
ATOM     14  C   UNL     1      44.746   4.665  11.356  0.00  0.00    +0.000 A 
ATOM     15  H   UNL     1      43.285   3.103  13.852  0.00  0.00    +0.000 HD
ENDBRANCH   2   5
BRANCH   3  16
ATOM     16  C   UNL     1      48.255   7.860  12.303  0.00  0.00    +0.000 C 
BRANCH  16  17
ATOM     17  C   UNL     1      48.911   7.438  13.583  0.00  0.00    +0.000 A 
ATOM     18  C   UNL     1      50.190   7.881  13.920  0.00  0.00    +0.000 A 
ATOM     19  C   UNL     1      50.748   7.517  15.142  0.00  0.00    +0.000 A 
ATOM     20  C   UNL     1      50.020   6.696  15.998  0.00  0.00    +0.000 A 
ATOM     21  N   UNL     1      48.796   6.212  15.673  0.00  0.00    +0.000 NA
ATOM     22  C   UNL     1      48.273   6.593  14.483  0.00  0.00    +0.000 A 
BRANCH  20  23
ATOM     23  C   UNL     1      50.566   6.324  17.352  0.00  0.00    +0.000 C 
BRANCH  23  24
ATOM     24  C   UNL     1      49.584   5.539  18.227  0.00  0.00    +0.000 C 
BRANCH  24  25
ATOM     25  C   UNL     1      50.119   4.205  18.772  0.00  0.00    +0.000 C 
BRANCH  25  26
ATOM     26  N   UNL     1      49.493   3.044  18.143  0.00  0.00    +0.000 NA
ATOM     27  C   UNL     1      48.172   3.300  17.575  0.00  0.00    +0.000 C 
ATOM     28  C   UNL     1      48.175   2.623  16.213  0.00  0.00    +0.000 C 
ATOM     29  O   UNL     1      49.370   1.842  16.156  0.00  0.00    +0.000 OA
ATOM     30  C   UNL     1      50.273   2.482  17.055  0.00  0.00    +0.000 C 
ENDBRANCH  25  26
ENDBRANCH  24  25
ENDBRANCH  23  24
ENDBRANCH  20  23
ENDBRANCH  16  17
ENDBRANCH   3  16
TORSDOF 7
ENDMDL
MODEL 3
REMARK VINA RESULT:    -6.705      1.806      2.218
REMARK INTER + INTRA:         -10.571
REMARK INTER:                  -9.707
REMARK INTRA:                  -0.864
REMARK UNBOUND:                -1.123
REMARK  Name = 
REMARK  7 active torsions:
REMARK  status: ('A' for Active; 'I' for Inactive)
REMARK    1  A    between atoms: C_2  and  C_19
REMARK    2  A    between atoms: N_3  and  C_4
REMARK    3  A    between atoms: C_4  and  C_5
REMARK    4  A    between atoms: C_8  and  C_9
REMARK    5  A    between atoms: C_9  and  C_10
REMARK    6  A    between atoms: C_10  and  C_11
REMARK    7  A    between atoms: C_11  and  N_12
REMARK                            x       y       z     vdW  Elec       q    Type
REMARK                         _______ _______ _______ _____ _____    ______ ____
ROOT
ATOM      1  O   UNL     1      49.845   8.031  15.312  0.00  0.00    +0.000 OA
ATOM      2  C   UNL     1      48.939   7.331  15.754  0.00  0.00    +0.000 C 
ATOM      3  N   UNL     1      48.130   6.576  14.945  0.00  0.00    +0.000 N 
ATOM      4  H   UNL     1      47.298   6.147  15.334  0.00  0.00    +0.000 HD
ENDROOT
BRANCH   2   5
ATOM      5  C   UNL     1      48.700   7.216  17.197  0.00  0.00    +0.000 A 
ATOM      6  C   UNL     1      48.217   8.309  17.905  0.00  0.00    +0.000 A 
ATOM      7  S   UNL     1      47.978   7.996  19.563  0.00  0.00    +0.000 S 
ATOM      8  C   UNL     1      48.478   6.381  19.388  0.00  0.00    +0.000 A 
ATOM      9  N   UNL     1      48.469   5.526  20.446  0.00  0.00    +0.000 NA
ATOM     10  C   UNL     1      48.837   4.320  20.161  0.00  0.00    +0.000 A 
ATOM     11  N   UNL     1      49.233   3.899  18.920  0.00  0.00    +0.000 N 
ATOM     12  C   UNL     1      49.339   4.746  17.843  0.00  0.00    +0.000 A 
ATOM     13  O   UNL     1      49.845   4.377  16.791  0.00  0.00    +0.000 OA
ATOM     14  C   UNL     1      48.870   6.093  18.088  0.00  0.00    +0.000 A 
ATOM     15  H   UNL     1      49.555   2.953  18.774  0.00  0.00    +0.000 HD
ENDBRANCH   2   5
BRANCH   3  16
ATOM     16  C   UNL     1      48.244   6.587  13.510  0.00  0.00    +0.000 C 
BRANCH  16  17
ATOM     17  C   UNL     1      47.138   5.820  12.851  0.00  0.00    +0.000 A 
ATOM     18  C   UNL     1      46.633   4.649  13.418  0.00  0.00    +0.000 A 
ATOM     19  C   UNL     1      45.567   3.991  12.811  0.00  0.00    +0.000 A 
ATOM     20  C   UNL     1      45.038   4.509  11.632  0.00  0.00    +0.000 A 
ATOM     21  N   UNL     1      45.542   5.616  11.035  0.00  0.00    +0.000 NA
ATOM     22  C   UNL     1      46.572   6.243  11.655  0.00  0.00    +0.000 A 
BRANCH  20  23
ATOM     23  C   UNL     1      43.850   3.857  10.974  0.00  0.00    +0.000 C 
BRANCH  23  24
ATOM     24  C   UNL     1      44.217   2.807   9.922  0.00  0.00    +0.000 C 
BRANCH  24  25
ATOM     25  C   UNL     1      44.646   3.372   8.558  0.00  0.00    +0.000 C 
BRANCH  25  26
ATOM     26  N   UNL     1      46.009   2.995   8.192  0.00  0.00    +0.000 NA
ATOM     27  C   UNL     1      46.276   1.560   8.237  0.00  0.00    +0.000 C 
ATOM     28  C   UNL     1      47.052   1.248   6.967  0.00  0.00    +0.000 C 
ATOM     29  O   UNL     1      47.386   2.508   6.382  0.00  0.00    +0.000 OA
ATOM     30  C   UNL     1      46.388   3.410   6.853  0.00  0.00    +0.000 C 
ENDBRANCH  25  26
ENDBRANCH  24  25
ENDBRANCH  23  24
ENDBRANCH  20  23
ENDBRANCH  16  17
ENDBRANCH   3  16
TORSDOF 7
ENDMDL
MODEL 4
REMARK VINA RESULT:    -6.676      2.339      3.481
REMARK INTER + INTRA:         -10.531
REMARK INTER:                  -9.533
REMARK INTRA:                  -0.998
REMARK UNBOUND:                -1.123
REMARK  Name = 
REMARK  7 active torsions:
REMARK  status: ('A' for Active; 'I' for Inactive)
REMARK    1  A    between atoms: C_2  and  C_19
REMARK    2  A    between atoms: N_3  and  C_4
REMARK    3  A    between atoms: C_4  and  C_5
REMARK    4  A    between atoms: C_8  and  C_9
REMARK    5  A    between atoms: C_9  and  C_10
REMARK    6  A    between atoms: C_10  and  C_11
REMARK    7  A    between atoms: C_11  and  N_12
REMARK                            x       y       z     vdW  Elec       q    Type
REMARK                         _______ _______ _______ _____ _____    ______ ____
ROOT
ATOM      1  O   UNL     1      49.459   4.659  16.846  0.00  0.00    +0.000 OA
ATOM      2  C   UNL     1      48.487   5.405  16.773  0.00  0.00    +0.000 C 
ATOM      3  N   UNL     1      47.444   5.172  15.915  0.00  0.00    +0.000 N 
ATOM      4  H   UNL     1      46.747   5.895  15.771  0.00  0.00    +0.000 HD
ENDROOT
BRANCH   2   5
ATOM      5  C   UNL     1      48.355   6.574  17.649  0.00  0.00    +0.000 A 
ATOM      6  C   UNL     1      48.249   6.397  19.023  0.00  0.00    +0.000 A 
ATOM      7  S   UNL     1      48.124   7.858  19.891  0.00  0.00    +0.000 S 
ATOM      8  C   UNL     1      48.243   8.779  18.467  0.00  0.00    +0.000 A 
ATOM      9  N   UNL     1      48.245  10.139  18.511  0.00  0.00    +0.000 NA
ATOM     10  C   UNL     1      48.379  10.709  17.359  0.00  0.00    +0.000 A 
ATOM     11  N   UNL     1      48.489  10.043  16.167  0.00  0.00    +0.000 N 
ATOM     12  C   UNL     1      48.405   8.676  16.066  0.00  0.00    +0.000 A 
ATOM     13  O   UNL     1      48.347   8.120  14.977  0.00  0.00    +0.000 OA
ATOM     14  C   UNL     1      48.328   7.982  17.335  0.00  0.00    +0.000 A 
ATOM     15  H   UNL     1      48.543  10.550  15.295  0.00  0.00    +0.000 HD
ENDBRANCH   2   5
BRANCH   3  16
ATOM     16  C   UNL     1      47.431   4.065  14.994  0.00  0.00    +0.000 C 
BRANCH  16  17
ATOM     17  C   UNL     1      46.701   4.395  13.727  0.00  0.00    +0.000 A 
ATOM     18  C   UNL     1      46.749   5.677  13.178  0.00  0.00    +0.000 A 
ATOM     19  C   UNL     1      46.107   5.936  11.971  0.00  0.00    +0.000 A 
ATOM     20  C   UNL     1      45.410   4.908  11.343  0.00  0.00    +0.000 A 
ATOM     21  N   UNL     1      45.307   3.667  11.880  0.00  0.00    +0.000 NA
ATOM     22  C   UNL     1      45.952   3.441  13.050  0.00  0.00    +0.000 A 
BRANCH  20  23
ATOM     23  C   UNL     1      44.749   5.134  10.008  0.00  0.00    +0.000 C 
BRANCH  23  24
ATOM     24  C   UNL     1      44.516   3.852   9.202  0.00  0.00    +0.000 C 
BRANCH  24  25
ATOM     25  C   UNL     1      45.366   3.720   7.928  0.00  0.00    +0.000 C 
BRANCH  25  26
ATOM     26  N   UNL     1      46.472   2.778   8.080  0.00  0.00    +0.000 NA
ATOM     27  C   UNL     1      46.065   1.391   8.290  0.00  0.00    +0.000 C 
ATOM     28  C   UNL     1      46.963   0.559   7.388  0.00  0.00    +0.000 C 
ATOM     29  O   UNL     1      47.965   1.448   6.891  0.00  0.00    +0.000 OA
ATOM     30  C   UNL     1      47.366   2.742   6.937  0.00  0.00    +0.000 C 
ENDBRANCH  25  26
ENDBRANCH  24  25
ENDBRANCH  23  24
ENDBRANCH  20  23
ENDBRANCH  16  17
ENDBRANCH   3  16
TORSDOF 7
ENDMDL
MODEL 5
REMARK VINA RESULT:    -6.492      3.562      8.130
REMARK INTER + INTRA:         -10.272
REMARK INTER:                  -8.512
REMARK INTRA:                  -1.760
REMARK UNBOUND:                -1.123
REMARK  Name = 
REMARK  7 active torsions:
REMARK  status: ('A' for Active; 'I' for Inactive)
REMARK    1  A    between atoms: C_2  and  C_19
REMARK    2  A    between atoms: N_3  and  C_4
REMARK    3  A    between atoms: C_4  and  C_5
REMARK    4  A    between atoms: C_8  and  C_9
REMARK    5  A    between atoms: C_9  and  C_10
REMARK    6  A    between atoms: C_10  and  C_11
REMARK    7  A    between atoms: C_11  and  N_12
REMARK                            x       y       z     vdW  Elec       q    Type
REMARK                         _______ _______ _______ _____ _____    ______ ____
ROOT
ATOM      1  O   UNL     1      48.880   6.265  12.949  0.00  0.00    +0.000 OA
ATOM      2  C   UNL     1      47.743   6.477  13.358  0.00  0.00    +0.000 C 
ATOM      3  N   UNL     1      47.444   7.522  14.193  0.00  0.00    +0.000 N 
ATOM      4  H   UNL     1      46.531   7.562  14.634  0.00  0.00    +0.000 HD
ENDROOT
BRANCH   2   5
ATOM      5  C   UNL     1      46.611   5.648  12.928  0.00  0.00    +0.000 A 
ATOM      6  C   UNL     1      46.634   4.279  13.158  0.00  0.00    +0.000 A 
ATOM      7  S   UNL     1      45.234   3.472  12.614  0.00  0.00    +0.000 S 
ATOM      8  C   UNL     1      44.534   4.928  12.085  0.00  0.00    +0.000 A 
ATOM      9  N   UNL     1      43.285   4.949  11.544  0.00  0.00    +0.000 NA
ATOM     10  C   UNL     1      42.864   6.127  11.221  0.00  0.00    +0.000 A 
ATOM     11  N   UNL     1      43.585   7.282  11.369  0.00  0.00    +0.000 N 
ATOM     12  C   UNL     1      44.880   7.298  11.829  0.00  0.00    +0.000 A 
ATOM     13  O   UNL     1      45.552   8.321  11.802  0.00  0.00    +0.000 OA
ATOM     14  C   UNL     1      45.377   6.014  12.275  0.00  0.00    +0.000 A 
ATOM     15  H   UNL     1      43.216   8.166  11.051  0.00  0.00    +0.000 HD
ENDBRANCH   2   5
BRANCH   3  16
ATOM     16  C   UNL     1      48.449   8.420  14.700  0.00  0.00    +0.000 C 
BRANCH  16  17
ATOM     17  C   UNL     1      48.980   7.979  16.030  0.00  0.00    +0.000 A 
ATOM     18  C   UNL     1      48.363   8.368  17.220  0.00  0.00    +0.000 A 
ATOM     19  C   UNL     1      48.847   7.896  18.436  0.00  0.00    +0.000 A 
ATOM     20  C   UNL     1      49.957   7.056  18.440  0.00  0.00    +0.000 A 
ATOM     21  N   UNL     1      50.604   6.704  17.302  0.00  0.00    +0.000 NA
ATOM     22  C   UNL     1      50.104   7.169  16.133  0.00  0.00    +0.000 A 
BRANCH  20  23
ATOM     23  C   UNL     1      50.477   6.480  19.731  0.00  0.00    +0.000 C 
BRANCH  23  24
ATOM     24  C   UNL     1      50.315   4.962  19.847  0.00  0.00    +0.000 C 
BRANCH  24  25
ATOM     25  C   UNL     1      48.865   4.470  19.987  0.00  0.00    +0.000 C 
BRANCH  25  26
ATOM     26  N   UNL     1      48.391   3.762  18.799  0.00  0.00    +0.000 NA
ATOM     27  C   UNL     1      47.440   4.512  17.983  0.00  0.00    +0.000 C 
ATOM     28  C   UNL     1      47.887   4.310  16.544  0.00  0.00    +0.000 C 
ATOM     29  O   UNL     1      48.899   3.303  16.577  0.00  0.00    +0.000 OA
ATOM     30  C   UNL     1      49.455   3.379  17.888  0.00  0.00    +0.000 C 
ENDBRANCH  25  26
ENDBRANCH  24  25
ENDBRANCH  23  24
ENDBRANCH  20  23
ENDBRANCH  16  17
ENDBRANCH   3  16
TORSDOF 7
ENDMDL
MODEL 6
REMARK VINA RESULT:    -6.450      2.602      3.287
REMARK INTER + INTRA:         -10.213
REMARK INTER:                  -9.354
REMARK INTRA:                  -0.859
REMARK UNBOUND:                -1.123
REMARK  Name = 
REMARK  7 active torsions:
REMARK  status: ('A' for Active; 'I' for Inactive)
REMARK    1  A    between atoms: C_2  and  C_19
REMARK    2  A    between atoms: N_3  and  C_4
REMARK    3  A    between atoms: C_4  and  C_5
REMARK    4  A    between atoms: C_8  and  C_9
REMARK    5  A    between atoms: C_9  and  C_10
REMARK    6  A    between atoms: C_10  and  C_11
REMARK    7  A    between atoms: C_11  and  N_12
REMARK                            x       y       z     vdW  Elec       q    Type
REMARK                         _______ _______ _______ _____ _____    ______ ____
ROOT
ATOM      1  O   UNL     1      49.610   4.656  16.627  0.00  0.00    +0.000 OA
ATOM      2  C   UNL     1      48.899   5.636  16.425  0.00  0.00    +0.000 C 
ATOM      3  N   UNL     1      47.703   5.552  15.762  0.00  0.00    +0.000 N 
ATOM      4  H   UNL     1      47.232   6.404  15.475  0.00  0.00    +0.000 HD
ENDROOT
BRANCH   2   5
ATOM      5  C   UNL     1      49.265   6.962  16.935  0.00  0.00    +0.000 A 
ATOM      6  C   UNL     1      50.290   7.676  16.327  0.00  0.00    +0.000 A 
ATOM      7  S   UNL     1      50.571   9.202  17.032  0.00  0.00    +0.000 S 
ATOM      8  C   UNL     1      49.311   8.977  18.152  0.00  0.00    +0.000 A 
ATOM      9  N   UNL     1      48.984   9.952  19.044  0.00  0.00    +0.000 NA
ATOM     10  C   UNL     1      47.984   9.662  19.809  0.00  0.00    +0.000 A 
ATOM     11  N   UNL     1      47.295   8.478  19.777  0.00  0.00    +0.000 N 
ATOM     12  C   UNL     1      47.643   7.435  18.953  0.00  0.00    +0.000 A 
ATOM     13  O   UNL     1      47.112   6.337  19.058  0.00  0.00    +0.000 OA
ATOM     14  C   UNL     1      48.712   7.732  18.023  0.00  0.00    +0.000 A 
ATOM     15  H   UNL     1      46.552   8.295  20.435  0.00  0.00    +0.000 HD
ENDBRANCH   2   5
BRANCH   3  16
ATOM     16  C   UNL     1      47.212   4.320  15.203  0.00  0.00    +0.000 C 
BRANCH  16  17
ATOM     17  C   UNL     1      46.653   4.509  13.825  0.00  0.00    +0.000 A 
ATOM     18  C   UNL     1      45.957   3.485  13.181  0.00  0.00    +0.000 A 
ATOM     19  C   UNL     1      45.401   3.710  11.925  0.00  0.00    +0.000 A 
ATOM     20  C   UNL     1      45.571   4.955  11.326  0.00  0.00    +0.000 A 
ATOM     21  N   UNL     1      46.285   5.950  11.909  0.00  0.00    +0.000 NA
ATOM     22  C   UNL     1      46.804   5.706  13.136  0.00  0.00    +0.000 A 
BRANCH  20  23
ATOM     23  C   UNL     1      44.939   5.256   9.992  0.00  0.00    +0.000 C 
BRANCH  23  24
ATOM     24  C   UNL     1      44.693   4.018   9.125  0.00  0.00    +0.000 C 
BRANCH  24  25
ATOM     25  C   UNL     1      45.614   3.885   7.901  0.00  0.00    +0.000 C 
BRANCH  25  26
ATOM     26  N   UNL     1      46.622   2.840   8.062  0.00  0.00    +0.000 NA
ATOM     27  C   UNL     1      46.082   1.511   8.334  0.00  0.00    +0.000 C 
ATOM     28  C   UNL     1      46.866   0.560   7.443  0.00  0.00    +0.000 C 
ATOM     29  O   UNL     1      47.938   1.324   6.888  0.00  0.00    +0.000 OA
ATOM     30  C   UNL     1      47.476   2.673   6.900  0.00  0.00    +0.000 C 
ENDBRANCH  25  26
ENDBRANCH  24  25
ENDBRANCH  23  24
ENDBRANCH  20  23
ENDBRANCH  16  17
ENDBRANCH   3  16
TORSDOF 7
ENDMDL
MODEL 7
REMARK VINA RESULT:    -6.376      3.541      7.722
REMARK INTER + INTRA:         -10.107
REMARK INTER:                  -8.961
REMARK INTRA:                  -1.146
REMARK UNBOUND:                -1.123
REMARK  Name = 
REMARK  7 active torsions:
REMARK  status: ('A' for Active; 'I' for Inactive)
REMARK    1  A    between atoms: C_2  and  C_19
REMARK    2  A    between atoms: N_3  and  C_4
REMARK    3  A    between atoms: C_4  and  C_5
REMARK    4  A    between atoms: C_8  and  C_9
REMARK    5  A    between atoms: C_9  and  C_10
REMARK    6  A    between atoms: C_10  and  C_11
REMARK    7  A    between atoms: C_11  and  N_12
REMARK                            x       y       z     vdW  Elec       q    Type
REMARK                         _______ _______ _______ _____ _____    ______ ____
ROOT
ATOM      1  O   UNL     1      48.989   6.332  12.614  0.00  0.00    +0.000 OA
ATOM      2  C   UNL     1      47.970   6.887  13.012  0.00  0.00    +0.000 C 
ATOM      3  N   UNL     1      48.000   7.943  13.885  0.00  0.00    +0.000 N 
ATOM      4  H   UNL     1      47.137   8.261  14.312  0.00  0.00    +0.000 HD
ENDROOT
BRANCH   2   5
ATOM      5  C   UNL     1      46.644   6.484  12.530  0.00  0.00    +0.000 A 
ATOM      6  C   UNL     1      45.824   7.417  11.908  0.00  0.00    +0.000 A 
ATOM      7  S   UNL     1      44.331   6.778  11.393  0.00  0.00    +0.000 S 
ATOM      8  C   UNL     1      44.741   5.224  11.949  0.00  0.00    +0.000 A 
ATOM      9  N   UNL     1      43.896   4.172  11.776  0.00  0.00    +0.000 NA
ATOM     10  C   UNL     1      44.351   3.045  12.213  0.00  0.00    +0.000 A 
ATOM     11  N   UNL     1      45.565   2.878  12.827  0.00  0.00    +0.000 N 
ATOM     12  C   UNL     1      46.412   3.925  13.100  0.00  0.00    +0.000 A 
ATOM     13  O   UNL     1      47.413   3.771  13.787  0.00  0.00    +0.000 OA
ATOM     14  C   UNL     1      45.984   5.201  12.566  0.00  0.00    +0.000 A 
ATOM     15  H   UNL     1      45.841   1.977  13.189  0.00  0.00    +0.000 HD
ENDBRANCH   2   5
BRANCH   3  16
ATOM     16  C   UNL     1      49.226   8.450  14.445  0.00  0.00    +0.000 C 
BRANCH  16  17
ATOM     17  C   UNL     1      49.453   7.958  15.842  0.00  0.00    +0.000 A 
ATOM     18  C   UNL     1      48.508   8.172  16.847  0.00  0.00    +0.000 A 
ATOM     19  C   UNL     1      48.723   7.653  18.120  0.00  0.00    +0.000 A 
ATOM     20  C   UNL     1      49.895   6.944  18.371  0.00  0.00    +0.000 A 
ATOM     21  N   UNL     1      50.851   6.765  17.427  0.00  0.00    +0.000 NA
ATOM     22  C   UNL     1      50.609   7.271  16.193  0.00  0.00    +0.000 A 
BRANCH  20  23
ATOM     23  C   UNL     1      50.139   6.320  19.720  0.00  0.00    +0.000 C 
BRANCH  23  24
ATOM     24  C   UNL     1      50.036   4.792  19.729  0.00  0.00    +0.000 C 
BRANCH  24  25
ATOM     25  C   UNL     1      48.930   4.208  18.836  0.00  0.00    +0.000 C 
BRANCH  25  26
ATOM     26  N   UNL     1      49.441   3.677  17.574  0.00  0.00    +0.000 NA
ATOM     27  C   UNL     1      50.760   3.057  17.666  0.00  0.00    +0.000 C 
ATOM     28  C   UNL     1      50.662   1.766  16.869  0.00  0.00    +0.000 C 
ATOM     29  O   UNL     1      49.408   1.811  16.187  0.00  0.00    +0.000 OA
ATOM     30  C   UNL     1      48.586   2.665  16.980  0.00  0.00    +0.000 C 
ENDBRANCH  25  26
ENDBRANCH  24  25
ENDBRANCH  23  24
ENDBRANCH  20  23
ENDBRANCH  16  17
ENDBRANCH   3  16
TORSDOF 7
ENDMDL
MODEL 8
REMARK VINA RESULT:    -6.315      4.425      9.095
REMARK INTER + INTRA:         -10.021
REMARK INTER:                  -9.214
REMARK INTRA:                  -0.807
REMARK UNBOUND:                -1.123
REMARK  Name = 
REMARK  7 active torsions:
REMARK  status: ('A' for Active; 'I' for Inactive)
REMARK    1  A    between atoms: C_2  and  C_19
REMARK    2  A    between atoms: N_3  and  C_4
REMARK    3  A    between atoms: C_4  and  C_5
REMARK    4  A    between atoms: C_8  and  C_9
REMARK    5  A    between atoms: C_9  and  C_10
REMARK    6  A    between atoms: C_10  and  C_11
REMARK    7  A    between atoms: C_11  and  N_12
REMARK                            x       y       z     vdW  Elec       q    Type
REMARK                         _______ _______ _______ _____ _____    ______ ____
ROOT
ATOM      1  O   UNL     1      47.214   3.062  14.078  0.00  0.00    +0.000 OA
ATOM      2  C   UNL     1      46.795   4.109  14.564  0.00  0.00    +0.000 C 
ATOM      3  N   UNL     1      46.775   4.335  15.916  0.00  0.00    +0.000 N 
ATOM      4  H   UNL     1      46.273   5.138  16.278  0.00  0.00    +0.000 HD
ENDROOT
BRANCH   2   5
ATOM      5  C   UNL     1      46.337   5.214  13.716  0.00  0.00    +0.000 A 
ATOM      6  C   UNL     1      47.160   6.315  13.515  0.00  0.00    +0.000 A 
ATOM      7  S   UNL     1      46.482   7.496  12.489  0.00  0.00    +0.000 S 
ATOM      8  C   UNL     1      45.082   6.562  12.249  0.00  0.00    +0.000 A 
ATOM      9  N   UNL     1      44.090   6.987  11.419  0.00  0.00    +0.000 NA
ATOM     10  C   UNL     1      43.103   6.162  11.301  0.00  0.00    +0.000 A 
ATOM     11  N   UNL     1      43.008   4.961  11.953  0.00  0.00    +0.000 N 
ATOM     12  C   UNL     1      43.943   4.531  12.864  0.00  0.00    +0.000 A 
ATOM     13  O   UNL     1      43.754   3.532  13.546  0.00  0.00    +0.000 OA
ATOM     14  C   UNL     1      45.107   5.384  12.981  0.00  0.00    +0.000 A 
ATOM     15  H   UNL     1      42.186   4.383  11.854  0.00  0.00    +0.000 HD
ENDBRANCH   2   5
BRANCH   3  16
ATOM     16  C   UNL     1      47.192   3.344  16.873  0.00  0.00    +0.000 C 
BRANCH  16  17
ATOM     17  C   UNL     1      48.665   3.404  17.141  0.00  0.00    +0.000 A 
ATOM     18  C   UNL     1      49.281   4.593  17.536  0.00  0.00    +0.000 A 
ATOM     19  C   UNL     1      50.640   4.603  17.832  0.00  0.00    +0.000 A 
ATOM     20  C   UNL     1      51.366   3.421  17.707  0.00  0.00    +0.000 A 
ATOM     21  N   UNL     1      50.803   2.265  17.279  0.00  0.00    +0.000 NA
ATOM     22  C   UNL     1      49.475   2.283  17.009  0.00  0.00    +0.000 A 
BRANCH  20  23
ATOM     23  C   UNL     1      52.827   3.378  18.071  0.00  0.00    +0.000 C 
BRANCH  23  24
ATOM     24  C   UNL     1      53.571   2.157  17.522  0.00  0.00    +0.000 C 
BRANCH  24  25
ATOM     25  C   UNL     1      54.981   1.940  18.095  0.00  0.00    +0.000 C 
BRANCH  25  26
ATOM     26  N   UNL     1      55.407   0.543  18.037  0.00  0.00    +0.000 NA
ATOM     27  C   UNL     1      55.089  -0.239  19.229  0.00  0.00    +0.000 C 
ATOM     28  C   UNL     1      54.538  -1.560  18.717  0.00  0.00    +0.000 C 
ATOM     29  O   UNL     1      54.769  -1.571  17.307  0.00  0.00    +0.000 OA
ATOM     30  C   UNL     1      54.825  -0.196  16.931  0.00  0.00    +0.000 C 
ENDBRANCH  25  26
ENDBRANCH  24  25
ENDBRANCH  23  24
ENDBRANCH  20  23
ENDBRANCH  16  17
ENDBRANCH   3  16
TORSDOF 7
ENDMDL
MODEL 9
REMARK VINA RESULT:    -6.260      2.912      8.424
REMARK INTER + INTRA:          -9.944
REMARK INTER:                  -8.688
REMARK INTRA:                  -1.256
REMARK UNBOUND:                -1.123
REMARK  Name = 
REMARK  7 active torsions:
REMARK  status: ('A' for Active; 'I' for Inactive)
REMARK    1  A    between atoms: C_2  and  C_19
REMARK    2  A    between atoms: N_3  and  C_4
REMARK    3  A    between atoms: C_4  and  C_5
REMARK    4  A    between atoms: C_8  and  C_9
REMARK    5  A    between atoms: C_9  and  C_10
REMARK    6  A    between atoms: C_10  and  C_11
REMARK    7  A    between atoms: C_11  and  N_12
REMARK                            x       y       z     vdW  Elec       q    Type
REMARK                         _______ _______ _______ _____ _____    ______ ____
ROOT
ATOM      1  O   UNL     1      44.462   7.417  11.790  0.00  0.00    +0.000 OA
ATOM      2  C   UNL     1      45.230   6.468  11.663  0.00  0.00    +0.000 C 
ATOM      3  N   UNL     1      46.583   6.587  11.846  0.00  0.00    +0.000 N 
ATOM      4  H   UNL     1      47.192   5.823  11.572  0.00  0.00    +0.000 HD
ENDROOT
BRANCH   2   5
ATOM      5  C   UNL     1      44.734   5.122  11.358  0.00  0.00    +0.000 A 
ATOM      6  C   UNL     1      43.969   4.440  12.296  0.00  0.00    +0.000 A 
ATOM      7  S   UNL     1      43.460   2.900  11.772  0.00  0.00    +0.000 S 
ATOM      8  C   UNL     1      44.213   3.104  10.261  0.00  0.00    +0.000 A 
ATOM      9  N   UNL     1      44.123   2.147   9.298  0.00  0.00    +0.000 NA
ATOM     10  C   UNL     1      44.710   2.450   8.188  0.00  0.00    +0.000 A 
ATOM     11  N   UNL     1      45.397   3.613   7.961  0.00  0.00    +0.000 N 
ATOM     12  C   UNL     1      45.587   4.568   8.931  0.00  0.00    +0.000 A 
ATOM     13  O   UNL     1      46.336   5.520   8.749  0.00  0.00    +0.000 OA
ATOM     14  C   UNL     1      44.888   4.313  10.172  0.00  0.00    +0.000 A 
ATOM     15  H   UNL     1      45.875   3.768   7.086  0.00  0.00    +0.000 HD
ENDBRANCH   2   5
BRANCH   3  16
ATOM     16  C   UNL     1      47.216   7.844  12.149  0.00  0.00    +0.000 C 
BRANCH  16  17
ATOM     17  C   UNL     1      47.804   7.862  13.527  0.00  0.00    +0.000 A 
ATOM     18  C   UNL     1      48.331   6.705  14.103  0.00  0.00    +0.000 A 
ATOM     19  C   UNL     1      48.921   6.766  15.362  0.00  0.00    +0.000 A 
ATOM     20  C   UNL     1      48.956   7.986  16.032  0.00  0.00    +0.000 A 
ATOM     21  N   UNL     1      48.408   9.113  15.516  0.00  0.00    +0.000 NA
ATOM     22  C   UNL     1      47.851   9.026  14.284  0.00  0.00    +0.000 A 
BRANCH  20  23
ATOM     23  C   UNL     1      49.635   8.105  17.372  0.00  0.00    +0.000 C 
BRANCH  23  24
ATOM     24  C   UNL     1      49.919   6.761  18.049  0.00  0.00    +0.000 C 
BRANCH  24  25
ATOM     25  C   UNL     1      49.002   6.422  19.235  0.00  0.00    +0.000 C 
BRANCH  25  26
ATOM     26  N   UNL     1      48.329   5.134  19.081  0.00  0.00    +0.000 NA
ATOM     27  C   UNL     1      47.162   5.159  18.203  0.00  0.00    +0.000 C 
ATOM     28  C   UNL     1      47.286   3.926  17.321  0.00  0.00    +0.000 C 
ATOM     29  O   UNL     1      48.356   3.152  17.865  0.00  0.00    +0.000 OA
ATOM     30  C   UNL     1      49.186   4.092  18.543  0.00  0.00    +0.000 C 
ENDBRANCH  25  26
ENDBRANCH  24  25
ENDBRANCH  23  24
ENDBRANCH  20  23
ENDBRANCH  16  17
ENDBRANCH   3  16
TORSDOF 7
ENDMDL
