MODEL 1
REMARK VINA RESULT:    -7.876      0.000      0.000
REMARK INTER + INTRA:         -12.788
REMARK INTER:                 -11.559
REMARK INTRA:                  -1.229
REMARK UNBOUND:                -1.229
REMARK  Name = 
REMARK  9 active torsions:
REMARK  status: ('A' for Active; 'I' for Inactive)
REMARK    1  A    between atoms: C_1  and  O_2
REMARK    2  A    between atoms: O_2  and  C_3
REMARK    3  A    between atoms: C_10  and  C_11
REMARK    4  A    between atoms: N_13  and  C_14
REMARK    5  A    between atoms: C_14  and  C_15
REMARK    6  A    between atoms: C_18  and  N_19
REMARK    7  A    between atoms: N_19  and  C_20
REMARK    8  A    between atoms: C_20  and  C_21
REMARK    9  A    between atoms: C_21  and  C_22
REMARK                            x       y       z     vdW  Elec       q    Type
REMARK                         _______ _______ _______ _____ _____    ______ ____
ROOT
ATOM      1  C   UNL     1      46.921   6.085  12.836  0.00  0.00    +0.000 A 
ATOM      2  C   UNL     1      46.870   4.867  13.517  0.00  0.00    +0.000 A 
ATOM      3  C   UNL     1      46.078   3.817  13.041  0.00  0.00    +0.000 A 
ATOM      4  C   UNL     1      45.288   3.960  11.896  0.00  0.00    +0.000 A 
ATOM      5  C   UNL     1      45.387   5.165  11.190  0.00  0.00    +0.000 A 
ATOM      6  C   UNL     1      46.185   6.219  11.654  0.00  0.00    +0.000 A 
ENDROOT
BRANCH   4   7
ATOM      7  N   UNL     1      44.511   2.921  11.371  0.00  0.00    +0.000 N 
ATOM      8  H   UNL     1      44.783   2.009  11.731  0.00  0.00    +0.000 HD
BRANCH   7   9
ATOM      9  C   UNL     1      44.187   2.891   9.940  0.00  0.00    +0.000 C 
BRANCH   9  10
ATOM     10  C   UNL     1      44.850   1.709   9.223  0.00  0.00    +0.000 C 
BRANCH  10  11
ATOM     11  C   UNL     1      45.880   2.166   8.222  0.00  0.00    +0.000 A 
ATOM     12  N   UNL     1      45.970   3.515   8.062  0.00  0.00    +0.000 NA
ATOM     13  C   UNL     1      46.855   3.986   7.156  0.00  0.00    +0.000 A 
ATOM     14  C   UNL     1      47.676   3.175   6.395  0.00  0.00    +0.000 A 
ATOM     15  C   UNL     1      47.593   1.800   6.577  0.00  0.00    +0.000 A 
ATOM     16  C   UNL     1      46.688   1.280   7.504  0.00  0.00    +0.000 A 
ATOM     17 CL   UNL     1      46.621  -0.431   7.700  0.00  0.00    +0.000 Cl
ENDBRANCH  10  11
ENDBRANCH   9  10
ENDBRANCH   7   9
ENDBRANCH   4   7
BRANCH   1  18
ATOM     18  C   UNL     1      47.845   7.175  13.308  0.00  0.00    +0.000 C 
BRANCH  18  21
ATOM     19  C   UNL     1      49.044   7.086  15.462  0.00  0.00    +0.000 C 
ATOM     20  O   UNL     1      50.130   6.970  14.898  0.00  0.00    +0.000 OA
ATOM     21  N   UNL     1      47.885   7.197  14.750  0.00  0.00    +0.000 N 
ATOM     22  H   UNL     1      47.001   7.291  15.232  0.00  0.00    +0.000 HD
BRANCH  19  30
ATOM     23  C   UNL     1      48.819   4.603  17.841  0.00  0.00    +0.000 A 
ATOM     24  N   UNL     1      48.783   3.852  18.959  0.00  0.00    +0.000 NA
ATOM     25  C   UNL     1      48.767   4.482  20.137  0.00  0.00    +0.000 A 
ATOM     26  N   UNL     1      48.768   5.795  20.344  0.00  0.00    +0.000 NA
ATOM     27  C   UNL     1      48.812   6.507  19.204  0.00  0.00    +0.000 A 
ATOM     28  S   UNL     1      48.808   8.202  19.275  0.00  0.00    +0.000 S 
ATOM     29  C   UNL     1      48.895   8.323  17.582  0.00  0.00    +0.000 A 
ATOM     30  C   UNL     1      48.937   7.096  16.930  0.00  0.00    +0.000 A 
ATOM     31  C   UNL     1      48.860   6.007  17.905  0.00  0.00    +0.000 A 
BRANCH  23  33
ATOM     32  C   UNL     1      47.974   2.832  16.561  0.00  0.00    +0.000 C 
ATOM     33  O   UNL     1      48.850   3.955  16.624  0.00  0.00    +0.000 OA
ENDBRANCH  23  33
ENDBRANCH  19  30
ENDBRANCH  18  21
ENDBRANCH   1  18
TORSDOF 8
ENDMDL
MODEL 2
REMARK VINA RESULT:    -7.844      1.680      2.137
REMARK INTER + INTRA:         -12.741
REMARK INTER:                 -11.463
REMARK INTRA:                  -1.278
REMARK UNBOUND:                -1.229
REMARK  Name = 
REMARK  9 active torsions:
REMARK  status: ('A' for Active; 'I' for Inactive)
REMARK    1  A    between atoms: C_1  and  O_2
REMARK    2  A    between atoms: O_2  and  C_3
REMARK    3  A    between atoms: C_10  and  C_11
REMARK    4  A    between atoms: N_13  and  C_14
REMARK    5  A    between atoms: C_14  and  C_15
REMARK    6  A    between atoms: C_18  and  N_19
REMARK    7  A    between atoms: N_19  and  C_20
REMARK    8  A    between atoms: C_20  and  C_21
REMARK    9  A    between atoms: C_21  and  C_22
REMARK                            x       y       z     vdW  Elec       q    Type
REMARK                         _______ _______ _______ _____ _____    ______ ____
ROOT
ATOM      1  C   UNL     1      46.396   7.579  12.588  0.00  0.00    +0.000 A 
ATOM      2  C   UNL     1      45.036   7.488  12.893  0.00  0.00    +0.000 A 
ATOM      3  C   UNL     1      44.185   6.688  12.123  0.00  0.00    +0.000 A 
ATOM      4  C   UNL     1      44.653   5.986  11.008  0.00  0.00    +0.000 A 
ATOM      5  C   UNL     1      46.027   6.041  10.741  0.00  0.00    +0.000 A 
ATOM      6  C   UNL     1      46.889   6.831  11.513  0.00  0.00    +0.000 A 
ENDROOT
BRANCH   4   7
ATOM      7  N   UNL     1      43.840   5.150  10.234  0.00  0.00    +0.000 N 
ATOM      8  H   UNL     1      42.906   5.045  10.624  0.00  0.00    +0.000 HD
BRANCH   7   9
ATOM      9  C   UNL     1      44.372   3.893   9.695  0.00  0.00    +0.000 C 
BRANCH   9  10
ATOM     10  C   UNL     1      44.559   3.952   8.175  0.00  0.00    +0.000 C 
BRANCH  10  11
ATOM     11  C   UNL     1      45.758   3.156   7.725  0.00  0.00    +0.000 A 
ATOM     12  N   UNL     1      46.701   3.867   7.048  0.00  0.00    +0.000 NA
ATOM     13  C   UNL     1      47.786   3.204   6.593  0.00  0.00    +0.000 A 
ATOM     14  C   UNL     1      47.992   1.850   6.786  0.00  0.00    +0.000 A 
ATOM     15  C   UNL     1      47.035   1.134   7.495  0.00  0.00    +0.000 A 
ATOM     16  C   UNL     1      45.901   1.789   7.977  0.00  0.00    +0.000 A 
ATOM     17 CL   UNL     1      44.742   0.863   8.854  0.00  0.00    +0.000 Cl
ENDBRANCH  10  11
ENDBRANCH   9  10
ENDBRANCH   7   9
ENDBRANCH   4   7
BRANCH   1  18
ATOM     18  C   UNL     1      47.317   8.371  13.477  0.00  0.00    +0.000 C 
BRANCH  18  21
ATOM     19  C   UNL     1      48.834   6.925  14.776  0.00  0.00    +0.000 C 
ATOM     20  O   UNL     1      49.685   6.952  13.889  0.00  0.00    +0.000 OA
ATOM     21  N   UNL     1      47.655   7.599  14.647  0.00  0.00    +0.000 N 
ATOM     22  H   UNL     1      46.967   7.564  15.388  0.00  0.00    +0.000 HD
BRANCH  19  30
ATOM     23  C   UNL     1      47.199   4.245  16.198  0.00  0.00    +0.000 A 
ATOM     24  N   UNL     1      46.796   3.188  16.930  0.00  0.00    +0.000 NA
ATOM     25  C   UNL     1      47.483   2.892  18.037  0.00  0.00    +0.000 A 
ATOM     26  N   UNL     1      48.536   3.541  18.523  0.00  0.00    +0.000 NA
ATOM     27  C   UNL     1      48.911   4.582  17.759  0.00  0.00    +0.000 A 
ATOM     28  S   UNL     1      50.233   5.535  18.234  0.00  0.00    +0.000 S 
ATOM     29  C   UNL     1      50.078   6.523  16.860  0.00  0.00    +0.000 A 
ATOM     30  C   UNL     1      49.038   6.154  16.014  0.00  0.00    +0.000 A 
ATOM     31  C   UNL     1      48.322   5.005  16.571  0.00  0.00    +0.000 A 
BRANCH  23  33
ATOM     32  C   UNL     1      46.980   3.844  13.901  0.00  0.00    +0.000 C 
ATOM     33  O   UNL     1      46.500   4.543  15.047  0.00  0.00    +0.000 OA
ENDBRANCH  23  33
ENDBRANCH  19  30
ENDBRANCH  18  21
ENDBRANCH   1  18
TORSDOF 8
ENDMDL
MODEL 3
REMARK VINA RESULT:    -7.492      1.668      2.054
REMARK INTER + INTRA:         -12.225
REMARK INTER:                 -10.769
REMARK INTRA:                  -1.456
REMARK UNBOUND:                -1.229
REMARK  Name = 
REMARK  9 active torsions:
REMARK  status: ('A' for Active; 'I' for Inactive)
REMARK    1  A    between atoms: C_1  and  O_2
REMARK    2  A    between atoms: O_2  and  C_3
REMARK    3  A    between atoms: C_10  and  C_11
REMARK    4  A    between atoms: N_13  and  C_14
REMARK    5  A    between atoms: C_14  and  C_15
REMARK    6  A    between atoms: C_18  and  N_19
REMARK    7  A    between atoms: N_19  and  C_20
REMARK    8  A    between atoms: C_20  and  C_21
REMARK    9  A    between atoms: C_21  and  C_22
REMARK                            x       y       z     vdW  Elec       q    Type
REMARK                         _______ _______ _______ _____ _____    ______ ____
ROOT
ATOM      1  C   UNL     1      45.379   7.168  12.288  0.00  0.00    +0.000 A 
ATOM      2  C   UNL     1      44.479   6.333  12.953  0.00  0.00    +0.000 A 
ATOM      3  C   UNL     1      44.322   4.999  12.561  0.00  0.00    +0.000 A 
ATOM      4  C   UNL     1      45.027   4.469  11.476  0.00  0.00    +0.000 A 
ATOM      5  C   UNL     1      45.966   5.298  10.850  0.00  0.00    +0.000 A 
ATOM      6  C   UNL     1      46.138   6.633  11.242  0.00  0.00    +0.000 A 
ENDROOT
BRANCH   4   7
ATOM      7  N   UNL     1      44.921   3.132  11.077  0.00  0.00    +0.000 N 
ATOM      8  H   UNL     1      45.812   2.641  11.118  0.00  0.00    +0.000 HD
BRANCH   7   9
ATOM      9  C   UNL     1      44.131   2.774   9.893  0.00  0.00    +0.000 C 
BRANCH   9  10
ATOM     10  C   UNL     1      44.763   1.621   9.106  0.00  0.00    +0.000 C 
BRANCH  10  11
ATOM     11  C   UNL     1      45.858   2.101   8.187  0.00  0.00    +0.000 A 
ATOM     12  N   UNL     1      45.951   3.453   8.058  0.00  0.00    +0.000 NA
ATOM     13  C   UNL     1      46.894   3.944   7.226  0.00  0.00    +0.000 A 
ATOM     14  C   UNL     1      47.771   3.151   6.509  0.00  0.00    +0.000 A 
ATOM     15  C   UNL     1      47.685   1.773   6.661  0.00  0.00    +0.000 A 
ATOM     16  C   UNL     1      46.720   1.232   7.512  0.00  0.00    +0.000 A 
ATOM     17 CL   UNL     1      46.650  -0.483   7.672  0.00  0.00    +0.000 Cl
ENDBRANCH  10  11
ENDBRANCH   9  10
ENDBRANCH   7   9
ENDBRANCH   4   7
BRANCH   1  18
ATOM     18  C   UNL     1      45.605   8.575  12.775  0.00  0.00    +0.000 C 
BRANCH  18  21
ATOM     19  C   UNL     1      47.791   8.833  13.886  0.00  0.00    +0.000 C 
ATOM     20  O   UNL     1      48.342   9.117  12.824  0.00  0.00    +0.000 OA
ATOM     21  N   UNL     1      46.455   8.561  13.940  0.00  0.00    +0.000 N 
ATOM     22  H   UNL     1      46.021   8.329  14.823  0.00  0.00    +0.000 HD
BRANCH  19  30
ATOM     23  C   UNL     1      48.907   6.215  15.829  0.00  0.00    +0.000 A 
ATOM     24  N   UNL     1      49.501   5.400  16.724  0.00  0.00    +0.000 NA
ATOM     25  C   UNL     1      50.180   5.960  17.728  0.00  0.00    +0.000 A 
ATOM     26  N   UNL     1      50.333   7.259  17.965  0.00  0.00    +0.000 NA
ATOM     27  C   UNL     1      49.734   8.036  17.046  0.00  0.00    +0.000 A 
ATOM     28  S   UNL     1      49.815   9.725  17.195  0.00  0.00    +0.000 S 
ATOM     29  C   UNL     1      48.918   9.944  15.769  0.00  0.00    +0.000 A 
ATOM     30  C   UNL     1      48.547   8.757  15.148  0.00  0.00    +0.000 A 
ATOM     31  C   UNL     1      49.015   7.613  15.931  0.00  0.00    +0.000 A 
BRANCH  23  33
ATOM     32  C   UNL     1      47.239   4.692  15.207  0.00  0.00    +0.000 C 
ATOM     33  O   UNL     1      48.218   5.638  14.783  0.00  0.00    +0.000 OA
ENDBRANCH  23  33
ENDBRANCH  19  30
ENDBRANCH  18  21
ENDBRANCH   1  18
TORSDOF 8
ENDMDL
MODEL 4
REMARK VINA RESULT:    -7.414      1.621      1.851
REMARK INTER + INTRA:         -12.110
REMARK INTER:                 -10.831
REMARK INTRA:                  -1.278
REMARK UNBOUND:                -1.229
REMARK  Name = 
REMARK  9 active torsions:
REMARK  status: ('A' for Active; 'I' for Inactive)
REMARK    1  A    between atoms: C_1  and  O_2
REMARK    2  A    between atoms: O_2  and  C_3
REMARK    3  A    between atoms: C_10  and  C_11
REMARK    4  A    between atoms: N_13  and  C_14
REMARK    5  A    between atoms: C_14  and  C_15
REMARK    6  A    between atoms: C_18  and  N_19
REMARK    7  A    between atoms: N_19  and  C_20
REMARK    8  A    between atoms: C_20  and  C_21
REMARK    9  A    between atoms: C_21  and  C_22
REMARK                            x       y       z     vdW  Elec       q    Type
REMARK                         _______ _______ _______ _____ _____    ______ ____
ROOT
ATOM      1  C   UNL     1      46.668   6.166  13.028  0.00  0.00    +0.000 A 
ATOM      2  C   UNL     1      46.630   4.942  13.700  0.00  0.00    +0.000 A 
ATOM      3  C   UNL     1      45.948   3.850  13.154  0.00  0.00    +0.000 A 
ATOM      4  C   UNL     1      45.255   3.953  11.944  0.00  0.00    +0.000 A 
ATOM      5  C   UNL     1      45.344   5.167  11.251  0.00  0.00    +0.000 A 
ATOM      6  C   UNL     1      46.033   6.264  11.786  0.00  0.00    +0.000 A 
ENDROOT
BRANCH   4   7
ATOM      7  N   UNL     1      44.591   2.874  11.350  0.00  0.00    +0.000 N 
ATOM      8  H   UNL     1      44.960   1.975  11.651  0.00  0.00    +0.000 HD
BRANCH   7   9
ATOM      9  C   UNL     1      44.267   2.902   9.919  0.00  0.00    +0.000 C 
BRANCH   9  10
ATOM     10  C   UNL     1      44.869   1.710   9.168  0.00  0.00    +0.000 C 
BRANCH  10  11
ATOM     11  C   UNL     1      45.941   2.140   8.199  0.00  0.00    +0.000 A 
ATOM     12  N   UNL     1      46.074   3.486   8.046  0.00  0.00    +0.000 NA
ATOM     13  C   UNL     1      46.998   3.934   7.169  0.00  0.00    +0.000 A 
ATOM     14  C   UNL     1      47.818   3.102   6.429  0.00  0.00    +0.000 A 
ATOM     15  C   UNL     1      47.691   1.729   6.604  0.00  0.00    +0.000 A 
ATOM     16  C   UNL     1      46.744   1.233   7.502  0.00  0.00    +0.000 A 
ATOM     17 CL   UNL     1      46.624  -0.476   7.690  0.00  0.00    +0.000 Cl
ENDBRANCH  10  11
ENDBRANCH   9  10
ENDBRANCH   7   9
ENDBRANCH   4   7
BRANCH   1  18
ATOM     18  C   UNL     1      47.480   7.306  13.582  0.00  0.00    +0.000 C 
BRANCH  18  21
ATOM     19  C   UNL     1      49.127   7.433  15.413  0.00  0.00    +0.000 C 
ATOM     20  O   UNL     1      48.650   8.490  15.822  0.00  0.00    +0.000 OA
ATOM     21  N   UNL     1      48.604   6.794  14.327  0.00  0.00    +0.000 N 
ATOM     22  H   UNL     1      49.011   5.926  14.005  0.00  0.00    +0.000 HD
BRANCH  19  30
ATOM     23  C   UNL     1      49.571   4.533  17.222  0.00  0.00    +0.000 A 
ATOM     24  N   UNL     1      50.031   3.458  17.892  0.00  0.00    +0.000 NA
ATOM     25  C   UNL     1      51.335   3.407  18.176  0.00  0.00    +0.000 A 
ATOM     26  N   UNL     1      52.256   4.319  17.881  0.00  0.00    +0.000 NA
ATOM     27  C   UNL     1      51.758   5.370  17.206  0.00  0.00    +0.000 A 
ATOM     28  S   UNL     1      52.789   6.640  16.756  0.00  0.00    +0.000 S 
ATOM     29  C   UNL     1      51.515   7.473  16.000  0.00  0.00    +0.000 A 
ATOM     30  C   UNL     1      50.293   6.813  16.064  0.00  0.00    +0.000 A 
ATOM     31  C   UNL     1      50.437   5.563  16.811  0.00  0.00    +0.000 A 
BRANCH  23  33
ATOM     32  C   UNL     1      47.422   5.069  17.986  0.00  0.00    +0.000 C 
ATOM     33  O   UNL     1      48.227   4.582  16.915  0.00  0.00    +0.000 OA
ENDBRANCH  23  33
ENDBRANCH  19  30
ENDBRANCH  18  21
ENDBRANCH   1  18
TORSDOF 8
ENDMDL
MODEL 5
REMARK VINA RESULT:    -7.104      1.778      2.150
REMARK INTER + INTRA:         -11.656
REMARK INTER:                 -10.397
REMARK INTRA:                  -1.258
REMARK UNBOUND:                -1.229
REMARK  Name = 
REMARK  9 active torsions:
REMARK  status: ('A' for Active; 'I' for Inactive)
REMARK    1  A    between atoms: C_1  and  O_2
REMARK    2  A    between atoms: O_2  and  C_3
REMARK    3  A    between atoms: C_10  and  C_11
REMARK    4  A    between atoms: N_13  and  C_14
REMARK    5  A    between atoms: C_14  and  C_15
REMARK    6  A    between atoms: C_18  and  N_19
REMARK    7  A    between atoms: N_19  and  C_20
REMARK    8  A    between atoms: C_20  and  C_21
REMARK    9  A    between atoms: C_21  and  C_22
REMARK                            x       y       z     vdW  Elec       q    Type
REMARK                         _______ _______ _______ _____ _____    ______ ____
ROOT
ATOM      1  C   UNL     1      47.233   6.974  13.230  0.00  0.00    +0.000 A 
ATOM      2  C   UNL     1      46.817   5.811  13.882  0.00  0.00    +0.000 A 
ATOM      3  C   UNL     1      45.938   4.919  13.258  0.00  0.00    +0.000 A 
ATOM      4  C   UNL     1      45.420   5.176  11.985  0.00  0.00    +0.000 A 
ATOM      5  C   UNL     1      45.884   6.317  11.317  0.00  0.00    +0.000 A 
ATOM      6  C   UNL     1      46.772   7.211  11.931  0.00  0.00    +0.000 A 
ENDROOT
BRANCH   4   7
ATOM      7  N   UNL     1      44.566   4.292  11.315  0.00  0.00    +0.000 N 
ATOM      8  H   UNL     1      43.636   4.260  11.727  0.00  0.00    +0.000 HD
BRANCH   7   9
ATOM      9  C   UNL     1      45.048   2.968  10.903  0.00  0.00    +0.000 C 
BRANCH   9  10
ATOM     10  C   UNL     1      44.508   2.560   9.528  0.00  0.00    +0.000 C 
BRANCH  10  11
ATOM     11  C   UNL     1      45.617   2.202   8.573  0.00  0.00    +0.000 A 
ATOM     12  N   UNL     1      45.820   0.867   8.399  0.00  0.00    +0.000 NA
ATOM     13  C   UNL     1      46.819   0.482   7.576  0.00  0.00    +0.000 A 
ATOM     14  C   UNL     1      47.637   1.367   6.898  0.00  0.00    +0.000 A 
ATOM     15  C   UNL     1      47.412   2.728   7.064  0.00  0.00    +0.000 A 
ATOM     16  C   UNL     1      46.388   3.160   7.909  0.00  0.00    +0.000 A 
ATOM     17 CL   UNL     1      46.143   4.857   8.082  0.00  0.00    +0.000 Cl
ENDBRANCH  10  11
ENDBRANCH   9  10
ENDBRANCH   7   9
ENDBRANCH   4   7
BRANCH   1  18
ATOM     18  C   UNL     1      48.248   7.879  13.875  0.00  0.00    +0.000 C 
BRANCH  18  21
ATOM     19  C   UNL     1      48.497   9.019  16.048  0.00  0.00    +0.000 C 
ATOM     20  O   UNL     1      49.288   9.834  15.574  0.00  0.00    +0.000 OA
ATOM     21  N   UNL     1      47.944   8.039  15.276  0.00  0.00    +0.000 N 
ATOM     22  H   UNL     1      47.297   7.378  15.684  0.00  0.00    +0.000 HD
BRANCH  19  30
ATOM     23  C   UNL     1      48.110   6.583  18.454  0.00  0.00    +0.000 A 
ATOM     24  N   UNL     1      47.952   5.859  19.580  0.00  0.00    +0.000 NA
ATOM     25  C   UNL     1      47.649   6.510  20.707  0.00  0.00    +0.000 A 
ATOM     26  N   UNL     1      47.468   7.820  20.852  0.00  0.00    +0.000 NA
ATOM     27  C   UNL     1      47.644   8.505  19.708  0.00  0.00    +0.000 A 
ATOM     28  S   UNL     1      47.440  10.190  19.702  0.00  0.00    +0.000 S 
ATOM     29  C   UNL     1      47.825  10.280  18.049  0.00  0.00    +0.000 A 
ATOM     30  C   UNL     1      48.120   9.051  17.471  0.00  0.00    +0.000 A 
ATOM     31  C   UNL     1      47.985   7.984  18.463  0.00  0.00    +0.000 A 
BRANCH  23  33
ATOM     32  C   UNL     1      49.177   4.717  17.523  0.00  0.00    +0.000 C 
ATOM     33  O   UNL     1      48.437   5.914  17.293  0.00  0.00    +0.000 OA
ENDBRANCH  23  33
ENDBRANCH  19  30
ENDBRANCH  18  21
ENDBRANCH   1  18
TORSDOF 8
ENDMDL
MODEL 6
REMARK VINA RESULT:    -7.047      2.793      3.784
REMARK INTER + INTRA:         -11.572
REMARK INTER:                 -10.188
REMARK INTRA:                  -1.383
REMARK UNBOUND:                -1.229
REMARK  Name = 
REMARK  9 active torsions:
REMARK  status: ('A' for Active; 'I' for Inactive)
REMARK    1  A    between atoms: C_1  and  O_2
REMARK    2  A    between atoms: O_2  and  C_3
REMARK    3  A    between atoms: C_10  and  C_11
REMARK    4  A    between atoms: N_13  and  C_14
REMARK    5  A    between atoms: C_14  and  C_15
REMARK    6  A    between atoms: C_18  and  N_19
REMARK    7  A    between atoms: N_19  and  C_20
REMARK    8  A    between atoms: C_20  and  C_21
REMARK    9  A    between atoms: C_21  and  C_22
REMARK                            x       y       z     vdW  Elec       q    Type
REMARK                         _______ _______ _______ _____ _____    ______ ____
ROOT
ATOM      1  C   UNL     1      48.962   7.311  14.741  0.00  0.00    +0.000 A 
ATOM      2  C   UNL     1      48.152   6.186  14.909  0.00  0.00    +0.000 A 
ATOM      3  C   UNL     1      47.354   5.719  13.860  0.00  0.00    +0.000 A 
ATOM      4  C   UNL     1      47.310   6.377  12.627  0.00  0.00    +0.000 A 
ATOM      5  C   UNL     1      48.165   7.472  12.449  0.00  0.00    +0.000 A 
ATOM      6  C   UNL     1      48.976   7.941  13.492  0.00  0.00    +0.000 A 
ENDROOT
BRANCH   4   7
ATOM      7  N   UNL     1      46.550   5.920  11.544  0.00  0.00    +0.000 N 
ATOM      8  H   UNL     1      47.119   5.725  10.723  0.00  0.00    +0.000 HD
BRANCH   7   9
ATOM      9  C   UNL     1      45.276   6.567  11.210  0.00  0.00    +0.000 C 
BRANCH   9  10
ATOM     10  C   UNL     1      44.158   5.547  10.968  0.00  0.00    +0.000 C 
BRANCH  10  11
ATOM     11  C   UNL     1      44.594   4.444  10.037  0.00  0.00    +0.000 A 
ATOM     12  N   UNL     1      45.323   4.853   8.962  0.00  0.00    +0.000 NA
ATOM     13  C   UNL     1      45.719   3.914   8.075  0.00  0.00    +0.000 A 
ATOM     14  C   UNL     1      45.433   2.568   8.206  0.00  0.00    +0.000 A 
ATOM     15  C   UNL     1      44.706   2.155   9.315  0.00  0.00    +0.000 A 
ATOM     16  C   UNL     1      44.279   3.100  10.250  0.00  0.00    +0.000 A 
ATOM     17 CL   UNL     1      43.383   2.543  11.614  0.00  0.00    +0.000 Cl
ENDBRANCH  10  11
ENDBRANCH   9  10
ENDBRANCH   7   9
ENDBRANCH   4   7
BRANCH   1  18
ATOM     18  C   UNL     1      49.883   7.750  15.847  0.00  0.00    +0.000 C 
BRANCH  18  21
ATOM     19  C   UNL     1      50.666   6.223  17.617  0.00  0.00    +0.000 C 
ATOM     20  O   UNL     1      49.990   6.797  18.468  0.00  0.00    +0.000 OA
ATOM     21  N   UNL     1      50.660   6.629  16.315  0.00  0.00    +0.000 N 
ATOM     22  H   UNL     1      51.225   6.144  15.630  0.00  0.00    +0.000 HD
BRANCH  19  30
ATOM     23  C   UNL     1      50.388   2.819  17.156  0.00  0.00    +0.000 A 
ATOM     24  N   UNL     1      50.563   1.486  17.054  0.00  0.00    +0.000 NA
ATOM     25  C   UNL     1      51.695   0.964  17.535  0.00  0.00    +0.000 A 
ATOM     26  N   UNL     1      52.689   1.616  18.130  0.00  0.00    +0.000 NA
ATOM     27  C   UNL     1      52.479   2.942  18.203  0.00  0.00    +0.000 A 
ATOM     28  S   UNL     1      53.641   3.933  18.943  0.00  0.00    +0.000 S 
ATOM     29  C   UNL     1      52.720   5.328  18.633  0.00  0.00    +0.000 A 
ATOM     30  C   UNL     1      51.528   5.079  17.963  0.00  0.00    +0.000 A 
ATOM     31  C   UNL     1      51.373   3.642  17.729  0.00  0.00    +0.000 A 
BRANCH  23  33
ATOM     32  C   UNL     1      48.104   3.199  17.510  0.00  0.00    +0.000 C 
ATOM     33  O   UNL     1      49.227   3.362  16.647  0.00  0.00    +0.000 OA
ENDBRANCH  23  33
ENDBRANCH  19  30
ENDBRANCH  18  21
ENDBRANCH   1  18
TORSDOF 8
ENDMDL
MODEL 7
REMARK VINA RESULT:    -6.706      1.946      2.586
REMARK INTER + INTRA:         -11.071
REMARK INTER:                  -9.960
REMARK INTRA:                  -1.111
REMARK UNBOUND:                -1.229
REMARK  Name = 
REMARK  9 active torsions:
REMARK  status: ('A' for Active; 'I' for Inactive)
REMARK    1  A    between atoms: C_1  and  O_2
REMARK    2  A    between atoms: O_2  and  C_3
REMARK    3  A    between atoms: C_10  and  C_11
REMARK    4  A    between atoms: N_13  and  C_14
REMARK    5  A    between atoms: C_14  and  C_15
REMARK    6  A    between atoms: C_18  and  N_19
REMARK    7  A    between atoms: N_19  and  C_20
REMARK    8  A    between atoms: C_20  and  C_21
REMARK    9  A    between atoms: C_21  and  C_22
REMARK                            x       y       z     vdW  Elec       q    Type
REMARK                         _______ _______ _______ _____ _____    ______ ____
ROOT
ATOM      1  C   UNL     1      46.810   6.319  12.938  0.00  0.00    +0.000 A 
ATOM      2  C   UNL     1      46.381   6.826  11.709  0.00  0.00    +0.000 A 
ATOM      3  C   UNL     1      45.605   6.044  10.848  0.00  0.00    +0.000 A 
ATOM      4  C   UNL     1      45.266   4.725  11.165  0.00  0.00    +0.000 A 
ATOM      5  C   UNL     1      45.654   4.243  12.421  0.00  0.00    +0.000 A 
ATOM      6  C   UNL     1      46.424   5.023  13.296  0.00  0.00    +0.000 A 
ENDROOT
BRANCH   4   7
ATOM      7  N   UNL     1      44.463   3.924  10.344  0.00  0.00    +0.000 N 
ATOM      8  H   UNL     1      43.486   4.208  10.357  0.00  0.00    +0.000 HD
BRANCH   7   9
ATOM      9  C   UNL     1      44.629   2.466  10.343  0.00  0.00    +0.000 C 
BRANCH   9  10
ATOM     10  C   UNL     1      44.559   1.879   8.929  0.00  0.00    +0.000 C 
BRANCH  10  11
ATOM     11  C   UNL     1      45.761   2.261   8.102  0.00  0.00    +0.000 A 
ATOM     12  N   UNL     1      45.921   3.597   7.900  0.00  0.00    +0.000 NA
ATOM     13  C   UNL     1      46.963   4.001   7.142  0.00  0.00    +0.000 A 
ATOM     14  C   UNL     1      47.876   3.133   6.572  0.00  0.00    +0.000 A 
ATOM     15  C   UNL     1      47.719   1.771   6.799  0.00  0.00    +0.000 A 
ATOM     16  C   UNL     1      46.651   1.321   7.576  0.00  0.00    +0.000 A 
ATOM     17 CL   UNL     1      46.497  -0.376   7.835  0.00  0.00    +0.000 Cl
ENDBRANCH  10  11
ENDBRANCH   9  10
ENDBRANCH   7   9
ENDBRANCH   4   7
BRANCH   1  18
ATOM     18  C   UNL     1      47.568   7.200  13.895  0.00  0.00    +0.000 C 
BRANCH  18  21
ATOM     19  C   UNL     1      48.886   6.929  15.961  0.00  0.00    +0.000 C 
ATOM     20  O   UNL     1      49.216   8.114  15.954  0.00  0.00    +0.000 OA
ATOM     21  N   UNL     1      48.078   6.413  14.990  0.00  0.00    +0.000 N 
ATOM     22  H   UNL     1      47.819   5.436  15.013  0.00  0.00    +0.000 HD
BRANCH  19  30
ATOM     23  C   UNL     1      52.011   5.872  16.959  0.00  0.00    +0.000 A 
ATOM     24  N   UNL     1      53.087   5.352  17.582  0.00  0.00    +0.000 NA
ATOM     25  C   UNL     1      52.879   4.548  18.628  0.00  0.00    +0.000 A 
ATOM     26  N   UNL     1      51.706   4.179  19.134  0.00  0.00    +0.000 NA
ATOM     27  C   UNL     1      50.660   4.727  18.490  0.00  0.00    +0.000 A 
ATOM     28  S   UNL     1      49.081   4.357  18.993  0.00  0.00    +0.000 S 
ATOM     29  C   UNL     1      48.412   5.366  17.800  0.00  0.00    +0.000 A 
ATOM     30  C   UNL     1      49.358   6.006  17.007  0.00  0.00    +0.000 A 
ATOM     31  C   UNL     1      50.706   5.599  17.407  0.00  0.00    +0.000 A 
BRANCH  23  33
ATOM     32  C   UNL     1      53.206   7.715  16.146  0.00  0.00    +0.000 C 
ATOM     33  O   UNL     1      52.224   6.714  15.888  0.00  0.00    +0.000 OA
ENDBRANCH  23  33
ENDBRANCH  19  30
ENDBRANCH  18  21
ENDBRANCH   1  18
TORSDOF 8
ENDMDL
MODEL 8
REMARK VINA RESULT:    -6.591      1.903      3.322
REMARK INTER + INTRA:         -10.902
REMARK INTER:                  -9.567
REMARK INTRA:                  -1.336
REMARK UNBOUND:                -1.229
REMARK  Name = 
REMARK  9 active torsions:
REMARK  status: ('A' for Active; 'I' for Inactive)
REMARK    1  A    between atoms: C_1  and  O_2
REMARK    2  A    between atoms: O_2  and  C_3
REMARK    3  A    between atoms: C_10  and  C_11
REMARK    4  A    between atoms: N_13  and  C_14
REMARK    5  A    between atoms: C_14  and  C_15
REMARK    6  A    between atoms: C_18  and  N_19
REMARK    7  A    between atoms: N_19  and  C_20
REMARK    8  A    between atoms: C_20  and  C_21
REMARK    9  A    between atoms: C_21  and  C_22
REMARK                            x       y       z     vdW  Elec       q    Type
REMARK                         _______ _______ _______ _____ _____    ______ ____
ROOT
ATOM      1  C   UNL     1      46.475   4.342  13.759  0.00  0.00    +0.000 A 
ATOM      2  C   UNL     1      45.866   3.332  13.010  0.00  0.00    +0.000 A 
ATOM      3  C   UNL     1      45.209   3.631  11.812  0.00  0.00    +0.000 A 
ATOM      4  C   UNL     1      45.107   4.945  11.343  0.00  0.00    +0.000 A 
ATOM      5  C   UNL     1      45.766   5.943  12.072  0.00  0.00    +0.000 A 
ATOM      6  C   UNL     1      46.435   5.651  13.268  0.00  0.00    +0.000 A 
ENDROOT
BRANCH   4   7
ATOM      7  N   UNL     1      44.487   5.277  10.133  0.00  0.00    +0.000 N 
ATOM      8  H   UNL     1      43.663   5.860  10.264  0.00  0.00    +0.000 HD
BRANCH   7   9
ATOM      9  C   UNL     1      44.301   4.259   9.093  0.00  0.00    +0.000 C 
BRANCH   9  10
ATOM     10  C   UNL     1      45.423   4.287   8.050  0.00  0.00    +0.000 C 
BRANCH  10  11
ATOM     11  C   UNL     1      45.949   2.906   7.753  0.00  0.00    +0.000 A 
ATOM     12  N   UNL     1      45.585   1.945   8.646  0.00  0.00    +0.000 NA
ATOM     13  C   UNL     1      46.049   0.692   8.450  0.00  0.00    +0.000 A 
ATOM     14  C   UNL     1      46.862   0.334   7.391  0.00  0.00    +0.000 A 
ATOM     15  C   UNL     1      47.213   1.314   6.471  0.00  0.00    +0.000 A 
ATOM     16  C   UNL     1      46.752   2.620   6.645  0.00  0.00    +0.000 A 
ATOM     17 CL   UNL     1      47.209   3.803   5.478  0.00  0.00    +0.000 Cl
ENDBRANCH  10  11
ENDBRANCH   9  10
ENDBRANCH   7   9
ENDBRANCH   4   7
BRANCH   1  18
ATOM     18  C   UNL     1      47.255   3.996  14.998  0.00  0.00    +0.000 C 
BRANCH  18  21
ATOM     19  C   UNL     1      48.566   5.276  16.649  0.00  0.00    +0.000 C 
ATOM     20  O   UNL     1      49.309   4.320  16.860  0.00  0.00    +0.000 OA
ATOM     21  N   UNL     1      47.543   5.193  15.749  0.00  0.00    +0.000 N 
ATOM     22  H   UNL     1      46.942   5.991  15.590  0.00  0.00    +0.000 HD
BRANCH  19  30
ATOM     23  C   UNL     1      48.801   8.560  15.629  0.00  0.00    +0.000 A 
ATOM     24  N   UNL     1      48.855   9.902  15.515  0.00  0.00    +0.000 NA
ATOM     25  C   UNL     1      48.939  10.622  16.637  0.00  0.00    +0.000 A 
ATOM     26  N   UNL     1      48.989  10.162  17.883  0.00  0.00    +0.000 NA
ATOM     27  C   UNL     1      48.924   8.821  17.952  0.00  0.00    +0.000 A 
ATOM     28  S   UNL     1      48.988   8.057  19.466  0.00  0.00    +0.000 S 
ATOM     29  C   UNL     1      48.838   6.522  18.752  0.00  0.00    +0.000 A 
ATOM     30  C   UNL     1      48.731   6.552  17.367  0.00  0.00    +0.000 A 
ATOM     31  C   UNL     1      48.809   7.932  16.887  0.00  0.00    +0.000 A 
BRANCH  23  33
ATOM     32  C   UNL     1      49.737   8.089  13.533  0.00  0.00    +0.000 C 
ATOM     33  O   UNL     1      48.700   7.814  14.472  0.00  0.00    +0.000 OA
ENDBRANCH  23  33
ENDBRANCH  19  30
ENDBRANCH  18  21
ENDBRANCH   1  18
TORSDOF 8
ENDMDL
MODEL 9
REMARK VINA RESULT:    -5.887      3.223      4.115
REMARK INTER + INTRA:          -9.869
REMARK INTER:                  -9.573
REMARK INTRA:                  -0.297
REMARK UNBOUND:                -1.229
REMARK  Name = 
REMARK  9 active torsions:
REMARK  status: ('A' for Active; 'I' for Inactive)
REMARK    1  A    between atoms: C_1  and  O_2
REMARK    2  A    between atoms: O_2  and  C_3
REMARK    3  A    between atoms: C_10  and  C_11
REMARK    4  A    between atoms: N_13  and  C_14
REMARK    5  A    between atoms: C_14  and  C_15
REMARK    6  A    between atoms: C_18  and  N_19
REMARK    7  A    between atoms: N_19  and  C_20
REMARK    8  A    between atoms: C_20  and  C_21
REMARK    9  A    between atoms: C_21  and  C_22
REMARK                            x       y       z     vdW  Elec       q    Type
REMARK                         _______ _______ _______ _____ _____    ______ ____
ROOT
ATOM      1  C   UNL     1      45.591   6.932  12.738  0.00  0.00    +0.000 A 
ATOM      2  C   UNL     1      46.334   5.859  13.235  0.00  0.00    +0.000 A 
ATOM      3  C   UNL     1      46.097   4.557  12.782  0.00  0.00    +0.000 A 
ATOM      4  C   UNL     1      45.091   4.281  11.850  0.00  0.00    +0.000 A 
ATOM      5  C   UNL     1      44.388   5.369  11.317  0.00  0.00    +0.000 A 
ATOM      6  C   UNL     1      44.626   6.678  11.759  0.00  0.00    +0.000 A 
ENDROOT
BRANCH   4   7
ATOM      7  N   UNL     1      44.847   2.997  11.348  0.00  0.00    +0.000 N 
ATOM      8  H   UNL     1      45.663   2.392  11.411  0.00  0.00    +0.000 HD
BRANCH   7   9
ATOM      9  C   UNL     1      44.109   2.823  10.091  0.00  0.00    +0.000 C 
BRANCH   9  10
ATOM     10  C   UNL     1      44.537   1.556   9.343  0.00  0.00    +0.000 C 
BRANCH  10  11
ATOM     11  C   UNL     1      45.677   1.823   8.392  0.00  0.00    +0.000 A 
ATOM     12  N   UNL     1      46.442   0.738   8.090  0.00  0.00    +0.000 NA
ATOM     13  C   UNL     1      47.496   0.920   7.266  0.00  0.00    +0.000 A 
ATOM     14  C   UNL     1      47.832   2.140   6.709  0.00  0.00    +0.000 A 
ATOM     15  C   UNL     1      47.036   3.239   7.006  0.00  0.00    +0.000 A 
ATOM     16  C   UNL     1      45.939   3.086   7.856  0.00  0.00    +0.000 A 
ATOM     17 CL   UNL     1      44.977   4.476   8.194  0.00  0.00    +0.000 Cl
ENDBRANCH  10  11
ENDBRANCH   9  10
ENDBRANCH   7   9
ENDBRANCH   4   7
BRANCH   1  18
ATOM     18  C   UNL     1      45.917   8.338  13.167  0.00  0.00    +0.000 C 
BRANCH  18  21
ATOM     19  C   UNL     1      48.099   9.349  12.626  0.00  0.00    +0.000 C 
ATOM     20  O   UNL     1      47.596  10.075  11.770  0.00  0.00    +0.000 OA
ATOM     21  N   UNL     1      47.340   8.479  13.352  0.00  0.00    +0.000 N 
ATOM     22  H   UNL     1      47.773   7.890  14.051  0.00  0.00    +0.000 HD
BRANCH  19  30
ATOM     23  C   UNL     1      49.998   8.676  15.422  0.00  0.00    +0.000 A 
ATOM     24  N   UNL     1      50.964   8.419  16.326  0.00  0.00    +0.000 NA
ATOM     25  C   UNL     1      52.236   8.560  15.941  0.00  0.00    +0.000 A 
ATOM     26  N   UNL     1      52.673   8.946  14.746  0.00  0.00    +0.000 NA
ATOM     27  C   UNL     1      51.678   9.184  13.873  0.00  0.00    +0.000 A 
ATOM     28  S   UNL     1      52.051   9.699  12.300  0.00  0.00    +0.000 S 
ATOM     29  C   UNL     1      50.407   9.748  11.873  0.00  0.00    +0.000 A 
ATOM     30  C   UNL     1      49.547   9.372  12.898  0.00  0.00    +0.000 A 
ATOM     31  C   UNL     1      50.312   9.059  14.106  0.00  0.00    +0.000 A 
BRANCH  23  33
ATOM     32  C   UNL     1      48.261   9.487  16.769  0.00  0.00    +0.000 C 
ATOM     33  O   UNL     1      48.685   8.518  15.813  0.00  0.00    +0.000 OA
ENDBRANCH  23  33
ENDBRANCH  19  30
ENDBRANCH  18  21
ENDBRANCH   1  18
TORSDOF 8
ENDMDL
