MODEL 1
REMARK VINA RESULT:    -7.811      0.000      0.000
REMARK INTER + INTRA:         -12.585
REMARK INTER:                 -11.692
REMARK INTRA:                  -0.894
REMARK UNBOUND:                -0.894
REMARK  Name = 
REMARK  10 active torsions:
REMARK  status: ('A' for Active; 'I' for Inactive)
REMARK    1  A    between atoms: C_1  and  C_2
REMARK    2  A    between atoms: C_2  and  N_3
REMARK    3  A    between atoms: C_2  and  C_19
REMARK    4  A    between atoms: N_3  and  C_4
REMARK    5  A    between atoms: C_4  and  C_5
REMARK    6  A    between atoms: C_8  and  C_9
REMARK    7  A    between atoms: C_9  and  O_10
REMARK    8  A    between atoms: C_9  and  C_11
REMARK    9  A    between atoms: C_11  and  N_12
REMARK   10  A    between atoms: C_19  and  C_21
REMARK                            x       y       z     vdW  Elec       q    Type
REMARK                         _______ _______ _______ _____ _____    ______ ____
ROOT
ATOM      1  N   UNL     1      48.164   5.483  15.739  0.00  0.00    +0.000 NA
ATOM      2  H   UNL     1      48.389   4.532  15.439  0.00  0.00    +0.000 HD
ENDROOT
BRANCH   1   4
ATOM      3  C   UNL     1      48.687   7.179  17.422  0.00  0.00    +0.000 C 
ATOM      4  C   UNL     1      49.180   5.903  16.752  0.00  0.00    +0.000 C 
BRANCH   4   5
ATOM      5  C   UNL     1      49.389   4.818  17.827  0.00  0.00    +0.000 C 
ATOM      6  O   UNL     1      48.413   4.427  18.483  0.00  0.00    +0.000 OA
BRANCH   5   7
ATOM      7  C   UNL     1      50.719   4.239  18.131  0.00  0.00    +0.000 A 
ATOM      8  C   UNL     1      51.586   4.980  18.931  0.00  0.00    +0.000 A 
ATOM      9  S   UNL     1      53.042   4.185  19.304  0.00  0.00    +0.000 S 
ATOM     10  C   UNL     1      52.562   2.801  18.442  0.00  0.00    +0.000 A 
ATOM     11  N   UNL     1      53.346   1.690  18.446  0.00  0.00    +0.000 NA
ATOM     12  C   UNL     1      52.849   0.684  17.809  0.00  0.00    +0.000 A 
ATOM     13  N   UNL     1      51.657   0.705  17.134  0.00  0.00    +0.000 N 
ATOM     14  C   UNL     1      50.907   1.846  16.986  0.00  0.00    +0.000 A 
ATOM     15  O   UNL     1      49.983   1.871  16.183  0.00  0.00    +0.000 OA
ATOM     16  C   UNL     1      51.341   2.972  17.800  0.00  0.00    +0.000 A 
ATOM     17  H   UNL     1      51.362  -0.091  16.589  0.00  0.00    +0.000 HD
ENDBRANCH   5   7
ENDBRANCH   4   5
ENDBRANCH   1   4
BRANCH   1  18
ATOM     18  C   UNL     1      48.230   6.357  14.563  0.00  0.00    +0.000 C 
BRANCH  18  19
ATOM     19  C   UNL     1      47.224   5.975  13.508  0.00  0.00    +0.000 A 
ATOM     20  C   UNL     1      47.101   6.718  12.325  0.00  0.00    +0.000 A 
ATOM     21  C   UNL     1      46.240   6.295  11.305  0.00  0.00    +0.000 A 
ATOM     22  C   UNL     1      45.490   5.120  11.450  0.00  0.00    +0.000 A 
ATOM     23  C   UNL     1      45.585   4.403  12.656  0.00  0.00    +0.000 A 
ATOM     24  C   UNL     1      46.442   4.826  13.670  0.00  0.00    +0.000 A 
BRANCH  22  25
ATOM     25  C   UNL     1      44.575   4.635  10.334  0.00  0.00    +0.000 C 
BRANCH  25  26
ATOM     26  O   UNL     1      43.230   4.990  10.674  0.00  0.00    +0.000 OA
ATOM     27  H   UNL     1      43.154   5.012  11.642  0.00  0.00    +0.000 HD
ENDBRANCH  25  26
BRANCH  25  28
ATOM     28  C   UNL     1      44.713   3.095  10.126  0.00  0.00    +0.000 C 
BRANCH  28  29
ATOM     29  N   UNL     1      44.465   2.563   8.761  0.00  0.00    +0.000 NA
ATOM     30  C   UNL     1      45.303   1.399   8.417  0.00  0.00    +0.000 C 
ATOM     31  C   UNL     1      46.624   1.981   7.962  0.00  0.00    +0.000 C 
ATOM     32  C   UNL     1      46.191   3.203   7.173  0.00  0.00    +0.000 C 
ATOM     33  C   UNL     1      44.828   3.581   7.749  0.00  0.00    +0.000 C 
ENDBRANCH  28  29
ENDBRANCH  25  28
ENDBRANCH  22  25
ENDBRANCH  18  19
ENDBRANCH   1  18
TORSDOF 9
ENDMDL
MODEL 2
REMARK VINA RESULT:    -7.463      1.918      2.527
REMARK INTER + INTRA:         -12.065
REMARK INTER:                 -10.646
REMARK INTRA:                  -1.418
REMARK UNBOUND:                -0.894
REMARK  Name = 
REMARK  10 active torsions:
REMARK  status: ('A' for Active; 'I' for Inactive)
REMARK    1  A    between atoms: C_1  and  C_2
REMARK    2  A    between atoms: C_2  and  N_3
REMARK    3  A    between atoms: C_2  and  C_19
REMARK    4  A    between atoms: N_3  and  C_4
REMARK    5  A    between atoms: C_4  and  C_5
REMARK    6  A    between atoms: C_8  and  C_9
REMARK    7  A    between atoms: C_9  and  O_10
REMARK    8  A    between atoms: C_9  and  C_11
REMARK    9  A    between atoms: C_11  and  N_12
REMARK   10  A    between atoms: C_19  and  C_21
REMARK                            x       y       z     vdW  Elec       q    Type
REMARK                         _______ _______ _______ _____ _____    ______ ____
ROOT
ATOM      1  N   UNL     1      49.426   6.737  14.957  0.00  0.00    +0.000 NA
ATOM      2  H   UNL     1      50.356   6.691  14.534  0.00  0.00    +0.000 HD
ENDROOT
BRANCH   1   4
ATOM      3  C   UNL     1      48.825   8.846  16.039  0.00  0.00    +0.000 C 
ATOM      4  C   UNL     1      49.531   7.511  16.231  0.00  0.00    +0.000 C 
BRANCH   4   5
ATOM      5  C   UNL     1      48.875   6.758  17.406  0.00  0.00    +0.000 C 
ATOM      6  O   UNL     1      48.427   7.409  18.360  0.00  0.00    +0.000 OA
BRANCH   5   7
ATOM      7  C   UNL     1      48.781   5.280  17.457  0.00  0.00    +0.000 A 
ATOM      8  C   UNL     1      47.516   4.703  17.373  0.00  0.00    +0.000 A 
ATOM      9  S   UNL     1      47.527   3.003  17.338  0.00  0.00    +0.000 S 
ATOM     10  C   UNL     1      49.224   2.965  17.396  0.00  0.00    +0.000 A 
ATOM     11  N   UNL     1      49.882   1.778  17.302  0.00  0.00    +0.000 NA
ATOM     12  C   UNL     1      51.169   1.881  17.295  0.00  0.00    +0.000 A 
ATOM     13  N   UNL     1      51.853   3.061  17.416  0.00  0.00    +0.000 N 
ATOM     14  C   UNL     1      51.230   4.261  17.656  0.00  0.00    +0.000 A 
ATOM     15  O   UNL     1      51.889   5.237  17.992  0.00  0.00    +0.000 OA
ATOM     16  C   UNL     1      49.780   4.231  17.531  0.00  0.00    +0.000 A 
ATOM     17  H   UNL     1      52.860   3.066  17.484  0.00  0.00    +0.000 HD
ENDBRANCH   5   7
ENDBRANCH   4   5
ENDBRANCH   1   4
BRANCH   1  18
ATOM     18  C   UNL     1      48.535   7.427  14.017  0.00  0.00    +0.000 C 
BRANCH  18  19
ATOM     19  C   UNL     1      47.497   6.505  13.429  0.00  0.00    +0.000 A 
ATOM     20  C   UNL     1      47.225   5.260  14.014  0.00  0.00    +0.000 A 
ATOM     21  C   UNL     1      46.187   4.457  13.526  0.00  0.00    +0.000 A 
ATOM     22  C   UNL     1      45.402   4.887  12.448  0.00  0.00    +0.000 A 
ATOM     23  C   UNL     1      45.708   6.117  11.839  0.00  0.00    +0.000 A 
ATOM     24  C   UNL     1      46.742   6.915  12.326  0.00  0.00    +0.000 A 
BRANCH  22  25
ATOM     25  C   UNL     1      44.251   4.035  11.931  0.00  0.00    +0.000 C 
BRANCH  25  26
ATOM     26  O   UNL     1      43.562   3.486  13.060  0.00  0.00    +0.000 OA
ATOM     27  H   UNL     1      42.660   3.844  13.073  0.00  0.00    +0.000 HD
ENDBRANCH  25  26
BRANCH  25  28
ATOM     28  C   UNL     1      44.770   2.906  10.988  0.00  0.00    +0.000 C 
BRANCH  28  29
ATOM     29  N   UNL     1      44.176   2.822   9.628  0.00  0.00    +0.000 NA
ATOM     30  C   UNL     1      44.692   1.699   8.824  0.00  0.00    +0.000 C 
ATOM     31  C   UNL     1      45.995   2.196   8.236  0.00  0.00    +0.000 C 
ATOM     32  C   UNL     1      45.673   3.639   7.895  0.00  0.00    +0.000 C 
ATOM     33  C   UNL     1      44.540   4.025   8.844  0.00  0.00    +0.000 C 
ENDBRANCH  28  29
ENDBRANCH  25  28
ENDBRANCH  22  25
ENDBRANCH  18  19
ENDBRANCH   1  18
TORSDOF 9
ENDMDL
MODEL 3
REMARK VINA RESULT:    -7.328      2.995      3.687
REMARK INTER + INTRA:         -11.862
REMARK INTER:                  -9.843
REMARK INTRA:                  -2.020
REMARK UNBOUND:                -0.894
REMARK  Name = 
REMARK  10 active torsions:
REMARK  status: ('A' for Active; 'I' for Inactive)
REMARK    1  A    between atoms: C_1  and  C_2
REMARK    2  A    between atoms: C_2  and  N_3
REMARK    3  A    between atoms: C_2  and  C_19
REMARK    4  A    between atoms: N_3  and  C_4
REMARK    5  A    between atoms: C_4  and  C_5
REMARK    6  A    between atoms: C_8  and  C_9
REMARK    7  A    between atoms: C_9  and  O_10
REMARK    8  A    between atoms: C_9  and  C_11
REMARK    9  A    between atoms: C_11  and  N_12
REMARK   10  A    between atoms: C_19  and  C_21
REMARK                            x       y       z     vdW  Elec       q    Type
REMARK                         _______ _______ _______ _____ _____    ______ ____
ROOT
ATOM      1  N   UNL     1      50.076   7.455  13.973  0.00  0.00    +0.000 NA
ATOM      2  H   UNL     1      50.949   7.216  13.497  0.00  0.00    +0.000 HD
ENDROOT
BRANCH   1   4
ATOM      3  C   UNL     1      50.546   9.578  15.090  0.00  0.00    +0.000 C 
ATOM      4  C   UNL     1      50.419   8.074  15.289  0.00  0.00    +0.000 C 
BRANCH   4   5
ATOM      5  C   UNL     1      49.331   7.796  16.345  0.00  0.00    +0.000 C 
ATOM      6  O   UNL     1      48.444   8.640  16.530  0.00  0.00    +0.000 OA
BRANCH   5   7
ATOM      7  C   UNL     1      49.316   6.567  17.174  0.00  0.00    +0.000 A 
ATOM      8  C   UNL     1      50.010   6.585  18.381  0.00  0.00    +0.000 A 
ATOM      9  S   UNL     1      49.846   5.165  19.301  0.00  0.00    +0.000 S 
ATOM     10  C   UNL     1      48.810   4.478  18.143  0.00  0.00    +0.000 A 
ATOM     11  N   UNL     1      48.230   3.271  18.380  0.00  0.00    +0.000 NA
ATOM     12  C   UNL     1      47.415   2.881  17.457  0.00  0.00    +0.000 A 
ATOM     13  N   UNL     1      47.165   3.571  16.302  0.00  0.00    +0.000 N 
ATOM     14  C   UNL     1      47.837   4.719  15.961  0.00  0.00    +0.000 A 
ATOM     15  O   UNL     1      47.751   5.163  14.823  0.00  0.00    +0.000 OA
ATOM     16  C   UNL     1      48.658   5.284  17.022  0.00  0.00    +0.000 A 
ATOM     17  H   UNL     1      46.578   3.174  15.584  0.00  0.00    +0.000 HD
ENDBRANCH   5   7
ENDBRANCH   4   5
ENDBRANCH   1   4
BRANCH   1  18
ATOM     18  C   UNL     1      49.351   8.416  13.134  0.00  0.00    +0.000 C 
BRANCH  18  19
ATOM     19  C   UNL     1      47.979   7.922  12.752  0.00  0.00    +0.000 A 
ATOM     20  C   UNL     1      46.826   8.492  13.309  0.00  0.00    +0.000 A 
ATOM     21  C   UNL     1      45.556   8.101  12.870  0.00  0.00    +0.000 A 
ATOM     22  C   UNL     1      45.417   7.135  11.864  0.00  0.00    +0.000 A 
ATOM     23  C   UNL     1      46.576   6.536  11.340  0.00  0.00    +0.000 A 
ATOM     24  C   UNL     1      47.840   6.926  11.779  0.00  0.00    +0.000 A 
BRANCH  22  25
ATOM     25  C   UNL     1      44.040   6.727  11.358  0.00  0.00    +0.000 C 
BRANCH  25  26
ATOM     26  O   UNL     1      43.267   7.916  11.163  0.00  0.00    +0.000 OA
ATOM     27  H   UNL     1      43.728   8.483  10.524  0.00  0.00    +0.000 HD
ENDBRANCH  25  26
BRANCH  25  28
ATOM     28  C   UNL     1      43.339   5.760  12.361  0.00  0.00    +0.000 C 
BRANCH  28  29
ATOM     29  N   UNL     1      43.013   4.392  11.881  0.00  0.00    +0.000 NA
ATOM     30  C   UNL     1      43.624   3.320  12.688  0.00  0.00    +0.000 C 
ATOM     31  C   UNL     1      45.036   3.180  12.160  0.00  0.00    +0.000 C 
ATOM     32  C   UNL     1      44.848   3.359  10.666  0.00  0.00    +0.000 C 
ATOM     33  C   UNL     1      43.572   4.187  10.525  0.00  0.00    +0.000 C 
ENDBRANCH  28  29
ENDBRANCH  25  28
ENDBRANCH  22  25
ENDBRANCH  18  19
ENDBRANCH   1  18
TORSDOF 9
ENDMDL
MODEL 4
REMARK VINA RESULT:    -7.130      2.991      3.509
REMARK INTER + INTRA:         -11.566
REMARK INTER:                 -10.133
REMARK INTRA:                  -1.433
REMARK UNBOUND:                -0.894
REMARK  Name = 
REMARK  10 active torsions:
REMARK  status: ('A' for Active; 'I' for Inactive)
REMARK    1  A    between atoms: C_1  and  C_2
REMARK    2  A    between atoms: C_2  and  N_3
REMARK    3  A    between atoms: C_2  and  C_19
REMARK    4  A    between atoms: N_3  and  C_4
REMARK    5  A    between atoms: C_4  and  C_5
REMARK    6  A    between atoms: C_8  and  C_9
REMARK    7  A    between atoms: C_9  and  O_10
REMARK    8  A    between atoms: C_9  and  C_11
REMARK    9  A    between atoms: C_11  and  N_12
REMARK   10  A    between atoms: C_19  and  C_21
REMARK                            x       y       z     vdW  Elec       q    Type
REMARK                         _______ _______ _______ _____ _____    ______ ____
ROOT
ATOM      1  N   UNL     1      49.681   6.697  14.344  0.00  0.00    +0.000 NA
ATOM      2  H   UNL     1      50.166   5.825  14.121  0.00  0.00    +0.000 HD
ENDROOT
BRANCH   1   4
ATOM      3  C   UNL     1      50.016   9.018  15.034  0.00  0.00    +0.000 C 
ATOM      4  C   UNL     1      50.679   7.654  14.910  0.00  0.00    +0.000 C 
BRANCH   4   5
ATOM      5  C   UNL     1      51.168   7.203  16.301  0.00  0.00    +0.000 C 
ATOM      6  O   UNL     1      52.327   6.783  16.423  0.00  0.00    +0.000 OA
BRANCH   5   7
ATOM      7  C   UNL     1      50.298   7.224  17.501  0.00  0.00    +0.000 A 
ATOM      8  C   UNL     1      50.552   8.187  18.475  0.00  0.00    +0.000 A 
ATOM      9  S   UNL     1      49.436   8.191  19.758  0.00  0.00    +0.000 S 
ATOM     10  C   UNL     1      48.545   6.930  19.050  0.00  0.00    +0.000 A 
ATOM     11  N   UNL     1      47.383   6.513  19.621  0.00  0.00    +0.000 NA
ATOM     12  C   UNL     1      46.763   5.593  18.960  0.00  0.00    +0.000 A 
ATOM     13  N   UNL     1      47.225   5.027  17.802  0.00  0.00    +0.000 N 
ATOM     14  C   UNL     1      48.458   5.317  17.272  0.00  0.00    +0.000 A 
ATOM     15  O   UNL     1      48.920   4.617  16.380  0.00  0.00    +0.000 OA
ATOM     16  C   UNL     1      49.137   6.447  17.890  0.00  0.00    +0.000 A 
ATOM     17  H   UNL     1      46.732   4.256  17.376  0.00  0.00    +0.000 HD
ENDBRANCH   5   7
ENDBRANCH   4   5
ENDBRANCH   1   4
BRANCH   1  18
ATOM     18  C   UNL     1      49.116   7.232  13.099  0.00  0.00    +0.000 C 
BRANCH  18  19
ATOM     19  C   UNL     1      47.801   6.588  12.744  0.00  0.00    +0.000 A 
ATOM     20  C   UNL     1      47.104   6.962  11.585  0.00  0.00    +0.000 A 
ATOM     21  C   UNL     1      45.939   6.285  11.207  0.00  0.00    +0.000 A 
ATOM     22  C   UNL     1      45.452   5.221  11.978  0.00  0.00    +0.000 A 
ATOM     23  C   UNL     1      46.130   4.879  13.161  0.00  0.00    +0.000 A 
ATOM     24  C   UNL     1      47.290   5.555  13.537  0.00  0.00    +0.000 A 
BRANCH  22  25
ATOM     25  C   UNL     1      44.203   4.459  11.556  0.00  0.00    +0.000 C 
BRANCH  25  26
ATOM     26  O   UNL     1      43.390   4.259  12.718  0.00  0.00    +0.000 OA
ATOM     27  H   UNL     1      42.584   4.790  12.625  0.00  0.00    +0.000 HD
ENDBRANCH  25  26
BRANCH  25  28
ATOM     28  C   UNL     1      44.575   3.098  10.892  0.00  0.00    +0.000 C 
BRANCH  28  29
ATOM     29  N   UNL     1      44.105   2.862   9.502  0.00  0.00    +0.000 NA
ATOM     30  C   UNL     1      44.691   1.664   8.873  0.00  0.00    +0.000 C 
ATOM     31  C   UNL     1      46.041   2.109   8.352  0.00  0.00    +0.000 C 
ATOM     32  C   UNL     1      45.750   3.503   7.831  0.00  0.00    +0.000 C 
ATOM     33  C   UNL     1      44.536   3.977   8.628  0.00  0.00    +0.000 C 
ENDBRANCH  28  29
ENDBRANCH  25  28
ENDBRANCH  22  25
ENDBRANCH  18  19
ENDBRANCH   1  18
TORSDOF 9
ENDMDL
MODEL 5
REMARK VINA RESULT:    -7.069      3.013      4.560
REMARK INTER + INTRA:         -11.475
REMARK INTER:                 -10.137
REMARK INTRA:                  -1.338
REMARK UNBOUND:                -0.894
REMARK  Name = 
REMARK  10 active torsions:
REMARK  status: ('A' for Active; 'I' for Inactive)
REMARK    1  A    between atoms: C_1  and  C_2
REMARK    2  A    between atoms: C_2  and  N_3
REMARK    3  A    between atoms: C_2  and  C_19
REMARK    4  A    between atoms: N_3  and  C_4
REMARK    5  A    between atoms: C_4  and  C_5
REMARK    6  A    between atoms: C_8  and  C_9
REMARK    7  A    between atoms: C_9  and  O_10
REMARK    8  A    between atoms: C_9  and  C_11
REMARK    9  A    between atoms: C_11  and  N_12
REMARK   10  A    between atoms: C_19  and  C_21
REMARK                            x       y       z     vdW  Elec       q    Type
REMARK                         _______ _______ _______ _____ _____    ______ ____
ROOT
ATOM      1  N   UNL     1      47.537   4.393  14.786  0.00  0.00    +0.000 NA
ATOM      2  H   UNL     1      47.891   5.286  14.435  0.00  0.00    +0.000 HD
ENDROOT
BRANCH   1   4
ATOM      3  C   UNL     1      48.169   2.893  16.611  0.00  0.00    +0.000 C 
ATOM      4  C   UNL     1      47.809   4.329  16.254  0.00  0.00    +0.000 C 
BRANCH   4   5
ATOM      5  C   UNL     1      48.974   5.255  16.655  0.00  0.00    +0.000 C 
ATOM      6  O   UNL     1      50.033   4.750  17.053  0.00  0.00    +0.000 OA
BRANCH   5   7
ATOM      7  C   UNL     1      48.873   6.734  16.611  0.00  0.00    +0.000 A 
ATOM      8  C   UNL     1      48.624   7.406  17.806  0.00  0.00    +0.000 A 
ATOM      9  S   UNL     1      48.628   9.100  17.665  0.00  0.00    +0.000 S 
ATOM     10  C   UNL     1      48.998   9.009  16.009  0.00  0.00    +0.000 A 
ATOM     11  N   UNL     1      49.231  10.147  15.300  0.00  0.00    +0.000 NA
ATOM     12  C   UNL     1      49.562   9.948  14.068  0.00  0.00    +0.000 A 
ATOM     13  N   UNL     1      49.640   8.717  13.475  0.00  0.00    +0.000 N 
ATOM     14  C   UNL     1      49.275   7.558  14.115  0.00  0.00    +0.000 A 
ATOM     15  O   UNL     1      49.135   6.523  13.475  0.00  0.00    +0.000 OA
ATOM     16  C   UNL     1      49.031   7.701  15.543  0.00  0.00    +0.000 A 
ATOM     17  H   UNL     1      49.827   8.634  12.487  0.00  0.00    +0.000 HD
ENDBRANCH   5   7
ENDBRANCH   4   5
ENDBRANCH   1   4
BRANCH   1  18
ATOM     18  C   UNL     1      46.092   4.350  14.536  0.00  0.00    +0.000 C 
BRANCH  18  19
ATOM     19  C   UNL     1      45.757   4.527  13.077  0.00  0.00    +0.000 A 
ATOM     20  C   UNL     1      46.054   5.723  12.409  0.00  0.00    +0.000 A 
ATOM     21  C   UNL     1      45.839   5.840  11.030  0.00  0.00    +0.000 A 
ATOM     22  C   UNL     1      45.326   4.762  10.297  0.00  0.00    +0.000 A 
ATOM     23  C   UNL     1      44.990   3.580  10.980  0.00  0.00    +0.000 A 
ATOM     24  C   UNL     1      45.204   3.466  12.352  0.00  0.00    +0.000 A 
BRANCH  22  25
ATOM     25  C   UNL     1      45.118   4.870   8.792  0.00  0.00    +0.000 C 
BRANCH  25  26
ATOM     26  O   UNL     1      43.844   4.297   8.476  0.00  0.00    +0.000 OA
ATOM     27  H   UNL     1      43.985   3.543   7.882  0.00  0.00    +0.000 HD
ENDBRANCH  25  26
BRANCH  25  28
ATOM     28  C   UNL     1      46.264   4.151   8.016  0.00  0.00    +0.000 C 
BRANCH  28  29
ATOM     29  N   UNL     1      45.898   2.972   7.189  0.00  0.00    +0.000 NA
ATOM     30  C   UNL     1      46.409   1.694   7.718  0.00  0.00    +0.000 C 
ATOM     31  C   UNL     1      47.839   1.606   7.229  0.00  0.00    +0.000 C 
ATOM     32  C   UNL     1      47.742   2.169   5.824  0.00  0.00    +0.000 C 
ATOM     33  C   UNL     1      46.519   3.083   5.849  0.00  0.00    +0.000 C 
ENDBRANCH  28  29
ENDBRANCH  25  28
ENDBRANCH  22  25
ENDBRANCH  18  19
ENDBRANCH   1  18
TORSDOF 9
ENDMDL
MODEL 6
REMARK VINA RESULT:    -6.962      2.332      3.038
REMARK INTER + INTRA:         -11.315
REMARK INTER:                  -9.741
REMARK INTRA:                  -1.575
REMARK UNBOUND:                -0.894
REMARK  Name = 
REMARK  10 active torsions:
REMARK  status: ('A' for Active; 'I' for Inactive)
REMARK    1  A    between atoms: C_1  and  C_2
REMARK    2  A    between atoms: C_2  and  N_3
REMARK    3  A    between atoms: C_2  and  C_19
REMARK    4  A    between atoms: N_3  and  C_4
REMARK    5  A    between atoms: C_4  and  C_5
REMARK    6  A    between atoms: C_8  and  C_9
REMARK    7  A    between atoms: C_9  and  O_10
REMARK    8  A    between atoms: C_9  and  C_11
REMARK    9  A    between atoms: C_11  and  N_12
REMARK   10  A    between atoms: C_19  and  C_21
REMARK                            x       y       z     vdW  Elec       q    Type
REMARK                         _______ _______ _______ _____ _____    ______ ____
ROOT
ATOM      1  N   UNL     1      50.072   6.965  14.841  0.00  0.00    +0.000 NA
ATOM      2  H   UNL     1      51.013   6.762  14.495  0.00  0.00    +0.000 HD
ENDROOT
BRANCH   1   4
ATOM      3  C   UNL     1      49.817   8.886  16.332  0.00  0.00    +0.000 C 
ATOM      4  C   UNL     1      50.185   7.411  16.263  0.00  0.00    +0.000 C 
BRANCH   4   5
ATOM      5  C   UNL     1      49.240   6.612  17.183  0.00  0.00    +0.000 C 
ATOM      6  O   UNL     1      48.543   7.225  18.004  0.00  0.00    +0.000 OA
BRANCH   5   7
ATOM      7  C   UNL     1      49.148   5.133  17.147  0.00  0.00    +0.000 A 
ATOM      8  C   UNL     1      47.954   4.564  16.712  0.00  0.00    +0.000 A 
ATOM      9  S   UNL     1      47.987   2.867  16.610  0.00  0.00    +0.000 S 
ATOM     10  C   UNL     1      49.611   2.822  17.109  0.00  0.00    +0.000 A 
ATOM     11  N   UNL     1      50.280   1.639  17.141  0.00  0.00    +0.000 NA
ATOM     12  C   UNL     1      51.523   1.738  17.476  0.00  0.00    +0.000 A 
ATOM     13  N   UNL     1      52.142   2.910  17.820  0.00  0.00    +0.000 N 
ATOM     14  C   UNL     1      51.468   4.101  17.938  0.00  0.00    +0.000 A 
ATOM     15  O   UNL     1      52.008   5.060  18.474  0.00  0.00    +0.000 OA
ATOM     16  C   UNL     1      50.101   4.080  17.436  0.00  0.00    +0.000 A 
ATOM     17  H   UNL     1      53.096   2.909  18.149  0.00  0.00    +0.000 HD
ENDBRANCH   5   7
ENDBRANCH   4   5
ENDBRANCH   1   4
BRANCH   1  18
ATOM     18  C   UNL     1      49.509   8.040  14.016  0.00  0.00    +0.000 C 
BRANCH  18  19
ATOM     19  C   UNL     1      48.159   7.680  13.449  0.00  0.00    +0.000 A 
ATOM     20  C   UNL     1      47.123   8.622  13.401  0.00  0.00    +0.000 A 
ATOM     21  C   UNL     1      45.909   8.312  12.776  0.00  0.00    +0.000 A 
ATOM     22  C   UNL     1      45.712   7.056  12.187  0.00  0.00    +0.000 A 
ATOM     23  C   UNL     1      46.740   6.101  12.277  0.00  0.00    +0.000 A 
ATOM     24  C   UNL     1      47.948   6.411  12.900  0.00  0.00    +0.000 A 
BRANCH  22  25
ATOM     25  C   UNL     1      44.407   6.722  11.478  0.00  0.00    +0.000 C 
BRANCH  25  26
ATOM     26  O   UNL     1      43.671   7.938  11.304  0.00  0.00    +0.000 OA
ATOM     27  H   UNL     1      44.217   8.559  10.797  0.00  0.00    +0.000 HD
ENDBRANCH  25  26
BRANCH  25  28
ATOM     28  C   UNL     1      43.581   5.677  12.290  0.00  0.00    +0.000 C 
BRANCH  28  29
ATOM     29  N   UNL     1      43.128   4.455  11.574  0.00  0.00    +0.000 NA
ATOM     30  C   UNL     1      43.522   3.200  12.238  0.00  0.00    +0.000 C 
ATOM     31  C   UNL     1      44.946   2.945  11.793  0.00  0.00    +0.000 C 
ATOM     32  C   UNL     1      44.917   3.371  10.337  0.00  0.00    +0.000 C 
ATOM     33  C   UNL     1      43.775   4.381  10.244  0.00  0.00    +0.000 C 
ENDBRANCH  28  29
ENDBRANCH  25  28
ENDBRANCH  22  25
ENDBRANCH  18  19
ENDBRANCH   1  18
TORSDOF 9
ENDMDL
MODEL 7
REMARK VINA RESULT:    -6.901      1.635      2.187
REMARK INTER + INTRA:         -11.224
REMARK INTER:                 -10.093
REMARK INTRA:                  -1.131
REMARK UNBOUND:                -0.894
REMARK  Name = 
REMARK  10 active torsions:
REMARK  status: ('A' for Active; 'I' for Inactive)
REMARK    1  A    between atoms: C_1  and  C_2
REMARK    2  A    between atoms: C_2  and  N_3
REMARK    3  A    between atoms: C_2  and  C_19
REMARK    4  A    between atoms: N_3  and  C_4
REMARK    5  A    between atoms: C_4  and  C_5
REMARK    6  A    between atoms: C_8  and  C_9
REMARK    7  A    between atoms: C_9  and  O_10
REMARK    8  A    between atoms: C_9  and  C_11
REMARK    9  A    between atoms: C_11  and  N_12
REMARK   10  A    between atoms: C_19  and  C_21
REMARK                            x       y       z     vdW  Elec       q    Type
REMARK                         _______ _______ _______ _____ _____    ______ ____
ROOT
ATOM      1  N   UNL     1      47.617   6.622  14.526  0.00  0.00    +0.000 NA
ATOM      2  H   UNL     1      47.923   5.647  14.560  0.00  0.00    +0.000 HD
ENDROOT
BRANCH   1   4
ATOM      3  C   UNL     1      48.145   8.894  15.258  0.00  0.00    +0.000 C 
ATOM      4  C   UNL     1      48.650   7.458  15.209  0.00  0.00    +0.000 C 
BRANCH   4   5
ATOM      5  C   UNL     1      48.914   6.968  16.647  0.00  0.00    +0.000 C 
ATOM      6  O   UNL     1      48.259   7.457  17.577  0.00  0.00    +0.000 OA
BRANCH   5   7
ATOM      7  C   UNL     1      49.945   5.953  16.969  0.00  0.00    +0.000 A 
ATOM      8  C   UNL     1      51.179   6.401  17.434  0.00  0.00    +0.000 A 
ATOM      9  S   UNL     1      52.252   5.156  17.871  0.00  0.00    +0.000 S 
ATOM     10  C   UNL     1      51.101   3.966  17.490  0.00  0.00    +0.000 A 
ATOM     11  N   UNL     1      51.372   2.655  17.732  0.00  0.00    +0.000 NA
ATOM     12  C   UNL     1      50.400   1.850  17.461  0.00  0.00    +0.000 A 
ATOM     13  N   UNL     1      49.198   2.238  16.930  0.00  0.00    +0.000 N 
ATOM     14  C   UNL     1      48.939   3.529  16.539  0.00  0.00    +0.000 A 
ATOM     15  O   UNL     1      47.952   3.775  15.858  0.00  0.00    +0.000 OA
ATOM     16  C   UNL     1      49.939   4.503  16.951  0.00  0.00    +0.000 A 
ATOM     17  H   UNL     1      48.509   1.550  16.666  0.00  0.00    +0.000 HD
ENDBRANCH   5   7
ENDBRANCH   4   5
ENDBRANCH   1   4
BRANCH   1  18
ATOM     18  C   UNL     1      47.501   7.011  13.116  0.00  0.00    +0.000 C 
BRANCH  18  19
ATOM     19  C   UNL     1      46.561   6.115  12.350  0.00  0.00    +0.000 A 
ATOM     20  C   UNL     1      46.123   6.462  11.064  0.00  0.00    +0.000 A 
ATOM     21  C   UNL     1      45.337   5.575  10.318  0.00  0.00    +0.000 A 
ATOM     22  C   UNL     1      44.979   4.326  10.844  0.00  0.00    +0.000 A 
ATOM     23  C   UNL     1      45.386   4.003  12.151  0.00  0.00    +0.000 A 
ATOM     24  C   UNL     1      46.168   4.887  12.892  0.00  0.00    +0.000 A 
BRANCH  22  25
ATOM     25  C   UNL     1      44.151   3.343  10.027  0.00  0.00    +0.000 C 
BRANCH  25  26
ATOM     26  O   UNL     1      44.152   2.085  10.712  0.00  0.00    +0.000 OA
ATOM     27  H   UNL     1      45.041   1.702  10.651  0.00  0.00    +0.000 HD
ENDBRANCH  25  26
BRANCH  25  28
ATOM     28  C   UNL     1      44.722   3.196   8.583  0.00  0.00    +0.000 C 
BRANCH  28  29
ATOM     29  N   UNL     1      46.187   2.991   8.442  0.00  0.00    +0.000 NA
ATOM     30  C   UNL     1      46.799   3.807   7.377  0.00  0.00    +0.000 C 
ATOM     31  C   UNL     1      46.557   3.036   6.097  0.00  0.00    +0.000 C 
ATOM     32  C   UNL     1      46.763   1.598   6.534  0.00  0.00    +0.000 C 
ATOM     33  C   UNL     1      46.463   1.595   8.032  0.00  0.00    +0.000 C 
ENDBRANCH  28  29
ENDBRANCH  25  28
ENDBRANCH  22  25
ENDBRANCH  18  19
ENDBRANCH   1  18
TORSDOF 9
ENDMDL
MODEL 8
REMARK VINA RESULT:    -6.865      1.428      1.789
REMARK INTER + INTRA:         -11.169
REMARK INTER:                 -10.026
REMARK INTRA:                  -1.144
REMARK UNBOUND:                -0.894
REMARK  Name = 
REMARK  10 active torsions:
REMARK  status: ('A' for Active; 'I' for Inactive)
REMARK    1  A    between atoms: C_1  and  C_2
REMARK    2  A    between atoms: C_2  and  N_3
REMARK    3  A    between atoms: C_2  and  C_19
REMARK    4  A    between atoms: N_3  and  C_4
REMARK    5  A    between atoms: C_4  and  C_5
REMARK    6  A    between atoms: C_8  and  C_9
REMARK    7  A    between atoms: C_9  and  O_10
REMARK    8  A    between atoms: C_9  and  C_11
REMARK    9  A    between atoms: C_11  and  N_12
REMARK   10  A    between atoms: C_19  and  C_21
REMARK                            x       y       z     vdW  Elec       q    Type
REMARK                         _______ _______ _______ _____ _____    ______ ____
ROOT
ATOM      1  N   UNL     1      48.010   7.996  15.525  0.00  0.00    +0.000 NA
ATOM      2  H   UNL     1      47.225   7.428  15.852  0.00  0.00    +0.000 HD
ENDROOT
BRANCH   1   4
ATOM      3  C   UNL     1      48.826   9.003  17.598  0.00  0.00    +0.000 C 
ATOM      4  C   UNL     1      49.093   7.929  16.552  0.00  0.00    +0.000 C 
BRANCH   4   5
ATOM      5  C   UNL     1      49.133   6.552  17.243  0.00  0.00    +0.000 C 
ATOM      6  O   UNL     1      48.089   6.092  17.726  0.00  0.00    +0.000 OA
BRANCH   5   7
ATOM      7  C   UNL     1      50.380   5.762  17.381  0.00  0.00    +0.000 A 
ATOM      8  C   UNL     1      51.564   6.451  17.629  0.00  0.00    +0.000 A 
ATOM      9  S   UNL     1      52.916   5.448  17.872  0.00  0.00    +0.000 S 
ATOM     10  C   UNL     1      51.969   4.049  17.691  0.00  0.00    +0.000 A 
ATOM     11  N   UNL     1      52.525   2.822  17.880  0.00  0.00    +0.000 NA
ATOM     12  C   UNL     1      51.695   1.839  17.777  0.00  0.00    +0.000 A 
ATOM     13  N   UNL     1      50.370   1.973  17.461  0.00  0.00    +0.000 N 
ATOM     14  C   UNL     1      49.804   3.179  17.124  0.00  0.00    +0.000 A 
ATOM     15  O   UNL     1      48.687   3.211  16.623  0.00  0.00    +0.000 OA
ATOM     16  C   UNL     1      50.651   4.338  17.361  0.00  0.00    +0.000 A 
ATOM     17  H   UNL     1      49.791   1.159  17.318  0.00  0.00    +0.000 HD
ENDBRANCH   5   7
ENDBRANCH   4   5
ENDBRANCH   1   4
BRANCH   1  18
ATOM     18  C   UNL     1      48.480   7.430  14.255  0.00  0.00    +0.000 C 
BRANCH  18  19
ATOM     19  C   UNL     1      47.469   6.500  13.634  0.00  0.00    +0.000 A 
ATOM     20  C   UNL     1      47.216   5.237  14.186  0.00  0.00    +0.000 A 
ATOM     21  C   UNL     1      46.202   4.424  13.667  0.00  0.00    +0.000 A 
ATOM     22  C   UNL     1      45.421   4.862  12.589  0.00  0.00    +0.000 A 
ATOM     23  C   UNL     1      45.708   6.111  12.012  0.00  0.00    +0.000 A 
ATOM     24  C   UNL     1      46.719   6.919  12.530  0.00  0.00    +0.000 A 
BRANCH  22  25
ATOM     25  C   UNL     1      44.295   3.997  12.038  0.00  0.00    +0.000 C 
BRANCH  25  26
ATOM     26  O   UNL     1      43.647   3.354  13.142  0.00  0.00    +0.000 OA
ATOM     27  H   UNL     1      43.023   2.698  12.792  0.00  0.00    +0.000 HD
ENDBRANCH  25  26
BRANCH  25  28
ATOM     28  C   UNL     1      44.840   2.950  11.020  0.00  0.00    +0.000 C 
BRANCH  28  29
ATOM     29  N   UNL     1      44.237   2.936   9.661  0.00  0.00    +0.000 NA
ATOM     30  C   UNL     1      44.600   1.750   8.864  0.00  0.00    +0.000 C 
ATOM     31  C   UNL     1      45.955   2.070   8.270  0.00  0.00    +0.000 C 
ATOM     32  C   UNL     1      45.823   3.540   7.921  0.00  0.00    +0.000 C 
ATOM     33  C   UNL     1      44.753   4.076   8.869  0.00  0.00    +0.000 C 
ENDBRANCH  28  29
ENDBRANCH  25  28
ENDBRANCH  22  25
ENDBRANCH  18  19
ENDBRANCH   1  18
TORSDOF 9
ENDMDL
MODEL 9
REMARK VINA RESULT:    -6.558      3.817      8.549
REMARK INTER + INTRA:         -10.710
REMARK INTER:                  -9.225
REMARK INTRA:                  -1.485
REMARK UNBOUND:                -0.894
REMARK  Name = 
REMARK  10 active torsions:
REMARK  status: ('A' for Active; 'I' for Inactive)
REMARK    1  A    between atoms: C_1  and  C_2
REMARK    2  A    between atoms: C_2  and  N_3
REMARK    3  A    between atoms: C_2  and  C_19
REMARK    4  A    between atoms: N_3  and  C_4
REMARK    5  A    between atoms: C_4  and  C_5
REMARK    6  A    between atoms: C_8  and  C_9
REMARK    7  A    between atoms: C_9  and  O_10
REMARK    8  A    between atoms: C_9  and  C_11
REMARK    9  A    between atoms: C_11  and  N_12
REMARK   10  A    between atoms: C_19  and  C_21
REMARK                            x       y       z     vdW  Elec       q    Type
REMARK                         _______ _______ _______ _____ _____    ______ ____
ROOT
ATOM      1  N   UNL     1      47.986   8.869  13.172  0.00  0.00    +0.000 NA
ATOM      2  H   UNL     1      47.713   9.782  12.802  0.00  0.00    +0.000 HD
ENDROOT
BRANCH   1   4
ATOM      3  C   UNL     1      49.328   7.617  11.557  0.00  0.00    +0.000 C 
ATOM      4  C   UNL     1      47.913   7.875  12.059  0.00  0.00    +0.000 C 
BRANCH   4   5
ATOM      5  C   UNL     1      47.294   6.543  12.528  0.00  0.00    +0.000 C 
ATOM      6  O   UNL     1      47.995   5.750  13.171  0.00  0.00    +0.000 OA
BRANCH   5   7
ATOM      7  C   UNL     1      45.897   6.157  12.218  0.00  0.00    +0.000 A 
ATOM      8  C   UNL     1      45.048   7.136  11.708  0.00  0.00    +0.000 A 
ATOM      9  S   UNL     1      43.501   6.567  11.290  0.00  0.00    +0.000 S 
ATOM     10  C   UNL     1      43.912   4.980  11.739  0.00  0.00    +0.000 A 
ATOM     11  N   UNL     1      43.029   3.966  11.536  0.00  0.00    +0.000 NA
ATOM     12  C   UNL     1      43.475   2.798  11.858  0.00  0.00    +0.000 A 
ATOM     13  N   UNL     1      44.709   2.563  12.403  0.00  0.00    +0.000 N 
ATOM     14  C   UNL     1      45.572   3.573  12.754  0.00  0.00    +0.000 A 
ATOM     15  O   UNL     1      46.549   3.328  13.450  0.00  0.00    +0.000 OA
ATOM     16  C   UNL     1      45.186   4.896  12.286  0.00  0.00    +0.000 A 
ATOM     17  H   UNL     1      44.968   1.636  12.707  0.00  0.00    +0.000 HD
ENDBRANCH   5   7
ENDBRANCH   4   5
ENDBRANCH   1   4
BRANCH   1  18
ATOM     18  C   UNL     1      49.362   8.974  13.670  0.00  0.00    +0.000 C 
BRANCH  18  19
ATOM     19  C   UNL     1      49.529   8.343  15.029  0.00  0.00    +0.000 A 
ATOM     20  C   UNL     1      48.662   8.662  16.083  0.00  0.00    +0.000 A 
ATOM     21  C   UNL     1      48.758   7.993  17.309  0.00  0.00    +0.000 A 
ATOM     22  C   UNL     1      49.721   6.993  17.500  0.00  0.00    +0.000 A 
ATOM     23  C   UNL     1      50.616   6.708  16.453  0.00  0.00    +0.000 A 
ATOM     24  C   UNL     1      50.519   7.376  15.234  0.00  0.00    +0.000 A 
BRANCH  22  25
ATOM     25  C   UNL     1      49.812   6.238  18.820  0.00  0.00    +0.000 C 
BRANCH  25  26
ATOM     26  O   UNL     1      50.786   6.892  19.640  0.00  0.00    +0.000 OA
ATOM     27  H   UNL     1      50.849   7.821  19.363  0.00  0.00    +0.000 HD
ENDBRANCH  25  26
BRANCH  25  28
ATOM     28  C   UNL     1      50.189   4.743  18.585  0.00  0.00    +0.000 C 
BRANCH  28  29
ATOM     29  N   UNL     1      49.098   3.738  18.677  0.00  0.00    +0.000 NA
ATOM     30  C   UNL     1      49.014   2.847  17.505  0.00  0.00    +0.000 C 
ATOM     31  C   UNL     1      48.226   3.623  16.472  0.00  0.00    +0.000 C 
ATOM     32  C   UNL     1      47.171   4.314  17.313  0.00  0.00    +0.000 C 
ATOM     33  C   UNL     1      47.785   4.421  18.707  0.00  0.00    +0.000 C 
ENDBRANCH  28  29
ENDBRANCH  25  28
ENDBRANCH  22  25
ENDBRANCH  18  19
ENDBRANCH   1  18
TORSDOF 9
ENDMDL
