MODEL 1
REMARK VINA RESULT:    -8.018      0.000      0.000
REMARK INTER + INTRA:         -11.210
REMARK INTER:                 -10.596
REMARK INTRA:                  -0.613
REMARK UNBOUND:                -0.613
REMARK  Name = 
REMARK  6 active torsions:
REMARK  status: ('A' for Active; 'I' for Inactive)
REMARK    1  A    between atoms: N_1  and  C_2
REMARK    2  A    between atoms: C_2  and  C_3
REMARK    3  A    between atoms: C_7  and  C_8
REMARK    4  A    between atoms: C_8  and  C_9
REMARK    5  A    between atoms: C_9  and  N_10
REMARK    6  A    between atoms: C_14  and  C_15
REMARK                            x       y       z     vdW  Elec       q    Type
REMARK                         _______ _______ _______ _____ _____    ______ ____
ROOT
ATOM      1  N   UNL     1      43.750   3.741  10.372  0.00  0.00    +0.000 N 
ATOM      2  C   UNL     1      44.688   3.408   9.374  0.00  0.00    +0.000 A 
ATOM      3  C   UNL     1      45.092   2.081   9.241  0.00  0.00    +0.000 A 
ATOM      4  C   UNL     1      46.018   1.734   8.254  0.00  0.00    +0.000 A 
ATOM      5  C   UNL     1      46.502   2.738   7.436  0.00  0.00    +0.000 A 
ATOM      6  N   UNL     1      46.120   4.026   7.581  0.00  0.00    +0.000 NA
ATOM      7  N   UNL     1      45.221   4.353   8.562  0.00  0.00    +0.000 NA
ATOM      8  H   UNL     1      42.928   3.155  10.253  0.00  0.00    +0.000 HD
ENDROOT
BRANCH   5   9
ATOM      9  C   UNL     1      47.461   2.450   6.332  0.00  0.00    +0.000 C 
ATOM     10  N   UNL     1      47.407   3.294   5.254  0.00  0.00    +0.000 N 
ATOM     11  O   UNL     1      48.242   1.510   6.375  0.00  0.00    +0.000 OA
ATOM     12  H   UNL     1      46.750   4.065   5.227  0.00  0.00    +0.000 HD
ATOM     13  H   UNL     1      48.023   3.132   4.470  0.00  0.00    +0.000 HD
ENDBRANCH   5   9
BRANCH   1  14
ATOM     14  C   UNL     1      43.411   5.177  10.393  0.00  0.00    +0.000 C 
BRANCH  14  15
ATOM     15  C   UNL     1      43.538   5.741  11.812  0.00  0.00    +0.000 C 
BRANCH  15  20
ATOM     16  C   UNL     1      46.749   5.224  13.845  0.00  0.00    +0.000 A 
ATOM     17  C   UNL     1      47.659   5.982  13.097  0.00  0.00    +0.000 A 
ATOM     18  C   UNL     1      47.232   6.696  11.979  0.00  0.00    +0.000 A 
ATOM     19  C   UNL     1      45.893   6.645  11.580  0.00  0.00    +0.000 A 
ATOM     20  C   UNL     1      44.968   5.872  12.293  0.00  0.00    +0.000 A 
ATOM     21  C   UNL     1      45.403   5.187  13.439  0.00  0.00    +0.000 A 
BRANCH  16  22
ATOM     22  C   UNL     1      47.210   4.460  15.062  0.00  0.00    +0.000 C 
BRANCH  22  23
ATOM     23  N   UNL     1      47.590   3.091  14.726  0.00  0.00    +0.000 NA
ATOM     24  H   UNL     1      48.549   2.929  15.028  0.00  0.00    +0.000 HD
ATOM     25  H   UNL     1      47.588   2.995  13.711  0.00  0.00    +0.000 HD
ENDBRANCH  22  23
ENDBRANCH  16  22
ENDBRANCH  15  20
ENDBRANCH  14  15
ENDBRANCH   1  14
TORSDOF 6
ENDMDL
MODEL 2
REMARK VINA RESULT:    -7.957      2.051      2.509
REMARK INTER + INTRA:         -11.129
REMARK INTER:                 -10.559
REMARK INTRA:                  -0.570
REMARK UNBOUND:                -0.613
REMARK  Name = 
REMARK  6 active torsions:
REMARK  status: ('A' for Active; 'I' for Inactive)
REMARK    1  A    between atoms: N_1  and  C_2
REMARK    2  A    between atoms: C_2  and  C_3
REMARK    3  A    between atoms: C_7  and  C_8
REMARK    4  A    between atoms: C_8  and  C_9
REMARK    5  A    between atoms: C_9  and  N_10
REMARK    6  A    between atoms: C_14  and  C_15
REMARK                            x       y       z     vdW  Elec       q    Type
REMARK                         _______ _______ _______ _____ _____    ______ ____
ROOT
ATOM      1  N   UNL     1      43.873   4.893   9.977  0.00  0.00    +0.000 N 
ATOM      2  C   UNL     1      44.670   3.936   9.316  0.00  0.00    +0.000 A 
ATOM      3  C   UNL     1      45.476   4.343   8.255  0.00  0.00    +0.000 A 
ATOM      4  C   UNL     1      46.273   3.407   7.592  0.00  0.00    +0.000 A 
ATOM      5  C   UNL     1      46.230   2.094   8.024  0.00  0.00    +0.000 A 
ATOM      6  N   UNL     1      45.435   1.703   9.043  0.00  0.00    +0.000 NA
ATOM      7  N   UNL     1      44.647   2.629   9.676  0.00  0.00    +0.000 NA
ATOM      8  H   UNL     1      44.472   5.653  10.289  0.00  0.00    +0.000 HD
ENDROOT
BRANCH   5   9
ATOM      9  C   UNL     1      47.079   1.040   7.401  0.00  0.00    +0.000 C 
ATOM     10  N   UNL     1      46.735  -0.255   7.686  0.00  0.00    +0.000 N 
ATOM     11  O   UNL     1      48.034   1.310   6.687  0.00  0.00    +0.000 OA
ATOM     12  H   UNL     1      45.945  -0.465   8.285  0.00  0.00    +0.000 HD
ATOM     13  H   UNL     1      47.289  -1.008   7.303  0.00  0.00    +0.000 HD
ENDBRANCH   5   9
BRANCH   1  14
ATOM     14  C   UNL     1      43.079   4.323  11.082  0.00  0.00    +0.000 C 
BRANCH  14  15
ATOM     15  C   UNL     1      43.247   5.160  12.355  0.00  0.00    +0.000 C 
BRANCH  15  20
ATOM     16  C   UNL     1      46.535   6.979  13.122  0.00  0.00    +0.000 A 
ATOM     17  C   UNL     1      47.319   5.918  13.591  0.00  0.00    +0.000 A 
ATOM     18  C   UNL     1      46.811   4.620  13.612  0.00  0.00    +0.000 A 
ATOM     19  C   UNL     1      45.505   4.367  13.181  0.00  0.00    +0.000 A 
ATOM     20  C   UNL     1      44.690   5.414  12.735  0.00  0.00    +0.000 A 
ATOM     21  C   UNL     1      45.225   6.711  12.684  0.00  0.00    +0.000 A 
BRANCH  16  22
ATOM     22  C   UNL     1      47.088   8.383  13.090  0.00  0.00    +0.000 C 
BRANCH  22  23
ATOM     23  N   UNL     1      47.121   8.978  14.422  0.00  0.00    +0.000 NA
ATOM     24  H   UNL     1      47.237   8.240  15.113  0.00  0.00    +0.000 HD
ATOM     25  H   UNL     1      46.215   9.406  14.608  0.00  0.00    +0.000 HD
ENDBRANCH  22  23
ENDBRANCH  16  22
ENDBRANCH  15  20
ENDBRANCH  14  15
ENDBRANCH   1  14
TORSDOF 6
ENDMDL
MODEL 3
REMARK VINA RESULT:    -7.328      1.552      2.132
REMARK INTER + INTRA:         -10.298
REMARK INTER:                  -9.713
REMARK INTRA:                  -0.585
REMARK UNBOUND:                -0.613
REMARK  Name = 
REMARK  6 active torsions:
REMARK  status: ('A' for Active; 'I' for Inactive)
REMARK    1  A    between atoms: N_1  and  C_2
REMARK    2  A    between atoms: C_2  and  C_3
REMARK    3  A    between atoms: C_7  and  C_8
REMARK    4  A    between atoms: C_8  and  C_9
REMARK    5  A    between atoms: C_9  and  N_10
REMARK    6  A    between atoms: C_14  and  C_15
REMARK                            x       y       z     vdW  Elec       q    Type
REMARK                         _______ _______ _______ _____ _____    ______ ____
ROOT
ATOM      1  N   UNL     1      43.796   3.631  10.496  0.00  0.00    +0.000 N 
ATOM      2  C   UNL     1      44.694   3.407   9.432  0.00  0.00    +0.000 A 
ATOM      3  C   UNL     1      45.136   2.110   9.182  0.00  0.00    +0.000 A 
ATOM      4  C   UNL     1      46.023   1.870   8.129  0.00  0.00    +0.000 A 
ATOM      5  C   UNL     1      46.430   2.950   7.366  0.00  0.00    +0.000 A 
ATOM      6  N   UNL     1      46.011   4.207   7.624  0.00  0.00    +0.000 NA
ATOM      7  N   UNL     1      45.151   4.428   8.669  0.00  0.00    +0.000 NA
ATOM      8  H   UNL     1      42.990   3.023  10.373  0.00  0.00    +0.000 HD
ENDROOT
BRANCH   5   9
ATOM      9  C   UNL     1      47.341   2.779   6.199  0.00  0.00    +0.000 C 
ATOM     10  N   UNL     1      48.652   2.507   6.494  0.00  0.00    +0.000 N 
ATOM     11  O   UNL     1      46.951   2.887   5.046  0.00  0.00    +0.000 OA
ATOM     12  H   UNL     1      48.964   2.428   7.455  0.00  0.00    +0.000 HD
ATOM     13  H   UNL     1      49.315   2.400   5.741  0.00  0.00    +0.000 HD
ENDBRANCH   5   9
BRANCH   1  14
ATOM     14  C   UNL     1      43.409   5.046  10.640  0.00  0.00    +0.000 C 
BRANCH  14  15
ATOM     15  C   UNL     1      43.568   5.505  12.094  0.00  0.00    +0.000 C 
BRANCH  15  20
ATOM     16  C   UNL     1      47.084   6.973  12.534  0.00  0.00    +0.000 A 
ATOM     17  C   UNL     1      47.632   6.072  13.456  0.00  0.00    +0.000 A 
ATOM     18  C   UNL     1      46.894   4.973  13.893  0.00  0.00    +0.000 A 
ATOM     19  C   UNL     1      45.591   4.770  13.429  0.00  0.00    +0.000 A 
ATOM     20  C   UNL     1      45.009   5.670  12.528  0.00  0.00    +0.000 A 
ATOM     21  C   UNL     1      45.775   6.753  12.067  0.00  0.00    +0.000 A 
BRANCH  16  22
ATOM     22  C   UNL     1      47.887   8.157  12.053  0.00  0.00    +0.000 C 
BRANCH  22  23
ATOM     23  N   UNL     1      49.147   7.741  11.445  0.00  0.00    +0.000 NA
ATOM     24  H   UNL     1      49.797   7.470  12.180  0.00  0.00    +0.000 HD
ATOM     25  H   UNL     1      49.562   8.547  10.978  0.00  0.00    +0.000 HD
ENDBRANCH  22  23
ENDBRANCH  16  22
ENDBRANCH  15  20
ENDBRANCH  14  15
ENDBRANCH   1  14
TORSDOF 6
ENDMDL
MODEL 4
REMARK VINA RESULT:    -7.101      3.006      7.326
REMARK INTER + INTRA:          -9.997
REMARK INTER:                  -9.665
REMARK INTRA:                  -0.332
REMARK UNBOUND:                -0.613
REMARK  Name = 
REMARK  6 active torsions:
REMARK  status: ('A' for Active; 'I' for Inactive)
REMARK    1  A    between atoms: N_1  and  C_2
REMARK    2  A    between atoms: C_2  and  C_3
REMARK    3  A    between atoms: C_7  and  C_8
REMARK    4  A    between atoms: C_8  and  C_9
REMARK    5  A    between atoms: C_9  and  N_10
REMARK    6  A    between atoms: C_14  and  C_15
REMARK                            x       y       z     vdW  Elec       q    Type
REMARK                         _______ _______ _______ _____ _____    ______ ____
ROOT
ATOM      1  N   UNL     1      46.130   5.921  11.578  0.00  0.00    +0.000 N 
ATOM      2  C   UNL     1      46.528   5.502  12.864  0.00  0.00    +0.000 A 
ATOM      3  C   UNL     1      47.506   6.229  13.540  0.00  0.00    +0.000 A 
ATOM      4  C   UNL     1      47.909   5.830  14.816  0.00  0.00    +0.000 A 
ATOM      5  C   UNL     1      47.310   4.710  15.365  0.00  0.00    +0.000 A 
ATOM      6  N   UNL     1      46.374   4.000  14.698  0.00  0.00    +0.000 NA
ATOM      7  N   UNL     1      45.999   4.397  13.441  0.00  0.00    +0.000 NA
ATOM      8  H   UNL     1      45.842   6.895  11.630  0.00  0.00    +0.000 HD
ENDROOT
BRANCH   5   9
ATOM      9  C   UNL     1      47.650   4.238  16.737  0.00  0.00    +0.000 C 
ATOM     10  N   UNL     1      47.082   4.936  17.771  0.00  0.00    +0.000 N 
ATOM     11  O   UNL     1      48.400   3.293  16.934  0.00  0.00    +0.000 OA
ATOM     12  H   UNL     1      46.468   5.723  17.595  0.00  0.00    +0.000 HD
ATOM     13  H   UNL     1      47.294   4.669  18.721  0.00  0.00    +0.000 HD
ENDBRANCH   5   9
BRANCH   1  14
ATOM     14  C   UNL     1      45.086   5.064  10.987  0.00  0.00    +0.000 C 
BRANCH  14  15
ATOM     15  C   UNL     1      45.101   5.171   9.458  0.00  0.00    +0.000 C 
BRANCH  15  20
ATOM     16  C   UNL     1      46.708   2.738   6.967  0.00  0.00    +0.000 A 
ATOM     17  C   UNL     1      46.365   1.508   7.543  0.00  0.00    +0.000 A 
ATOM     18  C   UNL     1      45.581   1.461   8.694  0.00  0.00    +0.000 A 
ATOM     19  C   UNL     1      45.143   2.644   9.297  0.00  0.00    +0.000 A 
ATOM     20  C   UNL     1      45.495   3.888   8.758  0.00  0.00    +0.000 A 
ATOM     21  C   UNL     1      46.255   3.921   7.578  0.00  0.00    +0.000 A 
BRANCH  16  22
ATOM     22  C   UNL     1      47.549   2.787   5.715  0.00  0.00    +0.000 C 
BRANCH  22  23
ATOM     23  N   UNL     1      48.538   1.715   5.688  0.00  0.00    +0.000 NA
ATOM     24  H   UNL     1      48.433   1.188   4.824  0.00  0.00    +0.000 HD
ATOM     25  H   UNL     1      48.332   1.066   6.447  0.00  0.00    +0.000 HD
ENDBRANCH  22  23
ENDBRANCH  16  22
ENDBRANCH  15  20
ENDBRANCH  14  15
ENDBRANCH   1  14
TORSDOF 6
ENDMDL
MODEL 5
REMARK VINA RESULT:    -6.715      3.436      6.367
REMARK INTER + INTRA:          -9.487
REMARK INTER:                  -8.912
REMARK INTRA:                  -0.575
REMARK UNBOUND:                -0.613
REMARK  Name = 
REMARK  6 active torsions:
REMARK  status: ('A' for Active; 'I' for Inactive)
REMARK    1  A    between atoms: N_1  and  C_2
REMARK    2  A    between atoms: C_2  and  C_3
REMARK    3  A    between atoms: C_7  and  C_8
REMARK    4  A    between atoms: C_8  and  C_9
REMARK    5  A    between atoms: C_9  and  N_10
REMARK    6  A    between atoms: C_14  and  C_15
REMARK                            x       y       z     vdW  Elec       q    Type
REMARK                         _______ _______ _______ _____ _____    ______ ____
ROOT
ATOM      1  N   UNL     1      44.024   4.628  12.158  0.00  0.00    +0.000 N 
ATOM      2  C   UNL     1      45.018   5.616  12.309  0.00  0.00    +0.000 A 
ATOM      3  C   UNL     1      44.636   6.919  12.620  0.00  0.00    +0.000 A 
ATOM      4  C   UNL     1      45.610   7.909  12.776  0.00  0.00    +0.000 A 
ATOM      5  C   UNL     1      46.935   7.547  12.613  0.00  0.00    +0.000 A 
ATOM      6  N   UNL     1      47.298   6.286  12.295  0.00  0.00    +0.000 NA
ATOM      7  N   UNL     1      46.330   5.328  12.131  0.00  0.00    +0.000 NA
ATOM      8  H   UNL     1      43.452   4.614  12.999  0.00  0.00    +0.000 HD
ENDROOT
BRANCH   5   9
ATOM      9  C   UNL     1      48.039   8.529  12.802  0.00  0.00    +0.000 C 
ATOM     10  N   UNL     1      49.018   8.525  11.843  0.00  0.00    +0.000 N 
ATOM     11  O   UNL     1      48.081   9.287  13.760  0.00  0.00    +0.000 OA
ATOM     12  H   UNL     1      48.975   7.886  11.057  0.00  0.00    +0.000 HD
ATOM     13  H   UNL     1      49.799   9.159  11.932  0.00  0.00    +0.000 HD
ENDBRANCH   5   9
BRANCH   1  14
ATOM     14  C   UNL     1      44.572   3.298  11.836  0.00  0.00    +0.000 C 
BRANCH  14  15
ATOM     15  C   UNL     1      44.046   2.810  10.481  0.00  0.00    +0.000 C 
BRANCH  15  20
ATOM     16  C   UNL     1      46.538   1.971   7.690  0.00  0.00    +0.000 A 
ATOM     17  C   UNL     1      46.753   3.240   7.138  0.00  0.00    +0.000 A 
ATOM     18  C   UNL     1      46.142   4.363   7.693  0.00  0.00    +0.000 A 
ATOM     19  C   UNL     1      45.292   4.231   8.795  0.00  0.00    +0.000 A 
ATOM     20  C   UNL     1      45.037   2.970   9.347  0.00  0.00    +0.000 A 
ATOM     21  C   UNL     1      45.687   1.851   8.803  0.00  0.00    +0.000 A 
BRANCH  16  22
ATOM     22  C   UNL     1      47.208   0.756   7.095  0.00  0.00    +0.000 C 
BRANCH  22  23
ATOM     23  N   UNL     1      46.767  -0.474   7.744  0.00  0.00    +0.000 NA
ATOM     24  H   UNL     1      45.750  -0.503   7.743  0.00  0.00    +0.000 HD
ATOM     25  H   UNL     1      47.053  -0.444   8.722  0.00  0.00    +0.000 HD
ENDBRANCH  22  23
ENDBRANCH  16  22
ENDBRANCH  15  20
ENDBRANCH  14  15
ENDBRANCH   1  14
TORSDOF 6
ENDMDL
MODEL 6
REMARK VINA RESULT:    -6.551      2.260      3.399
REMARK INTER + INTRA:          -9.270
REMARK INTER:                  -8.904
REMARK INTRA:                  -0.367
REMARK UNBOUND:                -0.613
REMARK  Name = 
REMARK  6 active torsions:
REMARK  status: ('A' for Active; 'I' for Inactive)
REMARK    1  A    between atoms: N_1  and  C_2
REMARK    2  A    between atoms: C_2  and  C_3
REMARK    3  A    between atoms: C_7  and  C_8
REMARK    4  A    between atoms: C_8  and  C_9
REMARK    5  A    between atoms: C_9  and  N_10
REMARK    6  A    between atoms: C_14  and  C_15
REMARK                            x       y       z     vdW  Elec       q    Type
REMARK                         _______ _______ _______ _____ _____    ______ ____
ROOT
ATOM      1  N   UNL     1      43.940   3.647  10.488  0.00  0.00    +0.000 N 
ATOM      2  C   UNL     1      44.837   3.331   9.447  0.00  0.00    +0.000 A 
ATOM      3  C   UNL     1      45.147   1.994   9.204  0.00  0.00    +0.000 A 
ATOM      4  C   UNL     1      46.031   1.663   8.175  0.00  0.00    +0.000 A 
ATOM      5  C   UNL     1      46.570   2.693   7.426  0.00  0.00    +0.000 A 
ATOM      6  N   UNL     1      46.279   3.988   7.677  0.00  0.00    +0.000 NA
ATOM      7  N   UNL     1      45.421   4.298   8.700  0.00  0.00    +0.000 NA
ATOM      8  H   UNL     1      43.077   3.129  10.341  0.00  0.00    +0.000 HD
ENDROOT
BRANCH   5   9
ATOM      9  C   UNL     1      47.489   2.428   6.284  0.00  0.00    +0.000 C 
ATOM     10  N   UNL     1      47.336   3.238   5.188  0.00  0.00    +0.000 N 
ATOM     11  O   UNL     1      48.323   1.534   6.311  0.00  0.00    +0.000 OA
ATOM     12  H   UNL     1      46.636   3.970   5.175  0.00  0.00    +0.000 HD
ATOM     13  H   UNL     1      47.922   3.089   4.380  0.00  0.00    +0.000 HD
ENDBRANCH   5   9
BRANCH   1  14
ATOM     14  C   UNL     1      43.701   5.096  10.626  0.00  0.00    +0.000 C 
BRANCH  14  15
ATOM     15  C   UNL     1      44.089   5.576  12.029  0.00  0.00    +0.000 C 
BRANCH  15  20
ATOM     16  C   UNL     1      44.598   9.328  11.420  0.00  0.00    +0.000 A 
ATOM     17  C   UNL     1      45.714   9.577  12.228  0.00  0.00    +0.000 A 
ATOM     18  C   UNL     1      46.328   8.536  12.923  0.00  0.00    +0.000 A 
ATOM     19  C   UNL     1      45.824   7.235  12.834  0.00  0.00    +0.000 A 
ATOM     20  C   UNL     1      44.693   6.964  12.056  0.00  0.00    +0.000 A 
ATOM     21  C   UNL     1      44.105   8.013  11.332  0.00  0.00    +0.000 A 
BRANCH  16  22
ATOM     22  C   UNL     1      43.939  10.453  10.660  0.00  0.00    +0.000 C 
BRANCH  22  23
ATOM     23  N   UNL     1      44.925  11.325  10.028  0.00  0.00    +0.000 NA
ATOM     24  H   UNL     1      45.577  10.756   9.494  0.00  0.00    +0.000 HD
ATOM     25  H   UNL     1      45.471  11.779  10.759  0.00  0.00    +0.000 HD
ENDBRANCH  22  23
ENDBRANCH  16  22
ENDBRANCH  15  20
ENDBRANCH  14  15
ENDBRANCH   1  14
TORSDOF 6
ENDMDL
MODEL 7
REMARK VINA RESULT:    -6.452      3.809      7.990
REMARK INTER + INTRA:          -9.140
REMARK INTER:                  -8.825
REMARK INTRA:                  -0.315
REMARK UNBOUND:                -0.613
REMARK  Name = 
REMARK  6 active torsions:
REMARK  status: ('A' for Active; 'I' for Inactive)
REMARK    1  A    between atoms: N_1  and  C_2
REMARK    2  A    between atoms: C_2  and  C_3
REMARK    3  A    between atoms: C_7  and  C_8
REMARK    4  A    between atoms: C_8  and  C_9
REMARK    5  A    between atoms: C_9  and  N_10
REMARK    6  A    between atoms: C_14  and  C_15
REMARK                            x       y       z     vdW  Elec       q    Type
REMARK                         _______ _______ _______ _____ _____    ______ ____
ROOT
ATOM      1  N   UNL     1      47.356   4.734  15.978  0.00  0.00    +0.000 N 
ATOM      2  C   UNL     1      48.438   3.927  16.384  0.00  0.00    +0.000 A 
ATOM      3  C   UNL     1      49.287   4.389  17.388  0.00  0.00    +0.000 A 
ATOM      4  C   UNL     1      50.362   3.600  17.805  0.00  0.00    +0.000 A 
ATOM      5  C   UNL     1      50.541   2.372  17.194  0.00  0.00    +0.000 A 
ATOM      6  N   UNL     1      49.724   1.937  16.209  0.00  0.00    +0.000 NA
ATOM      7  N   UNL     1      48.682   2.728  15.802  0.00  0.00    +0.000 NA
ATOM      8  H   UNL     1      46.802   4.970  16.798  0.00  0.00    +0.000 HD
ENDROOT
BRANCH   5   9
ATOM      9  C   UNL     1      51.636   1.449  17.605  0.00  0.00    +0.000 C 
ATOM     10  N   UNL     1      51.244   0.230  18.093  0.00  0.00    +0.000 N 
ATOM     11  O   UNL     1      52.816   1.761  17.525  0.00  0.00    +0.000 OA
ATOM     12  H   UNL     1      50.263  -0.014  18.160  0.00  0.00    +0.000 HD
ATOM     13  H   UNL     1      51.946  -0.426  18.402  0.00  0.00    +0.000 HD
ENDBRANCH   5   9
BRANCH   1  14
ATOM     14  C   UNL     1      46.540   4.117  14.915  0.00  0.00    +0.000 C 
BRANCH  14  15
ATOM     15  C   UNL     1      46.657   4.917  13.612  0.00  0.00    +0.000 C 
BRANCH  15  20
ATOM     16  C   UNL     1      44.340   4.417  10.598  0.00  0.00    +0.000 A 
ATOM     17  C   UNL     1      43.088   4.631  11.190  0.00  0.00    +0.000 A 
ATOM     18  C   UNL     1      42.995   4.982  12.535  0.00  0.00    +0.000 A 
ATOM     19  C   UNL     1      44.150   5.108  13.313  0.00  0.00    +0.000 A 
ATOM     20  C   UNL     1      45.411   4.872  12.753  0.00  0.00    +0.000 A 
ATOM     21  C   UNL     1      45.495   4.554  11.389  0.00  0.00    +0.000 A 
BRANCH  16  22
ATOM     22  C   UNL     1      44.441   4.046   9.139  0.00  0.00    +0.000 C 
BRANCH  22  23
ATOM     23  N   UNL     1      45.393   4.897   8.432  0.00  0.00    +0.000 NA
ATOM     24  H   UNL     1      46.335   4.667   8.739  0.00  0.00    +0.000 HD
ATOM     25  H   UNL     1      45.228   5.864   8.707  0.00  0.00    +0.000 HD
ENDBRANCH  22  23
ENDBRANCH  16  22
ENDBRANCH  15  20
ENDBRANCH  14  15
ENDBRANCH   1  14
TORSDOF 6
ENDMDL
MODEL 8
REMARK VINA RESULT:    -6.415      3.705      6.166
REMARK INTER + INTRA:          -9.091
REMARK INTER:                  -8.759
REMARK INTRA:                  -0.332
REMARK UNBOUND:                -0.613
REMARK  Name = 
REMARK  6 active torsions:
REMARK  status: ('A' for Active; 'I' for Inactive)
REMARK    1  A    between atoms: N_1  and  C_2
REMARK    2  A    between atoms: C_2  and  C_3
REMARK    3  A    between atoms: C_7  and  C_8
REMARK    4  A    between atoms: C_8  and  C_9
REMARK    5  A    between atoms: C_9  and  N_10
REMARK    6  A    between atoms: C_14  and  C_15
REMARK                            x       y       z     vdW  Elec       q    Type
REMARK                         _______ _______ _______ _____ _____    ______ ____
ROOT
ATOM      1  N   UNL     1      47.172   4.865  15.140  0.00  0.00    +0.000 N 
ATOM      2  C   UNL     1      46.465   4.654  13.939  0.00  0.00    +0.000 A 
ATOM      3  C   UNL     1      46.088   5.755  13.173  0.00  0.00    +0.000 A 
ATOM      4  C   UNL     1      45.390   5.562  11.978  0.00  0.00    +0.000 A 
ATOM      5  C   UNL     1      45.099   4.265  11.599  0.00  0.00    +0.000 A 
ATOM      6  N   UNL     1      45.453   3.202  12.354  0.00  0.00    +0.000 NA
ATOM      7  N   UNL     1      46.125   3.408  13.531  0.00  0.00    +0.000 NA
ATOM      8  H   UNL     1      47.996   5.425  14.937  0.00  0.00    +0.000 HD
ENDROOT
BRANCH   5   9
ATOM      9  C   UNL     1      44.395   3.966  10.320  0.00  0.00    +0.000 C 
ATOM     10  N   UNL     1      44.524   4.904   9.329  0.00  0.00    +0.000 N 
ATOM     11  O   UNL     1      43.729   2.953  10.163  0.00  0.00    +0.000 OA
ATOM     12  H   UNL     1      45.073   5.744   9.475  0.00  0.00    +0.000 HD
ATOM     13  H   UNL     1      44.052   4.760   8.448  0.00  0.00    +0.000 HD
ENDBRANCH   5   9
BRANCH   1  14
ATOM     14  C   UNL     1      47.511   3.613  15.842  0.00  0.00    +0.000 C 
BRANCH  14  15
ATOM     15  C   UNL     1      47.940   3.901  17.284  0.00  0.00    +0.000 C 
BRANCH  15  20
ATOM     16  C   UNL     1      51.561   2.674  17.586  0.00  0.00    +0.000 A 
ATOM     17  C   UNL     1      52.243   3.892  17.705  0.00  0.00    +0.000 A 
ATOM     18  C   UNL     1      51.539   5.095  17.740  0.00  0.00    +0.000 A 
ATOM     19  C   UNL     1      50.145   5.098  17.637  0.00  0.00    +0.000 A 
ATOM     20  C   UNL     1      49.441   3.897  17.488  0.00  0.00    +0.000 A 
ATOM     21  C   UNL     1      50.158   2.690  17.491  0.00  0.00    +0.000 A 
BRANCH  16  22
ATOM     22  C   UNL     1      52.324   1.372  17.558  0.00  0.00    +0.000 C 
BRANCH  22  23
ATOM     23  N   UNL     1      51.538   0.277  18.117  0.00  0.00    +0.000 NA
ATOM     24  H   UNL     1      52.148  -0.322  18.669  0.00  0.00    +0.000 HD
ATOM     25  H   UNL     1      51.191  -0.297  17.349  0.00  0.00    +0.000 HD
ENDBRANCH  22  23
ENDBRANCH  16  22
ENDBRANCH  15  20
ENDBRANCH  14  15
ENDBRANCH   1  14
TORSDOF 6
ENDMDL
MODEL 9
REMARK VINA RESULT:    -6.346      3.253      7.464
REMARK INTER + INTRA:          -9.000
REMARK INTER:                  -8.549
REMARK INTRA:                  -0.451
REMARK UNBOUND:                -0.613
REMARK  Name = 
REMARK  6 active torsions:
REMARK  status: ('A' for Active; 'I' for Inactive)
REMARK    1  A    between atoms: N_1  and  C_2
REMARK    2  A    between atoms: C_2  and  C_3
REMARK    3  A    between atoms: C_7  and  C_8
REMARK    4  A    between atoms: C_8  and  C_9
REMARK    5  A    between atoms: C_9  and  N_10
REMARK    6  A    between atoms: C_14  and  C_15
REMARK                            x       y       z     vdW  Elec       q    Type
REMARK                         _______ _______ _______ _____ _____    ______ ____
ROOT
ATOM      1  N   UNL     1      48.384   7.139  13.739  0.00  0.00    +0.000 N 
ATOM      2  C   UNL     1      48.195   6.173  14.747  0.00  0.00    +0.000 A 
ATOM      3  C   UNL     1      48.728   6.403  16.014  0.00  0.00    +0.000 A 
ATOM      4  C   UNL     1      48.547   5.457  17.025  0.00  0.00    +0.000 A 
ATOM      5  C   UNL     1      47.833   4.311  16.722  0.00  0.00    +0.000 A 
ATOM      6  N   UNL     1      47.333   4.086  15.487  0.00  0.00    +0.000 NA
ATOM      7  N   UNL     1      47.531   5.018  14.502  0.00  0.00    +0.000 NA
ATOM      8  H   UNL     1      48.047   8.036  14.082  0.00  0.00    +0.000 HD
ENDROOT
BRANCH   5   9
ATOM      9  C   UNL     1      47.558   3.270  17.751  0.00  0.00    +0.000 C 
ATOM     10  N   UNL     1      48.442   3.209  18.797  0.00  0.00    +0.000 N 
ATOM     11  O   UNL     1      46.608   2.504  17.666  0.00  0.00    +0.000 OA
ATOM     12  H   UNL     1      49.229   3.845  18.851  0.00  0.00    +0.000 HD
ATOM     13  H   UNL     1      48.311   2.509  19.512  0.00  0.00    +0.000 HD
ENDBRANCH   5   9
BRANCH   1  14
ATOM     14  C   UNL     1      47.762   6.767  12.454  0.00  0.00    +0.000 C 
BRANCH  14  15
ATOM     15  C   UNL     1      46.343   7.340  12.355  0.00  0.00    +0.000 C 
BRANCH  15  20
ATOM     16  C   UNL     1      44.395   4.710  10.356  0.00  0.00    +0.000 A 
ATOM     17  C   UNL     1      43.453   4.300  11.309  0.00  0.00    +0.000 A 
ATOM     18  C   UNL     1      43.413   4.901  12.566  0.00  0.00    +0.000 A 
ATOM     19  C   UNL     1      44.326   5.907  12.895  0.00  0.00    +0.000 A 
ATOM     20  C   UNL     1      45.296   6.316  11.972  0.00  0.00    +0.000 A 
ATOM     21  C   UNL     1      45.303   5.729  10.697  0.00  0.00    +0.000 A 
BRANCH  16  22
ATOM     22  C   UNL     1      44.431   4.066   8.992  0.00  0.00    +0.000 C 
BRANCH  22  23
ATOM     23  N   UNL     1      45.493   4.625   8.162  0.00  0.00    +0.000 NA
ATOM     24  H   UNL     1      45.344   5.626   8.061  0.00  0.00    +0.000 HD
ATOM     25  H   UNL     1      45.416   4.227   7.226  0.00  0.00    +0.000 HD
ENDBRANCH  22  23
ENDBRANCH  16  22
ENDBRANCH  15  20
ENDBRANCH  14  15
ENDBRANCH   1  14
TORSDOF 6
ENDMDL
