MODEL 1
REMARK VINA RESULT:    -7.600      0.000      0.000
REMARK INTER + INTRA:          -9.539
REMARK INTER:                  -8.933
REMARK INTRA:                  -0.607
REMARK UNBOUND:                -0.607
REMARK  Name = 
REMARK  3 active torsions:
REMARK  status: ('A' for Active; 'I' for Inactive)
REMARK    1  A    between atoms: C_2  and  C_3
REMARK    2  A    between atoms: N_5  and  C_6
REMARK    3  A    between atoms: C_6  and  C_7
REMARK                            x       y       z     vdW  Elec       q    Type
REMARK                         _______ _______ _______ _____ _____    ______ ____
ROOT
ATOM      1  C   UNL     1      46.177   4.117  13.118  0.00  0.00    +0.000 A 
ATOM      2  C   UNL     1      45.670   3.255  12.169  0.00  0.00    +0.000 A 
ATOM      3  N   UNL     1      45.024   4.005  11.214  0.00  0.00    +0.000 N 
ATOM      4  C   UNL     1      45.132   5.353  11.521  0.00  0.00    +0.000 A 
ATOM      5  C   UNL     1      44.665   6.493  10.851  0.00  0.00    +0.000 A 
ATOM      6  C   UNL     1      44.932   7.745  11.412  0.00  0.00    +0.000 A 
ATOM      7  C   UNL     1      45.635   7.860  12.606  0.00  0.00    +0.000 A 
ATOM      8  C   UNL     1      46.097   6.718  13.271  0.00  0.00    +0.000 A 
ATOM      9  C   UNL     1      45.849   5.442  12.721  0.00  0.00    +0.000 A 
ENDROOT
BRANCH   1  11
ATOM     10  N   UNL     1      47.498   3.398  15.230  0.00  0.00    +0.000 NA
ATOM     11  C   UNL     1      46.901   3.721  14.285  0.00  0.00    +0.000 C 
ENDBRANCH   1  11
BRANCH   3  12
ATOM     12  C   UNL     1      44.298   3.449  10.072  0.00  0.00    +0.000 C 
BRANCH  12  13
ATOM     13  C   UNL     1      45.242   3.028   8.970  0.00  0.00    +0.000 A 
ATOM     14  C   UNL     1      45.712   3.960   8.030  0.00  0.00    +0.000 A 
ATOM     15  C   UNL     1      46.474   3.550   6.934  0.00  0.00    +0.000 A 
ATOM     16  C   UNL     1      46.803   2.205   6.782  0.00  0.00    +0.000 A 
ATOM     17  C   UNL     1      46.398   1.292   7.747  0.00  0.00    +0.000 A 
ATOM     18  F   UNL     1      46.731   0.001   7.611  0.00  0.00    +0.000 F 
ATOM     19  C   UNL     1      45.631   1.688   8.839  0.00  0.00    +0.000 A 
ENDBRANCH  12  13
ENDBRANCH   3  12
TORSDOF 3
ENDMDL
MODEL 2
REMARK VINA RESULT:    -7.467      1.051      1.524
REMARK INTER + INTRA:          -9.383
REMARK INTER:                  -8.827
REMARK INTRA:                  -0.555
REMARK UNBOUND:                -0.607
REMARK  Name = 
REMARK  3 active torsions:
REMARK  status: ('A' for Active; 'I' for Inactive)
REMARK    1  A    between atoms: C_2  and  C_3
REMARK    2  A    between atoms: N_5  and  C_6
REMARK    3  A    between atoms: C_6  and  C_7
REMARK                            x       y       z     vdW  Elec       q    Type
REMARK                         _______ _______ _______ _____ _____    ______ ____
ROOT
ATOM      1  C   UNL     1      46.219   4.106  13.069  0.00  0.00    +0.000 A 
ATOM      2  C   UNL     1      45.617   3.293  12.133  0.00  0.00    +0.000 A 
ATOM      3  N   UNL     1      44.934   4.096  11.249  0.00  0.00    +0.000 N 
ATOM      4  C   UNL     1      45.112   5.428  11.588  0.00  0.00    +0.000 A 
ATOM      5  C   UNL     1      44.642   6.605  10.987  0.00  0.00    +0.000 A 
ATOM      6  C   UNL     1      44.991   7.827  11.565  0.00  0.00    +0.000 A 
ATOM      7  C   UNL     1      45.779   7.879  12.710  0.00  0.00    +0.000 A 
ATOM      8  C   UNL     1      46.244   6.701  13.307  0.00  0.00    +0.000 A 
ATOM      9  C   UNL     1      45.913   5.453  12.737  0.00  0.00    +0.000 A 
ENDROOT
BRANCH   1  11
ATOM     10  N   UNL     1      47.642   3.271  15.069  0.00  0.00    +0.000 NA
ATOM     11  C   UNL     1      47.007   3.647  14.170  0.00  0.00    +0.000 C 
ENDBRANCH   1  11
BRANCH   3  12
ATOM     12  C   UNL     1      44.112   3.602  10.143  0.00  0.00    +0.000 C 
BRANCH  12  13
ATOM     13  C   UNL     1      44.964   3.054   9.023  0.00  0.00    +0.000 A 
ATOM     14  C   UNL     1      45.319   1.694   8.988  0.00  0.00    +0.000 A 
ATOM     15  C   UNL     1      46.214   1.213   8.031  0.00  0.00    +0.000 A 
ATOM     16  C   UNL     1      46.741   2.079   7.076  0.00  0.00    +0.000 A 
ATOM     17  C   UNL     1      46.339   3.408   7.066  0.00  0.00    +0.000 A 
ATOM     18  F   UNL     1      46.831   4.237   6.135  0.00  0.00    +0.000 F 
ATOM     19  C   UNL     1      45.454   3.901   8.020  0.00  0.00    +0.000 A 
ENDBRANCH  12  13
ENDBRANCH   3  12
TORSDOF 3
ENDMDL
MODEL 3
REMARK VINA RESULT:    -7.459      1.846      2.801
REMARK INTER + INTRA:          -9.374
REMARK INTER:                  -8.747
REMARK INTRA:                  -0.628
REMARK UNBOUND:                -0.607
REMARK  Name = 
REMARK  3 active torsions:
REMARK  status: ('A' for Active; 'I' for Inactive)
REMARK    1  A    between atoms: C_2  and  C_3
REMARK    2  A    between atoms: N_5  and  C_6
REMARK    3  A    between atoms: C_6  and  C_7
REMARK                            x       y       z     vdW  Elec       q    Type
REMARK                         _______ _______ _______ _____ _____    ______ ____
ROOT
ATOM      1  C   UNL     1      46.017   5.923  11.076  0.00  0.00    +0.000 A 
ATOM      2  C   UNL     1      45.913   5.686   9.722  0.00  0.00    +0.000 A 
ATOM      3  N   UNL     1      45.037   4.641   9.539  0.00  0.00    +0.000 N 
ATOM      4  C   UNL     1      44.548   4.215  10.764  0.00  0.00    +0.000 A 
ATOM      5  C   UNL     1      43.627   3.210  11.092  0.00  0.00    +0.000 A 
ATOM      6  C   UNL     1      43.324   3.006  12.441  0.00  0.00    +0.000 A 
ATOM      7  C   UNL     1      43.923   3.773  13.434  0.00  0.00    +0.000 A 
ATOM      8  C   UNL     1      44.843   4.774  13.100  0.00  0.00    +0.000 A 
ATOM      9  C   UNL     1      45.160   5.006  11.745  0.00  0.00    +0.000 A 
ENDROOT
BRANCH   1  11
ATOM     10  N   UNL     1      47.519   7.732  12.168  0.00  0.00    +0.000 NA
ATOM     11  C   UNL     1      46.846   6.921  11.674  0.00  0.00    +0.000 C 
ENDBRANCH   1  11
BRANCH   3  12
ATOM     12  C   UNL     1      44.711   4.049   8.241  0.00  0.00    +0.000 C 
BRANCH  12  13
ATOM     13  C   UNL     1      45.805   3.124   7.764  0.00  0.00    +0.000 A 
ATOM     14  C   UNL     1      46.784   3.572   6.861  0.00  0.00    +0.000 A 
ATOM     15  C   UNL     1      47.714   2.685   6.316  0.00  0.00    +0.000 A 
ATOM     16  C   UNL     1      47.698   1.345   6.691  0.00  0.00    +0.000 A 
ATOM     17  C   UNL     1      46.776   0.913   7.635  0.00  0.00    +0.000 A 
ATOM     18  F   UNL     1      46.772  -0.373   8.012  0.00  0.00    +0.000 F 
ATOM     19  C   UNL     1      45.838   1.786   8.180  0.00  0.00    +0.000 A 
ENDBRANCH  12  13
ENDBRANCH   3  12
TORSDOF 3
ENDMDL
MODEL 4
REMARK VINA RESULT:    -7.053      1.838      2.486
REMARK INTER + INTRA:          -8.896
REMARK INTER:                  -8.272
REMARK INTRA:                  -0.624
REMARK UNBOUND:                -0.607
REMARK  Name = 
REMARK  3 active torsions:
REMARK  status: ('A' for Active; 'I' for Inactive)
REMARK    1  A    between atoms: C_2  and  C_3
REMARK    2  A    between atoms: N_5  and  C_6
REMARK    3  A    between atoms: C_6  and  C_7
REMARK                            x       y       z     vdW  Elec       q    Type
REMARK                         _______ _______ _______ _____ _____    ______ ____
ROOT
ATOM      1  C   UNL     1      46.699   4.796  14.072  0.00  0.00    +0.000 A 
ATOM      2  C   UNL     1      45.614   4.506  13.274  0.00  0.00    +0.000 A 
ATOM      3  N   UNL     1      45.646   5.350  12.188  0.00  0.00    +0.000 N 
ATOM      4  C   UNL     1      46.763   6.168  12.261  0.00  0.00    +0.000 A 
ATOM      5  C   UNL     1      47.237   7.163  11.393  0.00  0.00    +0.000 A 
ATOM      6  C   UNL     1      48.413   7.834  11.737  0.00  0.00    +0.000 A 
ATOM      7  C   UNL     1      49.094   7.530  12.911  0.00  0.00    +0.000 A 
ATOM      8  C   UNL     1      48.616   6.538  13.774  0.00  0.00    +0.000 A 
ATOM      9  C   UNL     1      47.434   5.839  13.445  0.00  0.00    +0.000 A 
ENDROOT
BRANCH   1  11
ATOM     10  N   UNL     1      47.253   3.621  16.316  0.00  0.00    +0.000 NA
ATOM     11  C   UNL     1      47.008   4.146  15.307  0.00  0.00    +0.000 C 
ENDBRANCH   1  11
BRANCH   3  12
ATOM     12  C   UNL     1      44.625   5.395  11.141  0.00  0.00    +0.000 C 
BRANCH  12  13
ATOM     13  C   UNL     1      44.912   4.395  10.046  0.00  0.00    +0.000 A 
ATOM     14  C   UNL     1      44.466   3.066  10.150  0.00  0.00    +0.000 A 
ATOM     15  C   UNL     1      44.844   2.109   9.206  0.00  0.00    +0.000 A 
ATOM     16  C   UNL     1      45.646   2.475   8.129  0.00  0.00    +0.000 A 
ATOM     17  C   UNL     1      46.031   3.802   7.986  0.00  0.00    +0.000 A 
ATOM     18  F   UNL     1      46.787   4.158   6.939  0.00  0.00    +0.000 F 
ATOM     19  C   UNL     1      45.668   4.763   8.925  0.00  0.00    +0.000 A 
ENDBRANCH  12  13
ENDBRANCH   3  12
TORSDOF 3
ENDMDL
MODEL 5
REMARK VINA RESULT:    -6.752      1.483      1.931
REMARK INTER + INTRA:          -8.543
REMARK INTER:                  -7.959
REMARK INTRA:                  -0.584
REMARK UNBOUND:                -0.607
REMARK  Name = 
REMARK  3 active torsions:
REMARK  status: ('A' for Active; 'I' for Inactive)
REMARK    1  A    between atoms: C_2  and  C_3
REMARK    2  A    between atoms: N_5  and  C_6
REMARK    3  A    between atoms: C_6  and  C_7
REMARK                            x       y       z     vdW  Elec       q    Type
REMARK                         _______ _______ _______ _____ _____    ______ ____
ROOT
ATOM      1  C   UNL     1      46.849   6.385  12.952  0.00  0.00    +0.000 A 
ATOM      2  C   UNL     1      46.256   5.304  12.335  0.00  0.00    +0.000 A 
ATOM      3  N   UNL     1      45.207   5.769  11.577  0.00  0.00    +0.000 N 
ATOM      4  C   UNL     1      45.130   7.149  11.675  0.00  0.00    +0.000 A 
ATOM      5  C   UNL     1      44.257   8.071  11.080  0.00  0.00    +0.000 A 
ATOM      6  C   UNL     1      44.426   9.426  11.372  0.00  0.00    +0.000 A 
ATOM      7  C   UNL     1      45.428   9.853  12.236  0.00  0.00    +0.000 A 
ATOM      8  C   UNL     1      46.296   8.929  12.829  0.00  0.00    +0.000 A 
ATOM      9  C   UNL     1      46.152   7.555  12.543  0.00  0.00    +0.000 A 
ENDROOT
BRANCH   1  11
ATOM     10  N   UNL     1      48.878   6.261  14.561  0.00  0.00    +0.000 NA
ATOM     11  C   UNL     1      47.966   6.313  13.841  0.00  0.00    +0.000 C 
ENDBRANCH   1  11
BRANCH   3  12
ATOM     12  C   UNL     1      44.289   4.918  10.819  0.00  0.00    +0.000 C 
BRANCH  12  13
ATOM     13  C   UNL     1      45.017   4.136   9.751  0.00  0.00    +0.000 A 
ATOM     14  C   UNL     1      45.747   4.795   8.747  0.00  0.00    +0.000 A 
ATOM     15  C   UNL     1      46.307   4.083   7.684  0.00  0.00    +0.000 A 
ATOM     16  C   UNL     1      46.171   2.699   7.628  0.00  0.00    +0.000 A 
ATOM     17  C   UNL     1      45.509   2.037   8.654  0.00  0.00    +0.000 A 
ATOM     18  F   UNL     1      45.395   0.703   8.611  0.00  0.00    +0.000 F 
ATOM     19  C   UNL     1      44.940   2.737   9.715  0.00  0.00    +0.000 A 
ENDBRANCH  12  13
ENDBRANCH   3  12
TORSDOF 3
ENDMDL
MODEL 6
REMARK VINA RESULT:    -5.970      2.231      3.583
REMARK INTER + INTRA:          -7.624
REMARK INTER:                  -7.171
REMARK INTRA:                  -0.453
REMARK UNBOUND:                -0.607
REMARK  Name = 
REMARK  3 active torsions:
REMARK  status: ('A' for Active; 'I' for Inactive)
REMARK    1  A    between atoms: C_2  and  C_3
REMARK    2  A    between atoms: N_5  and  C_6
REMARK    3  A    between atoms: C_6  and  C_7
REMARK                            x       y       z     vdW  Elec       q    Type
REMARK                         _______ _______ _______ _____ _____    ______ ____
ROOT
ATOM      1  C   UNL     1      47.181   7.384  12.015  0.00  0.00    +0.000 A 
ATOM      2  C   UNL     1      46.110   7.076  11.203  0.00  0.00    +0.000 A 
ATOM      3  N   UNL     1      45.501   5.951  11.709  0.00  0.00    +0.000 N 
ATOM      4  C   UNL     1      46.153   5.542  12.862  0.00  0.00    +0.000 A 
ATOM      5  C   UNL     1      45.899   4.475  13.738  0.00  0.00    +0.000 A 
ATOM      6  C   UNL     1      46.743   4.309  14.838  0.00  0.00    +0.000 A 
ATOM      7  C   UNL     1      47.812   5.170  15.059  0.00  0.00    +0.000 A 
ATOM      8  C   UNL     1      48.062   6.232  14.181  0.00  0.00    +0.000 A 
ATOM      9  C   UNL     1      47.218   6.428  13.066  0.00  0.00    +0.000 A 
ENDROOT
BRANCH   1  11
ATOM     10  N   UNL     1      48.803   9.372  11.644  0.00  0.00    +0.000 NA
ATOM     11  C   UNL     1      48.078   8.477  11.812  0.00  0.00    +0.000 C 
ENDBRANCH   1  11
BRANCH   3  12
ATOM     12  C   UNL     1      44.362   5.274  11.090  0.00  0.00    +0.000 C 
BRANCH  12  13
ATOM     13  C   UNL     1      44.808   4.306  10.020  0.00  0.00    +0.000 A 
ATOM     14  C   UNL     1      44.512   2.935  10.121  0.00  0.00    +0.000 A 
ATOM     15  C   UNL     1      45.038   2.021   9.205  0.00  0.00    +0.000 A 
ATOM     16  C   UNL     1      45.840   2.469   8.159  0.00  0.00    +0.000 A 
ATOM     17  C   UNL     1      46.078   3.830   8.018  0.00  0.00    +0.000 A 
ATOM     18  F   UNL     1      46.834   4.263   7.000  0.00  0.00    +0.000 F 
ATOM     19  C   UNL     1      45.566   4.750   8.929  0.00  0.00    +0.000 A 
ENDBRANCH  12  13
ENDBRANCH   3  12
TORSDOF 3
ENDMDL
MODEL 7
REMARK VINA RESULT:    -5.843      3.159      6.036
REMARK INTER + INTRA:          -7.474
REMARK INTER:                  -6.841
REMARK INTRA:                  -0.633
REMARK UNBOUND:                -0.607
REMARK  Name = 
REMARK  3 active torsions:
REMARK  status: ('A' for Active; 'I' for Inactive)
REMARK    1  A    between atoms: C_2  and  C_3
REMARK    2  A    between atoms: N_5  and  C_6
REMARK    3  A    between atoms: C_6  and  C_7
REMARK                            x       y       z     vdW  Elec       q    Type
REMARK                         _______ _______ _______ _____ _____    ______ ____
ROOT
ATOM      1  C   UNL     1      45.516   4.642   9.273  0.00  0.00    +0.000 A 
ATOM      2  C   UNL     1      45.957   5.891   9.654  0.00  0.00    +0.000 A 
ATOM      3  N   UNL     1      45.484   6.141  10.921  0.00  0.00    +0.000 N 
ATOM      4  C   UNL     1      44.762   5.050  11.378  0.00  0.00    +0.000 A 
ATOM      5  C   UNL     1      44.110   4.819  12.599  0.00  0.00    +0.000 A 
ATOM      6  C   UNL     1      43.451   3.600  12.776  0.00  0.00    +0.000 A 
ATOM      7  C   UNL     1      43.433   2.642  11.767  0.00  0.00    +0.000 A 
ATOM      8  C   UNL     1      44.083   2.879  10.551  0.00  0.00    +0.000 A 
ATOM      9  C   UNL     1      44.764   4.098  10.350  0.00  0.00    +0.000 A 
ENDROOT
BRANCH   1  11
ATOM     10  N   UNL     1      46.006   3.530   6.983  0.00  0.00    +0.000 NA
ATOM     11  C   UNL     1      45.783   4.026   8.011  0.00  0.00    +0.000 C 
ENDBRANCH   1  11
BRANCH   3  12
ATOM     12  C   UNL     1      45.686   7.394  11.651  0.00  0.00    +0.000 C 
BRANCH  12  13
ATOM     13  C   UNL     1      47.031   7.423  12.336  0.00  0.00    +0.000 A 
ATOM     14  C   UNL     1      48.145   8.009  11.711  0.00  0.00    +0.000 A 
ATOM     15  C   UNL     1      49.416   7.919  12.282  0.00  0.00    +0.000 A 
ATOM     16  C   UNL     1      49.585   7.269  13.502  0.00  0.00    +0.000 A 
ATOM     17  C   UNL     1      48.475   6.749  14.155  0.00  0.00    +0.000 A 
ATOM     18  F   UNL     1      48.634   6.140  15.339  0.00  0.00    +0.000 F 
ATOM     19  C   UNL     1      47.205   6.825  13.592  0.00  0.00    +0.000 A 
ENDBRANCH  12  13
ENDBRANCH   3  12
TORSDOF 3
ENDMDL
MODEL 8
REMARK VINA RESULT:    -5.822      3.210      6.171
REMARK INTER + INTRA:          -7.449
REMARK INTER:                  -6.837
REMARK INTRA:                  -0.612
REMARK UNBOUND:                -0.607
REMARK  Name = 
REMARK  3 active torsions:
REMARK  status: ('A' for Active; 'I' for Inactive)
REMARK    1  A    between atoms: C_2  and  C_3
REMARK    2  A    between atoms: N_5  and  C_6
REMARK    3  A    between atoms: C_6  and  C_7
REMARK                            x       y       z     vdW  Elec       q    Type
REMARK                         _______ _______ _______ _____ _____    ______ ____
ROOT
ATOM      1  C   UNL     1      45.516   4.631   9.276  0.00  0.00    +0.000 A 
ATOM      2  C   UNL     1      46.010   5.853   9.682  0.00  0.00    +0.000 A 
ATOM      3  N   UNL     1      45.554   6.094  10.957  0.00  0.00    +0.000 N 
ATOM      4  C   UNL     1      44.790   5.024  11.395  0.00  0.00    +0.000 A 
ATOM      5  C   UNL     1      44.137   4.793  12.614  0.00  0.00    +0.000 A 
ATOM      6  C   UNL     1      43.429   3.598  12.769  0.00  0.00    +0.000 A 
ATOM      7  C   UNL     1      43.367   2.664  11.741  0.00  0.00    +0.000 A 
ATOM      8  C   UNL     1      44.019   2.901  10.525  0.00  0.00    +0.000 A 
ATOM      9  C   UNL     1      44.749   4.095  10.347  0.00  0.00    +0.000 A 
ENDROOT
BRANCH   1  11
ATOM     10  N   UNL     1      45.937   3.539   6.963  0.00  0.00    +0.000 NA
ATOM     11  C   UNL     1      45.751   4.032   8.000  0.00  0.00    +0.000 C 
ENDBRANCH   1  11
BRANCH   3  12
ATOM     12  C   UNL     1      45.811   7.321  11.712  0.00  0.00    +0.000 C 
BRANCH  12  13
ATOM     13  C   UNL     1      47.171   7.291  12.369  0.00  0.00    +0.000 A 
ATOM     14  C   UNL     1      47.345   6.711  13.637  0.00  0.00    +0.000 A 
ATOM     15  C   UNL     1      48.568   6.801  14.304  0.00  0.00    +0.000 A 
ATOM     16  C   UNL     1      49.643   7.445  13.697  0.00  0.00    +0.000 A 
ATOM     17  C   UNL     1      49.495   7.959  12.416  0.00  0.00    +0.000 A 
ATOM     18  F   UNL     1      50.534   8.562  11.824  0.00  0.00    +0.000 F 
ATOM     19  C   UNL     1      48.277   7.883  11.745  0.00  0.00    +0.000 A 
ENDBRANCH  12  13
ENDBRANCH   3  12
TORSDOF 3
ENDMDL
MODEL 9
REMARK VINA RESULT:    -5.768      3.075      4.851
REMARK INTER + INTRA:          -7.386
REMARK INTER:                  -6.933
REMARK INTRA:                  -0.453
REMARK UNBOUND:                -0.607
REMARK  Name = 
REMARK  3 active torsions:
REMARK  status: ('A' for Active; 'I' for Inactive)
REMARK    1  A    between atoms: C_2  and  C_3
REMARK    2  A    between atoms: N_5  and  C_6
REMARK    3  A    between atoms: C_6  and  C_7
REMARK                            x       y       z     vdW  Elec       q    Type
REMARK                         _______ _______ _______ _____ _____    ______ ____
ROOT
ATOM      1  C   UNL     1      45.858   9.126  12.291  0.00  0.00    +0.000 A 
ATOM      2  C   UNL     1      45.286   7.953  12.737  0.00  0.00    +0.000 A 
ATOM      3  N   UNL     1      46.279   7.006  12.833  0.00  0.00    +0.000 N 
ATOM      4  C   UNL     1      47.498   7.564  12.480  0.00  0.00    +0.000 A 
ATOM      5  C   UNL     1      48.788   7.014  12.441  0.00  0.00    +0.000 A 
ATOM      6  C   UNL     1      49.844   7.835  12.036  0.00  0.00    +0.000 A 
ATOM      7  C   UNL     1      49.624   9.160  11.674  0.00  0.00    +0.000 A 
ATOM      8  C   UNL     1      48.334   9.702  11.714  0.00  0.00    +0.000 A 
ATOM      9  C   UNL     1      47.251   8.897  12.128  0.00  0.00    +0.000 A 
ENDROOT
BRANCH   1  11
ATOM     10  N   UNL     1      44.571  11.331  11.838  0.00  0.00    +0.000 NA
ATOM     11  C   UNL     1      45.150  10.344  12.045  0.00  0.00    +0.000 C 
ENDBRANCH   1  11
BRANCH   3  12
ATOM     12  C   UNL     1      46.060   5.610  13.214  0.00  0.00    +0.000 C 
BRANCH  12  13
ATOM     13  C   UNL     1      45.416   4.827  12.095  0.00  0.00    +0.000 A 
ATOM     14  C   UNL     1      45.628   5.182  10.752  0.00  0.00    +0.000 A 
ATOM     15  C   UNL     1      44.929   4.546   9.724  0.00  0.00    +0.000 A 
ATOM     16  C   UNL     1      44.032   3.524  10.024  0.00  0.00    +0.000 A 
ATOM     17  C   UNL     1      43.871   3.124  11.344  0.00  0.00    +0.000 A 
ATOM     18  F   UNL     1      43.023   2.128  11.631  0.00  0.00    +0.000 F 
ATOM     19  C   UNL     1      44.557   3.756  12.378  0.00  0.00    +0.000 A 
ENDBRANCH  12  13
ENDBRANCH   3  12
TORSDOF 3
ENDMDL
