MODEL 1
REMARK VINA RESULT:    -8.565      0.000      0.000
REMARK INTER + INTRA:         -13.300
REMARK INTER:                 -12.070
REMARK INTRA:                  -1.229
REMARK UNBOUND:                -1.229
REMARK  Name = 
REMARK  10 active torsions:
REMARK  status: ('A' for Active; 'I' for Inactive)
REMARK    1  A    between atoms: C_1  and  O_2
REMARK    2  A    between atoms: O_2  and  C_3
REMARK    3  A    between atoms: C_6  and  C_7
REMARK    4  A    between atoms: C_7  and  C_8
REMARK    5  A    between atoms: C_7  and  C_9
REMARK    6  A    between atoms: C_7  and  C_10
REMARK    7  A    between atoms: C_10  and  N_11
REMARK    8  A    between atoms: N_11  and  C_12
REMARK    9  A    between atoms: C_15  and  C_16
REMARK   10  A    between atoms: C_22  and  C_23
REMARK                            x       y       z     vdW  Elec       q    Type
REMARK                         _______ _______ _______ _____ _____    ______ ____
ROOT
ATOM      1  C   UNL     1      43.923   4.491  12.368  0.00  0.00    +0.000 C 
ATOM      2  C   UNL     1      43.771   2.952  12.508  0.00  0.00    +0.000 C 
ATOM      3  C   UNL     1      42.819   5.146  13.225  0.00  0.00    +0.000 C 
ENDROOT
BRANCH   1   7
ATOM      4  C   UNL     1      47.789   5.926  13.895  0.00  0.00    +0.000 A 
ATOM      5  C   UNL     1      47.230   6.473  12.734  0.00  0.00    +0.000 A 
ATOM      6  C   UNL     1      46.007   6.016  12.238  0.00  0.00    +0.000 A 
ATOM      7  C   UNL     1      45.306   4.981  12.865  0.00  0.00    +0.000 A 
ATOM      8  C   UNL     1      45.908   4.407  14.007  0.00  0.00    +0.000 A 
ATOM      9  C   UNL     1      47.120   4.881  14.574  0.00  0.00    +0.000 A 
BRANCH   9  10
ATOM     10  C   UNL     1      47.591   4.319  15.877  0.00  0.00    +0.000 A 
ATOM     11  C   UNL     1      48.173   3.043  15.989  0.00  0.00    +0.000 A 
ATOM     12  C   UNL     1      48.708   2.580  17.197  0.00  0.00    +0.000 A 
ATOM     13  C   UNL     1      48.635   3.366  18.341  0.00  0.00    +0.000 A 
ATOM     14  C   UNL     1      48.021   4.612  18.277  0.00  0.00    +0.000 A 
ATOM     15  C   UNL     1      47.515   5.082  17.060  0.00  0.00    +0.000 A 
ENDBRANCH   9  10
BRANCH   4  17
ATOM     16  C   UNL     1      49.617   7.477  13.800  0.00  0.00    +0.000 C 
ATOM     17  O   UNL     1      48.959   6.392  14.441  0.00  0.00    +0.000 OA
ENDBRANCH   4  17
ENDBRANCH   1   7
BRANCH   1  18
ATOM     18  C   UNL     1      43.751   4.876  10.855  0.00  0.00    +0.000 C 
BRANCH  18  19
ATOM     19  N   UNL     1      43.738   3.706   9.973  0.00  0.00    +0.000 N 
ATOM     20  H   UNL     1      43.357   2.860  10.384  0.00  0.00    +0.000 HD
BRANCH  19  21
ATOM     21  C   UNL     1      44.797   3.418   9.116  0.00  0.00    +0.000 A 
ATOM     22  C   UNL     1      45.446   4.366   8.319  0.00  0.00    +0.000 A 
ATOM     23  C   UNL     1      46.447   3.984   7.414  0.00  0.00    +0.000 A 
ATOM     24  C   UNL     1      46.801   2.638   7.274  0.00  0.00    +0.000 A 
ATOM     25  C   UNL     1      46.138   1.676   8.035  0.00  0.00    +0.000 A 
ATOM     26  C   UNL     1      45.145   2.070   8.939  0.00  0.00    +0.000 A 
BRANCH  24  27
ATOM     27  C   UNL     1      47.847   2.276   6.281  0.00  0.00    +0.000 C 
ATOM     28  N   UNL     1      47.845   2.949   5.091  0.00  0.00    +0.000 N 
ATOM     29  O   UNL     1      48.664   1.388   6.499  0.00  0.00    +0.000 OA
ATOM     30  H   UNL     1      47.065   3.508   4.781  0.00  0.00    +0.000 HD
ATOM     31  H   UNL     1      48.503   2.626   4.393  0.00  0.00    +0.000 HD
ENDBRANCH  24  27
ENDBRANCH  19  21
ENDBRANCH  18  19
ENDBRANCH   1  18
TORSDOF 7
ENDMDL
MODEL 2
REMARK VINA RESULT:    -8.375      1.502      3.945
REMARK INTER + INTRA:         -13.031
REMARK INTER:                 -12.071
REMARK INTRA:                  -0.960
REMARK UNBOUND:                -1.229
REMARK  Name = 
REMARK  10 active torsions:
REMARK  status: ('A' for Active; 'I' for Inactive)
REMARK    1  A    between atoms: C_1  and  O_2
REMARK    2  A    between atoms: O_2  and  C_3
REMARK    3  A    between atoms: C_6  and  C_7
REMARK    4  A    between atoms: C_7  and  C_8
REMARK    5  A    between atoms: C_7  and  C_9
REMARK    6  A    between atoms: C_7  and  C_10
REMARK    7  A    between atoms: C_10  and  N_11
REMARK    8  A    between atoms: N_11  and  C_12
REMARK    9  A    between atoms: C_15  and  C_16
REMARK   10  A    between atoms: C_22  and  C_23
REMARK                            x       y       z     vdW  Elec       q    Type
REMARK                         _______ _______ _______ _____ _____    ______ ____
ROOT
ATOM      1  C   UNL     1      44.246   4.682  12.407  0.00  0.00    +0.000 C 
ATOM      2  C   UNL     1      44.215   3.129  12.379  0.00  0.00    +0.000 C 
ATOM      3  C   UNL     1      43.031   5.156  13.234  0.00  0.00    +0.000 C 
ENDROOT
BRANCH   1   7
ATOM      4  C   UNL     1      47.995   6.186  14.145  0.00  0.00    +0.000 A 
ATOM      5  C   UNL     1      47.366   5.052  14.671  0.00  0.00    +0.000 A 
ATOM      6  C   UNL     1      46.170   4.574  14.130  0.00  0.00    +0.000 A 
ATOM      7  C   UNL     1      45.543   5.220  13.061  0.00  0.00    +0.000 A 
ATOM      8  C   UNL     1      46.164   6.391  12.573  0.00  0.00    +0.000 A 
ATOM      9  C   UNL     1      47.408   6.877  13.058  0.00  0.00    +0.000 A 
BRANCH   9  10
ATOM     10  C   UNL     1      48.067   8.027  12.367  0.00  0.00    +0.000 A 
ATOM     11  C   UNL     1      47.483   9.304  12.291  0.00  0.00    +0.000 A 
ATOM     12  C   UNL     1      48.165  10.395  11.738  0.00  0.00    +0.000 A 
ATOM     13  C   UNL     1      49.437  10.226  11.203  0.00  0.00    +0.000 A 
ATOM     14  C   UNL     1      50.023   8.966  11.216  0.00  0.00    +0.000 A 
ATOM     15  C   UNL     1      49.350   7.886  11.798  0.00  0.00    +0.000 A 
ENDBRANCH   9  10
BRANCH   4  17
ATOM     16  C   UNL     1      49.435   6.611  16.016  0.00  0.00    +0.000 C 
ATOM     17  O   UNL     1      49.199   6.648  14.615  0.00  0.00    +0.000 OA
ENDBRANCH   4  17
ENDBRANCH   1   7
BRANCH   1  18
ATOM     18  C   UNL     1      44.151   5.211  10.932  0.00  0.00    +0.000 C 
BRANCH  18  19
ATOM     19  N   UNL     1      43.769   4.165   9.980  0.00  0.00    +0.000 N 
ATOM     20  H   UNL     1      43.154   3.448  10.351  0.00  0.00    +0.000 HD
BRANCH  19  21
ATOM     21  C   UNL     1      44.677   3.629   9.070  0.00  0.00    +0.000 A 
ATOM     22  C   UNL     1      44.944   2.263   8.934  0.00  0.00    +0.000 A 
ATOM     23  C   UNL     1      45.937   1.806   8.056  0.00  0.00    +0.000 A 
ATOM     24  C   UNL     1      46.701   2.713   7.314  0.00  0.00    +0.000 A 
ATOM     25  C   UNL     1      46.472   4.080   7.466  0.00  0.00    +0.000 A 
ATOM     26  C   UNL     1      45.474   4.525   8.340  0.00  0.00    +0.000 A 
BRANCH  24  27
ATOM     27  C   UNL     1      47.763   2.185   6.418  0.00  0.00    +0.000 C 
ATOM     28  N   UNL     1      48.035   2.891   5.279  0.00  0.00    +0.000 N 
ATOM     29  O   UNL     1      48.356   1.140   6.666  0.00  0.00    +0.000 OA
ATOM     30  H   UNL     1      47.424   3.610   4.923  0.00  0.00    +0.000 HD
ATOM     31  H   UNL     1      48.693   2.469   4.637  0.00  0.00    +0.000 HD
ENDBRANCH  24  27
ENDBRANCH  19  21
ENDBRANCH  18  19
ENDBRANCH   1  18
TORSDOF 7
ENDMDL
MODEL 3
REMARK VINA RESULT:    -7.510      3.497      8.043
REMARK INTER + INTRA:         -11.813
REMARK INTER:                 -10.298
REMARK INTRA:                  -1.515
REMARK UNBOUND:                -1.229
REMARK  Name = 
REMARK  10 active torsions:
REMARK  status: ('A' for Active; 'I' for Inactive)
REMARK    1  A    between atoms: C_1  and  O_2
REMARK    2  A    between atoms: O_2  and  C_3
REMARK    3  A    between atoms: C_6  and  C_7
REMARK    4  A    between atoms: C_7  and  C_8
REMARK    5  A    between atoms: C_7  and  C_9
REMARK    6  A    between atoms: C_7  and  C_10
REMARK    7  A    between atoms: C_10  and  N_11
REMARK    8  A    between atoms: N_11  and  C_12
REMARK    9  A    between atoms: C_15  and  C_16
REMARK   10  A    between atoms: C_22  and  C_23
REMARK                            x       y       z     vdW  Elec       q    Type
REMARK                         _______ _______ _______ _____ _____    ______ ____
ROOT
ATOM      1  C   UNL     1      48.346   8.394  12.266  0.00  0.00    +0.000 C 
ATOM      2  C   UNL     1      49.454   7.440  11.743  0.00  0.00    +0.000 C 
ATOM      3  C   UNL     1      48.502   9.739  11.525  0.00  0.00    +0.000 C 
ENDROOT
BRANCH   1   7
ATOM      4  C   UNL     1      44.343   6.809  11.372  0.00  0.00    +0.000 A 
ATOM      5  C   UNL     1      44.497   8.016  12.063  0.00  0.00    +0.000 A 
ATOM      6  C   UNL     1      45.765   8.521  12.359  0.00  0.00    +0.000 A 
ATOM      7  C   UNL     1      46.927   7.832  11.999  0.00  0.00    +0.000 A 
ATOM      8  C   UNL     1      46.754   6.592  11.344  0.00  0.00    +0.000 A 
ATOM      9  C   UNL     1      45.485   6.072  10.976  0.00  0.00    +0.000 A 
BRANCH   9  10
ATOM     10  C   UNL     1      45.412   4.835  10.140  0.00  0.00    +0.000 A 
ATOM     11  C   UNL     1      44.993   3.595  10.653  0.00  0.00    +0.000 A 
ATOM     12  C   UNL     1      44.825   2.475   9.829  0.00  0.00    +0.000 A 
ATOM     13  C   UNL     1      45.116   2.555   8.472  0.00  0.00    +0.000 A 
ATOM     14  C   UNL     1      45.581   3.753   7.942  0.00  0.00    +0.000 A 
ATOM     15  C   UNL     1      45.717   4.877   8.764  0.00  0.00    +0.000 A 
ENDBRANCH   9  10
BRANCH   4  17
ATOM     16  C   UNL     1      42.374   5.581  11.982  0.00  0.00    +0.000 C 
ATOM     17  O   UNL     1      43.113   6.314  11.014  0.00  0.00    +0.000 OA
ENDBRANCH   4  17
ENDBRANCH   1   7
BRANCH   1  18
ATOM     18  C   UNL     1      48.542   8.590  13.812  0.00  0.00    +0.000 C 
BRANCH  18  19
ATOM     19  N   UNL     1      49.414   7.571  14.403  0.00  0.00    +0.000 N 
ATOM     20  H   UNL     1      50.105   7.178  13.774  0.00  0.00    +0.000 HD
BRANCH  19  21
ATOM     21  C   UNL     1      48.929   6.609  15.286  0.00  0.00    +0.000 A 
ATOM     22  C   UNL     1      49.466   6.360  16.553  0.00  0.00    +0.000 A 
ATOM     23  C   UNL     1      48.980   5.315  17.351  0.00  0.00    +0.000 A 
ATOM     24  C   UNL     1      47.959   4.481  16.882  0.00  0.00    +0.000 A 
ATOM     25  C   UNL     1      47.438   4.692  15.606  0.00  0.00    +0.000 A 
ATOM     26  C   UNL     1      47.927   5.743  14.822  0.00  0.00    +0.000 A 
BRANCH  24  27
ATOM     27  C   UNL     1      47.495   3.366  17.750  0.00  0.00    +0.000 C 
ATOM     28  N   UNL     1      48.280   3.031  18.817  0.00  0.00    +0.000 N 
ATOM     29  O   UNL     1      46.466   2.745  17.507  0.00  0.00    +0.000 OA
ATOM     30  H   UNL     1      49.232   3.349  18.917  0.00  0.00    +0.000 HD
ATOM     31  H   UNL     1      47.998   2.211  19.341  0.00  0.00    +0.000 HD
ENDBRANCH  24  27
ENDBRANCH  19  21
ENDBRANCH  18  19
ENDBRANCH   1  18
TORSDOF 7
ENDMDL
MODEL 4
REMARK VINA RESULT:    -6.989      3.085      5.006
REMARK INTER + INTRA:         -11.078
REMARK INTER:                  -9.452
REMARK INTRA:                  -1.626
REMARK UNBOUND:                -1.229
REMARK  Name = 
REMARK  10 active torsions:
REMARK  status: ('A' for Active; 'I' for Inactive)
REMARK    1  A    between atoms: C_1  and  O_2
REMARK    2  A    between atoms: O_2  and  C_3
REMARK    3  A    between atoms: C_6  and  C_7
REMARK    4  A    between atoms: C_7  and  C_8
REMARK    5  A    between atoms: C_7  and  C_9
REMARK    6  A    between atoms: C_7  and  C_10
REMARK    7  A    between atoms: C_10  and  N_11
REMARK    8  A    between atoms: N_11  and  C_12
REMARK    9  A    between atoms: C_15  and  C_16
REMARK   10  A    between atoms: C_22  and  C_23
REMARK                            x       y       z     vdW  Elec       q    Type
REMARK                         _______ _______ _______ _____ _____    ______ ____
ROOT
ATOM      1  C   UNL     1      48.415   8.492  12.812  0.00  0.00    +0.000 C 
ATOM      2  C   UNL     1      49.170   9.765  12.344  0.00  0.00    +0.000 C 
ATOM      3  C   UNL     1      49.050   7.283  12.092  0.00  0.00    +0.000 C 
ENDROOT
BRANCH   1   7
ATOM      4  C   UNL     1      48.627   7.824  17.154  0.00  0.00    +0.000 A 
ATOM      5  C   UNL     1      48.414   9.107  16.636  0.00  0.00    +0.000 A 
ATOM      6  C   UNL     1      48.355   9.328  15.258  0.00  0.00    +0.000 A 
ATOM      7  C   UNL     1      48.529   8.285  14.343  0.00  0.00    +0.000 A 
ATOM      8  C   UNL     1      48.791   7.005  14.881  0.00  0.00    +0.000 A 
ATOM      9  C   UNL     1      48.803   6.730  16.274  0.00  0.00    +0.000 A 
BRANCH   9  10
ATOM     10  C   UNL     1      48.924   5.315  16.742  0.00  0.00    +0.000 A 
ATOM     11  C   UNL     1      47.862   4.396  16.665  0.00  0.00    +0.000 A 
ATOM     12  C   UNL     1      48.028   3.047  17.004  0.00  0.00    +0.000 A 
ATOM     13  C   UNL     1      49.254   2.591  17.474  0.00  0.00    +0.000 A 
ATOM     14  C   UNL     1      50.311   3.484  17.610  0.00  0.00    +0.000 A 
ATOM     15  C   UNL     1      50.148   4.824  17.241  0.00  0.00    +0.000 A 
ENDBRANCH   9  10
BRANCH   4  17
ATOM     16  C   UNL     1      47.496   7.947  19.266  0.00  0.00    +0.000 C 
ATOM     17  O   UNL     1      48.632   7.563  18.501  0.00  0.00    +0.000 OA
ENDBRANCH   4  17
ENDBRANCH   1   7
BRANCH   1  18
ATOM     18  C   UNL     1      46.901   8.636  12.421  0.00  0.00    +0.000 C 
BRANCH  18  19
ATOM     19  N   UNL     1      46.020   7.825  13.265  0.00  0.00    +0.000 N 
ATOM     20  H   UNL     1      46.282   7.782  14.244  0.00  0.00    +0.000 HD
BRANCH  19  21
ATOM     21  C   UNL     1      45.493   6.612  12.830  0.00  0.00    +0.000 A 
ATOM     22  C   UNL     1      45.823   5.368  13.375  0.00  0.00    +0.000 A 
ATOM     23  C   UNL     1      45.318   4.181  12.825  0.00  0.00    +0.000 A 
ATOM     24  C   UNL     1      44.489   4.218  11.699  0.00  0.00    +0.000 A 
ATOM     25  C   UNL     1      44.179   5.448  11.121  0.00  0.00    +0.000 A 
ATOM     26  C   UNL     1      44.684   6.627  11.682  0.00  0.00    +0.000 A 
BRANCH  24  27
ATOM     27  C   UNL     1      44.000   2.934  11.131  0.00  0.00    +0.000 C 
ATOM     28  N   UNL     1      44.718   2.387  10.104  0.00  0.00    +0.000 N 
ATOM     29  O   UNL     1      42.977   2.395  11.539  0.00  0.00    +0.000 OA
ATOM     30  H   UNL     1      45.415   2.902   9.589  0.00  0.00    +0.000 HD
ATOM     31  H   UNL     1      44.320   1.564   9.668  0.00  0.00    +0.000 HD
ENDBRANCH  24  27
ENDBRANCH  19  21
ENDBRANCH  18  19
ENDBRANCH   1  18
TORSDOF 7
ENDMDL
MODEL 5
REMARK VINA RESULT:    -6.551      3.776      7.969
REMARK INTER + INTRA:         -10.461
REMARK INTER:                  -9.014
REMARK INTRA:                  -1.446
REMARK UNBOUND:                -1.229
REMARK  Name = 
REMARK  10 active torsions:
REMARK  status: ('A' for Active; 'I' for Inactive)
REMARK    1  A    between atoms: C_1  and  O_2
REMARK    2  A    between atoms: O_2  and  C_3
REMARK    3  A    between atoms: C_6  and  C_7
REMARK    4  A    between atoms: C_7  and  C_8
REMARK    5  A    between atoms: C_7  and  C_9
REMARK    6  A    between atoms: C_7  and  C_10
REMARK    7  A    between atoms: C_10  and  N_11
REMARK    8  A    between atoms: N_11  and  C_12
REMARK    9  A    between atoms: C_15  and  C_16
REMARK   10  A    between atoms: C_22  and  C_23
REMARK                            x       y       z     vdW  Elec       q    Type
REMARK                         _______ _______ _______ _____ _____    ______ ____
ROOT
ATOM      1  C   UNL     1      50.087   8.410  12.241  0.00  0.00    +0.000 C 
ATOM      2  C   UNL     1      50.754   7.655  11.059  0.00  0.00    +0.000 C 
ATOM      3  C   UNL     1      50.584   9.871  12.198  0.00  0.00    +0.000 C 
ENDROOT
BRANCH   1   7
ATOM      4  C   UNL     1      45.712   8.341  11.805  0.00  0.00    +0.000 A 
ATOM      5  C   UNL     1      46.383   9.532  12.103  0.00  0.00    +0.000 A 
ATOM      6  C   UNL     1      47.772   9.560  12.252  0.00  0.00    +0.000 A 
ATOM      7  C   UNL     1      48.542   8.399  12.134  0.00  0.00    +0.000 A 
ATOM      8  C   UNL     1      47.845   7.197  11.882  0.00  0.00    +0.000 A 
ATOM      9  C   UNL     1      46.442   7.136  11.668  0.00  0.00    +0.000 A 
BRANCH   9  10
ATOM     10  C   UNL     1      45.819   5.845  11.243  0.00  0.00    +0.000 A 
ATOM     11  C   UNL     1      45.602   5.513   9.894  0.00  0.00    +0.000 A 
ATOM     12  C   UNL     1      45.121   4.255   9.512  0.00  0.00    +0.000 A 
ATOM     13  C   UNL     1      44.800   3.307  10.477  0.00  0.00    +0.000 A 
ATOM     14  C   UNL     1      44.954   3.621  11.822  0.00  0.00    +0.000 A 
ATOM     15  C   UNL     1      45.464   4.869  12.197  0.00  0.00    +0.000 A 
ENDBRANCH   9  10
BRANCH   4  17
ATOM     16  C   UNL     1      43.745   9.354  10.877  0.00  0.00    +0.000 C 
ATOM     17  O   UNL     1      44.357   8.289  11.595  0.00  0.00    +0.000 OA
ENDBRANCH   4  17
ENDBRANCH   1   7
BRANCH   1  18
ATOM     18  C   UNL     1      50.518   7.720  13.584  0.00  0.00    +0.000 C 
BRANCH  18  19
ATOM     19  N   UNL     1      49.486   7.807  14.620  0.00  0.00    +0.000 N 
ATOM     20  H   UNL     1      49.547   8.622  15.221  0.00  0.00    +0.000 HD
BRANCH  19  21
ATOM     21  C   UNL     1      49.056   6.687  15.328  0.00  0.00    +0.000 A 
ATOM     22  C   UNL     1      47.961   5.897  14.963  0.00  0.00    +0.000 A 
ATOM     23  C   UNL     1      47.535   4.836  15.774  0.00  0.00    +0.000 A 
ATOM     24  C   UNL     1      48.184   4.562  16.983  0.00  0.00    +0.000 A 
ATOM     25  C   UNL     1      49.253   5.364  17.379  0.00  0.00    +0.000 A 
ATOM     26  C   UNL     1      49.675   6.416  16.558  0.00  0.00    +0.000 A 
BRANCH  24  27
ATOM     27  C   UNL     1      47.678   3.447  17.827  0.00  0.00    +0.000 C 
ATOM     28  N   UNL     1      48.399   3.126  18.943  0.00  0.00    +0.000 N 
ATOM     29  O   UNL     1      46.673   2.813  17.524  0.00  0.00    +0.000 OA
ATOM     30  H   UNL     1      49.339   3.455  19.100  0.00  0.00    +0.000 HD
ATOM     31  H   UNL     1      48.093   2.306  19.453  0.00  0.00    +0.000 HD
ENDBRANCH  24  27
ENDBRANCH  19  21
ENDBRANCH  18  19
ENDBRANCH   1  18
TORSDOF 7
ENDMDL
MODEL 6
REMARK VINA RESULT:    -6.292      3.288      8.559
REMARK INTER + INTRA:         -10.096
REMARK INTER:                  -9.558
REMARK INTRA:                  -0.539
REMARK UNBOUND:                -1.229
REMARK  Name = 
REMARK  10 active torsions:
REMARK  status: ('A' for Active; 'I' for Inactive)
REMARK    1  A    between atoms: C_1  and  O_2
REMARK    2  A    between atoms: O_2  and  C_3
REMARK    3  A    between atoms: C_6  and  C_7
REMARK    4  A    between atoms: C_7  and  C_8
REMARK    5  A    between atoms: C_7  and  C_9
REMARK    6  A    between atoms: C_7  and  C_10
REMARK    7  A    between atoms: C_10  and  N_11
REMARK    8  A    between atoms: N_11  and  C_12
REMARK    9  A    between atoms: C_15  and  C_16
REMARK   10  A    between atoms: C_22  and  C_23
REMARK                            x       y       z     vdW  Elec       q    Type
REMARK                         _______ _______ _______ _____ _____    ______ ____
ROOT
ATOM      1  C   UNL     1      46.874   7.860  12.614  0.00  0.00    +0.000 C 
ATOM      2  C   UNL     1      48.036   7.969  11.590  0.00  0.00    +0.000 C 
ATOM      3  C   UNL     1      46.114   9.204  12.599  0.00  0.00    +0.000 C 
ENDROOT
BRANCH   1   7
ATOM      4  C   UNL     1      44.064   4.680  11.458  0.00  0.00    +0.000 A 
ATOM      5  C   UNL     1      43.777   5.536  12.528  0.00  0.00    +0.000 A 
ATOM      6  C   UNL     1      44.669   6.542  12.907  0.00  0.00    +0.000 A 
ATOM      7  C   UNL     1      45.890   6.719  12.250  0.00  0.00    +0.000 A 
ATOM      8  C   UNL     1      46.187   5.817  11.204  0.00  0.00    +0.000 A 
ATOM      9  C   UNL     1      45.283   4.819  10.753  0.00  0.00    +0.000 A 
BRANCH   9  10
ATOM     10  C   UNL     1      45.618   4.022   9.533  0.00  0.00    +0.000 A 
ATOM     11  C   UNL     1      45.540   2.619   9.496  0.00  0.00    +0.000 A 
ATOM     12  C   UNL     1      45.750   1.899   8.313  0.00  0.00    +0.000 A 
ATOM     13  C   UNL     1      46.088   2.565   7.141  0.00  0.00    +0.000 A 
ATOM     14  C   UNL     1      46.222   3.948   7.153  0.00  0.00    +0.000 A 
ATOM     15  C   UNL     1      45.982   4.665   8.331  0.00  0.00    +0.000 A 
ENDBRANCH   9  10
BRANCH   4  17
ATOM     16  C   UNL     1      43.126   2.489  11.731  0.00  0.00    +0.000 C 
ATOM     17  O   UNL     1      43.184   3.721  11.023  0.00  0.00    +0.000 OA
ENDBRANCH   4  17
ENDBRANCH   1   7
BRANCH   1  18
ATOM     18  C   UNL     1      47.482   7.585  14.035  0.00  0.00    +0.000 C 
BRANCH  18  19
ATOM     19  N   UNL     1      47.716   6.160  14.283  0.00  0.00    +0.000 N 
ATOM     20  H   UNL     1      47.045   5.532  13.854  0.00  0.00    +0.000 HD
BRANCH  19  21
ATOM     21  C   UNL     1      48.129   5.686  15.526  0.00  0.00    +0.000 A 
ATOM     22  C   UNL     1      47.606   4.549  16.148  0.00  0.00    +0.000 A 
ATOM     23  C   UNL     1      48.010   4.183  17.441  0.00  0.00    +0.000 A 
ATOM     24  C   UNL     1      48.929   4.968  18.145  0.00  0.00    +0.000 A 
ATOM     25  C   UNL     1      49.432   6.125  17.553  0.00  0.00    +0.000 A 
ATOM     26  C   UNL     1      49.027   6.477  16.260  0.00  0.00    +0.000 A 
BRANCH  24  27
ATOM     27  C   UNL     1      49.306   4.559  19.524  0.00  0.00    +0.000 C 
ATOM     28  N   UNL     1      48.406   3.804  20.224  0.00  0.00    +0.000 N 
ATOM     29  O   UNL     1      50.365   4.908  20.034  0.00  0.00    +0.000 OA
ATOM     30  H   UNL     1      47.445   3.696  19.940  0.00  0.00    +0.000 HD
ATOM     31  H   UNL     1      48.638   3.615  21.191  0.00  0.00    +0.000 HD
ENDBRANCH  24  27
ENDBRANCH  19  21
ENDBRANCH  18  19
ENDBRANCH   1  18
TORSDOF 7
ENDMDL
MODEL 7
REMARK VINA RESULT:    -5.850      4.375      7.432
REMARK INTER + INTRA:          -9.473
REMARK INTER:                  -8.477
REMARK INTRA:                  -0.996
REMARK UNBOUND:                -1.229
REMARK  Name = 
REMARK  10 active torsions:
REMARK  status: ('A' for Active; 'I' for Inactive)
REMARK    1  A    between atoms: C_1  and  O_2
REMARK    2  A    between atoms: O_2  and  C_3
REMARK    3  A    between atoms: C_6  and  C_7
REMARK    4  A    between atoms: C_7  and  C_8
REMARK    5  A    between atoms: C_7  and  C_9
REMARK    6  A    between atoms: C_7  and  C_10
REMARK    7  A    between atoms: C_10  and  N_11
REMARK    8  A    between atoms: N_11  and  C_12
REMARK    9  A    between atoms: C_15  and  C_16
REMARK   10  A    between atoms: C_22  and  C_23
REMARK                            x       y       z     vdW  Elec       q    Type
REMARK                         _______ _______ _______ _____ _____    ______ ____
ROOT
ATOM      1  C   UNL     1      48.316   7.994  12.816  0.00  0.00    +0.000 C 
ATOM      2  C   UNL     1      48.279   9.080  13.924  0.00  0.00    +0.000 C 
ATOM      3  C   UNL     1      49.072   6.774  13.386  0.00  0.00    +0.000 C 
ENDROOT
BRANCH   1   7
ATOM      4  C   UNL     1      44.310   6.765  11.482  0.00  0.00    +0.000 A 
ATOM      5  C   UNL     1      44.480   7.888  12.299  0.00  0.00    +0.000 A 
ATOM      6  C   UNL     1      45.748   8.279  12.735  0.00  0.00    +0.000 A 
ATOM      7  C   UNL     1      46.893   7.553  12.392  0.00  0.00    +0.000 A 
ATOM      8  C   UNL     1      46.699   6.395  11.607  0.00  0.00    +0.000 A 
ATOM      9  C   UNL     1      45.435   5.997  11.098  0.00  0.00    +0.000 A 
BRANCH   9  10
ATOM     10  C   UNL     1      45.355   4.852  10.140  0.00  0.00    +0.000 A 
ATOM     11  C   UNL     1      45.815   4.937   8.814  0.00  0.00    +0.000 A 
ATOM     12  C   UNL     1      45.835   3.823   7.967  0.00  0.00    +0.000 A 
ATOM     13  C   UNL     1      45.351   2.598   8.412  0.00  0.00    +0.000 A 
ATOM     14  C   UNL     1      44.843   2.490   9.701  0.00  0.00    +0.000 A 
ATOM     15  C   UNL     1      44.854   3.600  10.554  0.00  0.00    +0.000 A 
ENDBRANCH   9  10
BRANCH   4  17
ATOM     16  C   UNL     1      42.242   5.595  11.814  0.00  0.00    +0.000 C 
ATOM     17  O   UNL     1      43.086   6.389  10.989  0.00  0.00    +0.000 OA
ENDBRANCH   4  17
ENDBRANCH   1   7
BRANCH   1  18
ATOM     18  C   UNL     1      49.071   8.577  11.568  0.00  0.00    +0.000 C 
BRANCH  18  19
ATOM     19  N   UNL     1      50.489   8.829  11.834  0.00  0.00    +0.000 N 
ATOM     20  H   UNL     1      50.682   9.644  12.406  0.00  0.00    +0.000 HD
BRANCH  19  21
ATOM     21  C   UNL     1      51.464   8.656  10.855  0.00  0.00    +0.000 A 
ATOM     22  C   UNL     1      52.078   9.703  10.160  0.00  0.00    +0.000 A 
ATOM     23  C   UNL     1      52.989   9.447   9.125  0.00  0.00    +0.000 A 
ATOM     24  C   UNL     1      53.283   8.132   8.749  0.00  0.00    +0.000 A 
ATOM     25  C   UNL     1      52.652   7.077   9.406  0.00  0.00    +0.000 A 
ATOM     26  C   UNL     1      51.750   7.345  10.443  0.00  0.00    +0.000 A 
BRANCH  24  27
ATOM     27  C   UNL     1      54.231   7.908   7.626  0.00  0.00    +0.000 C 
ATOM     28  N   UNL     1      54.661   9.007   6.936  0.00  0.00    +0.000 N 
ATOM     29  O   UNL     1      54.595   6.782   7.303  0.00  0.00    +0.000 OA
ATOM     30  H   UNL     1      54.215   9.908   7.011  0.00  0.00    +0.000 HD
ATOM     31  H   UNL     1      55.231   8.828   6.118  0.00  0.00    +0.000 HD
ENDBRANCH  24  27
ENDBRANCH  19  21
ENDBRANCH  18  19
ENDBRANCH   1  18
TORSDOF 7
ENDMDL
MODEL 8
REMARK VINA RESULT:    -5.839      4.516      7.376
REMARK INTER + INTRA:          -9.458
REMARK INTER:                  -8.295
REMARK INTRA:                  -1.163
REMARK UNBOUND:                -1.229
REMARK  Name = 
REMARK  10 active torsions:
REMARK  status: ('A' for Active; 'I' for Inactive)
REMARK    1  A    between atoms: C_1  and  O_2
REMARK    2  A    between atoms: O_2  and  C_3
REMARK    3  A    between atoms: C_6  and  C_7
REMARK    4  A    between atoms: C_7  and  C_8
REMARK    5  A    between atoms: C_7  and  C_9
REMARK    6  A    between atoms: C_7  and  C_10
REMARK    7  A    between atoms: C_10  and  N_11
REMARK    8  A    between atoms: N_11  and  C_12
REMARK    9  A    between atoms: C_15  and  C_16
REMARK   10  A    between atoms: C_22  and  C_23
REMARK                            x       y       z     vdW  Elec       q    Type
REMARK                         _______ _______ _______ _____ _____    ______ ____
ROOT
ATOM      1  C   UNL     1      49.038   8.510  12.784  0.00  0.00    +0.000 C 
ATOM      2  C   UNL     1      49.414   8.803  14.262  0.00  0.00    +0.000 C 
ATOM      3  C   UNL     1      47.764   9.318  12.460  0.00  0.00    +0.000 C 
ENDROOT
BRANCH   1   7
ATOM      4  C   UNL     1      52.327   9.625  10.086  0.00  0.00    +0.000 A 
ATOM      5  C   UNL     1      51.677  10.592  10.862  0.00  0.00    +0.000 A 
ATOM      6  C   UNL     1      50.625  10.247  11.714  0.00  0.00    +0.000 A 
ATOM      7  C   UNL     1      50.166   8.930  11.808  0.00  0.00    +0.000 A 
ATOM      8  C   UNL     1      50.800   7.974  10.984  0.00  0.00    +0.000 A 
ATOM      9  C   UNL     1      51.907   8.275  10.147  0.00  0.00    +0.000 A 
BRANCH   9  10
ATOM     10  C   UNL     1      52.616   7.165   9.440  0.00  0.00    +0.000 A 
ATOM     11  C   UNL     1      52.352   6.827   8.100  0.00  0.00    +0.000 A 
ATOM     12  C   UNL     1      53.103   5.860   7.422  0.00  0.00    +0.000 A 
ATOM     13  C   UNL     1      54.114   5.170   8.083  0.00  0.00    +0.000 A 
ATOM     14  C   UNL     1      54.368   5.444   9.422  0.00  0.00    +0.000 A 
ATOM     15  C   UNL     1      53.634   6.433  10.086  0.00  0.00    +0.000 A 
ENDBRANCH   9  10
BRANCH   4  17
ATOM     16  C   UNL     1      53.163  10.631   8.075  0.00  0.00    +0.000 C 
ATOM     17  O   UNL     1      53.400   9.921   9.284  0.00  0.00    +0.000 OA
ENDBRANCH   4  17
ENDBRANCH   1   7
BRANCH   1  18
ATOM     18  C   UNL     1      48.769   6.970  12.632  0.00  0.00    +0.000 C 
BRANCH  18  19
ATOM     19  N   UNL     1      47.608   6.521  13.405  0.00  0.00    +0.000 N 
ATOM     20  H   UNL     1      47.790   6.335  14.386  0.00  0.00    +0.000 HD
BRANCH  19  21
ATOM     21  C   UNL     1      46.678   5.625  12.885  0.00  0.00    +0.000 A 
ATOM     22  C   UNL     1      46.470   4.332  13.375  0.00  0.00    +0.000 A 
ATOM     23  C   UNL     1      45.576   3.455  12.743  0.00  0.00    +0.000 A 
ATOM     24  C   UNL     1      44.891   3.851  11.589  0.00  0.00    +0.000 A 
ATOM     25  C   UNL     1      45.115   5.124  11.067  0.00  0.00    +0.000 A 
ATOM     26  C   UNL     1      46.004   5.993  11.710  0.00  0.00    +0.000 A 
BRANCH  24  27
ATOM     27  C   UNL     1      43.977   2.879  10.934  0.00  0.00    +0.000 C 
ATOM     28  N   UNL     1      44.416   2.275   9.789  0.00  0.00    +0.000 N 
ATOM     29  O   UNL     1      42.858   2.645  11.379  0.00  0.00    +0.000 OA
ATOM     30  H   UNL     1      45.213   2.605   9.268  0.00  0.00    +0.000 HD
ATOM     31  H   UNL     1      43.746   1.688   9.307  0.00  0.00    +0.000 HD
ENDBRANCH  24  27
ENDBRANCH  19  21
ENDBRANCH  18  19
ENDBRANCH   1  18
TORSDOF 7
ENDMDL
MODEL 9
REMARK VINA RESULT:    -5.668      4.228      7.566
REMARK INTER + INTRA:          -9.217
REMARK INTER:                  -8.032
REMARK INTRA:                  -1.185
REMARK UNBOUND:                -1.229
REMARK  Name = 
REMARK  10 active torsions:
REMARK  status: ('A' for Active; 'I' for Inactive)
REMARK    1  A    between atoms: C_1  and  O_2
REMARK    2  A    between atoms: O_2  and  C_3
REMARK    3  A    between atoms: C_6  and  C_7
REMARK    4  A    between atoms: C_7  and  C_8
REMARK    5  A    between atoms: C_7  and  C_9
REMARK    6  A    between atoms: C_7  and  C_10
REMARK    7  A    between atoms: C_10  and  N_11
REMARK    8  A    between atoms: N_11  and  C_12
REMARK    9  A    between atoms: C_15  and  C_16
REMARK   10  A    between atoms: C_22  and  C_23
REMARK                            x       y       z     vdW  Elec       q    Type
REMARK                         _______ _______ _______ _____ _____    ______ ____
ROOT
ATOM      1  C   UNL     1      48.983   8.514  13.049  0.00  0.00    +0.000 C 
ATOM      2  C   UNL     1      48.687   9.508  14.205  0.00  0.00    +0.000 C 
ATOM      3  C   UNL     1      48.178   8.981  11.817  0.00  0.00    +0.000 C 
ENDROOT
BRANCH   1   7
ATOM      4  C   UNL     1      53.240   8.298  11.969  0.00  0.00    +0.000 A 
ATOM      5  C   UNL     1      52.845   8.415  13.307  0.00  0.00    +0.000 A 
ATOM      6  C   UNL     1      51.495   8.494  13.656  0.00  0.00    +0.000 A 
ATOM      7  C   UNL     1      50.489   8.482  12.686  0.00  0.00    +0.000 A 
ATOM      8  C   UNL     1      50.905   8.412  11.338  0.00  0.00    +0.000 A 
ATOM      9  C   UNL     1      52.263   8.274  10.946  0.00  0.00    +0.000 A 
BRANCH   9  10
ATOM     10  C   UNL     1      52.591   8.040   9.506  0.00  0.00    +0.000 A 
ATOM     11  C   UNL     1      52.614   6.758   8.930  0.00  0.00    +0.000 A 
ATOM     12  C   UNL     1      52.814   6.569   7.557  0.00  0.00    +0.000 A 
ATOM     13  C   UNL     1      53.041   7.661   6.728  0.00  0.00    +0.000 A 
ATOM     14  C   UNL     1      53.075   8.939   7.272  0.00  0.00    +0.000 A 
ATOM     15  C   UNL     1      52.844   9.124   8.640  0.00  0.00    +0.000 A 
ENDBRANCH   9  10
BRANCH   4  17
ATOM     16  C   UNL     1      55.232   6.961  11.951  0.00  0.00    +0.000 C 
ATOM     17  O   UNL     1      54.554   8.159  11.596  0.00  0.00    +0.000 OA
ENDBRANCH   4  17
ENDBRANCH   1   7
BRANCH   1  18
ATOM     18  C   UNL     1      48.527   7.078  13.494  0.00  0.00    +0.000 C 
BRANCH  18  19
ATOM     19  N   UNL     1      47.086   6.997  13.747  0.00  0.00    +0.000 N 
ATOM     20  H   UNL     1      46.808   7.159  14.709  0.00  0.00    +0.000 HD
BRANCH  19  21
ATOM     21  C   UNL     1      46.286   6.029  13.145  0.00  0.00    +0.000 A 
ATOM     22  C   UNL     1      46.373   4.659  13.411  0.00  0.00    +0.000 A 
ATOM     23  C   UNL     1      45.593   3.735  12.701  0.00  0.00    +0.000 A 
ATOM     24  C   UNL     1      44.726   4.166  11.691  0.00  0.00    +0.000 A 
ATOM     25  C   UNL     1      44.655   5.525  11.388  0.00  0.00    +0.000 A 
ATOM     26  C   UNL     1      45.434   6.439  12.109  0.00  0.00    +0.000 A 
BRANCH  24  27
ATOM     27  C   UNL     1      43.941   3.149  10.943  0.00  0.00    +0.000 C 
ATOM     28  N   UNL     1      43.345   2.156  11.669  0.00  0.00    +0.000 N 
ATOM     29  O   UNL     1      43.853   3.173   9.720  0.00  0.00    +0.000 OA
ATOM     30  H   UNL     1      43.581   1.964  12.630  0.00  0.00    +0.000 HD
ATOM     31  H   UNL     1      42.894   1.422  11.137  0.00  0.00    +0.000 HD
ENDBRANCH  24  27
ENDBRANCH  19  21
ENDBRANCH  18  19
ENDBRANCH   1  18
TORSDOF 7
ENDMDL
