MODEL 1
REMARK VINA RESULT:    -8.915      0.000      0.000
REMARK INTER + INTRA:         -12.118
REMARK INTER:                 -11.000
REMARK INTRA:                  -1.118
REMARK UNBOUND:                -1.118
REMARK  Name = 
REMARK  4 active torsions:
REMARK  status: ('A' for Active; 'I' for Inactive)
REMARK    1  A    between atoms: C_2  and  C_4
REMARK    2  A    between atoms: N_8  and  C_9
REMARK    3  A    between atoms: C_9  and  C_10
REMARK    4  A    between atoms: C_14  and  C_15
REMARK                            x       y       z     vdW  Elec       q    Type
REMARK                         _______ _______ _______ _____ _____    ______ ____
ROOT
ATOM      1  C   UNL     1      43.805   4.868  11.361  0.00  0.00    +0.000 C 
ATOM      2  C   UNL     1      42.467   5.167  12.019  0.00  0.00    +0.000 C 
ATOM      3  C   UNL     1      43.007   6.108  10.998  0.00  0.00    +0.000 C 
ENDROOT
BRANCH   1   8
ATOM      4  C   UNL     1      46.559   2.737   7.506  0.00  0.00    +0.000 A 
ATOM      5  C   UNL     1      46.221   4.074   7.689  0.00  0.00    +0.000 A 
ATOM      6  C   UNL     1      45.339   4.423   8.715  0.00  0.00    +0.000 A 
ATOM      7  C   UNL     1      44.804   3.429   9.526  0.00  0.00    +0.000 A 
ATOM      8  N   UNL     1      43.822   3.677  10.490  0.00  0.00    +0.000 N 
ATOM      9  N   UNL     1      45.127   2.128   9.359  0.00  0.00    +0.000 NA
ATOM     10  C   UNL     1      45.989   1.808   8.359  0.00  0.00    +0.000 A 
ATOM     11  H   UNL     1      43.688   2.785  10.963  0.00  0.00    +0.000 HD
BRANCH   4  13
ATOM     12  N   UNL     1      47.414   2.939   5.243  0.00  0.00    +0.000 N 
ATOM     13  C   UNL     1      47.457   2.266   6.431  0.00  0.00    +0.000 C 
ATOM     14  O   UNL     1      48.225   1.335   6.603  0.00  0.00    +0.000 OA
ATOM     15  H   UNL     1      48.093   2.662   4.547  0.00  0.00    +0.000 HD
ATOM     16  H   UNL     1      46.970   3.834   5.128  0.00  0.00    +0.000 HD
ENDBRANCH   4  13
ENDBRANCH   1   8
BRANCH   1  17
ATOM     17  C   UNL     1      45.061   5.006  12.219  0.00  0.00    +0.000 A 
ATOM     18  C   UNL     1      45.577   3.915  12.938  0.00  0.00    +0.000 A 
ATOM     19  C   UNL     1      46.788   4.002  13.628  0.00  0.00    +0.000 A 
ATOM     20  C   UNL     1      47.515   5.191  13.617  0.00  0.00    +0.000 A 
ATOM     21  C   UNL     1      47.030   6.310  12.932  0.00  0.00    +0.000 A 
ATOM     22  C   UNL     1      45.798   6.202  12.259  0.00  0.00    +0.000 A 
BRANCH  21  23
ATOM     23  C   UNL     1      47.842   7.590  12.863  0.00  0.00    +0.000 C 
ATOM     24  C   UNL     1      46.975   8.809  12.514  0.00  0.00    +0.000 C 
ATOM     25  C   UNL     1      47.836  10.040  12.266  0.00  0.00    +0.000 C 
ATOM     26  O   UNL     1      48.822   9.778  11.268  0.00  0.00    +0.000 OA
ATOM     27  C   UNL     1      49.737   8.763  11.677  0.00  0.00    +0.000 C 
ATOM     28  C   UNL     1      49.012   7.443  11.873  0.00  0.00    +0.000 C 
ENDBRANCH  21  23
ENDBRANCH   1  17
TORSDOF 4
ENDMDL
MODEL 2
REMARK VINA RESULT:    -8.823      2.150      3.336
REMARK INTER + INTRA:         -12.004
REMARK INTER:                 -11.332
REMARK INTRA:                  -0.673
REMARK UNBOUND:                -1.118
REMARK  Name = 
REMARK  4 active torsions:
REMARK  status: ('A' for Active; 'I' for Inactive)
REMARK    1  A    between atoms: C_2  and  C_4
REMARK    2  A    between atoms: N_8  and  C_9
REMARK    3  A    between atoms: C_9  and  C_10
REMARK    4  A    between atoms: C_14  and  C_15
REMARK                            x       y       z     vdW  Elec       q    Type
REMARK                         _______ _______ _______ _____ _____    ______ ____
ROOT
ATOM      1  C   UNL     1      43.898   4.923  11.438  0.00  0.00    +0.000 C 
ATOM      2  C   UNL     1      42.673   5.096  12.323  0.00  0.00    +0.000 C 
ATOM      3  C   UNL     1      42.874   6.011  11.164  0.00  0.00    +0.000 C 
ENDROOT
BRANCH   1   8
ATOM      4  C   UNL     1      46.448   2.720   7.484  0.00  0.00    +0.000 A 
ATOM      5  C   UNL     1      46.022   4.039   7.609  0.00  0.00    +0.000 A 
ATOM      6  C   UNL     1      45.213   4.397   8.691  0.00  0.00    +0.000 A 
ATOM      7  C   UNL     1      44.836   3.430   9.615  0.00  0.00    +0.000 A 
ATOM      8  N   UNL     1      43.930   3.675  10.651  0.00  0.00    +0.000 N 
ATOM      9  N   UNL     1      45.245   2.147   9.504  0.00  0.00    +0.000 NA
ATOM     10  C   UNL     1      46.035   1.818   8.449  0.00  0.00    +0.000 A 
ATOM     11  H   UNL     1      43.912   2.813  11.192  0.00  0.00    +0.000 HD
BRANCH   4  13
ATOM     12  N   UNL     1      47.304   3.004   5.230  0.00  0.00    +0.000 N 
ATOM     13  C   UNL     1      47.278   2.238   6.361  0.00  0.00    +0.000 C 
ATOM     14  O   UNL     1      47.936   1.215   6.446  0.00  0.00    +0.000 OA
ATOM     15  H   UNL     1      47.942   2.710   4.504  0.00  0.00    +0.000 HD
ATOM     16  H   UNL     1      46.965   3.951   5.193  0.00  0.00    +0.000 HD
ENDBRANCH   4  13
ENDBRANCH   1   8
BRANCH   1  17
ATOM     17  C   UNL     1      45.255   5.299  12.029  0.00  0.00    +0.000 A 
ATOM     18  C   UNL     1      46.092   6.235  11.398  0.00  0.00    +0.000 A 
ATOM     19  C   UNL     1      47.278   6.671  11.992  0.00  0.00    +0.000 A 
ATOM     20  C   UNL     1      47.660   6.175  13.238  0.00  0.00    +0.000 A 
ATOM     21  C   UNL     1      46.869   5.227  13.893  0.00  0.00    +0.000 A 
ATOM     22  C   UNL     1      45.686   4.790  13.265  0.00  0.00    +0.000 A 
BRANCH  21  23
ATOM     23  C   UNL     1      47.244   4.726  15.276  0.00  0.00    +0.000 C 
ATOM     24  C   UNL     1      48.324   5.597  15.934  0.00  0.00    +0.000 C 
ATOM     25  C   UNL     1      48.816   4.971  17.232  0.00  0.00    +0.000 C 
ATOM     26  O   UNL     1      49.261   3.633  17.015  0.00  0.00    +0.000 OA
ATOM     27  C   UNL     1      48.203   2.784  16.572  0.00  0.00    +0.000 C 
ATOM     28  C   UNL     1      47.677   3.250  15.226  0.00  0.00    +0.000 C 
ENDBRANCH  21  23
ENDBRANCH   1  17
TORSDOF 4
ENDMDL
MODEL 3
REMARK VINA RESULT:    -6.912      2.973      7.207
REMARK INTER + INTRA:          -9.647
REMARK INTER:                  -9.759
REMARK INTRA:                   0.112
REMARK UNBOUND:                -1.118
REMARK  Name = 
REMARK  4 active torsions:
REMARK  status: ('A' for Active; 'I' for Inactive)
REMARK    1  A    between atoms: C_2  and  C_4
REMARK    2  A    between atoms: N_8  and  C_9
REMARK    3  A    between atoms: C_9  and  C_10
REMARK    4  A    between atoms: C_14  and  C_15
REMARK                            x       y       z     vdW  Elec       q    Type
REMARK                         _______ _______ _______ _____ _____    ______ ____
ROOT
ATOM      1  C   UNL     1      44.672   3.531  12.340  0.00  0.00    +0.000 C 
ATOM      2  C   UNL     1      43.516   4.200  13.067  0.00  0.00    +0.000 C 
ATOM      3  C   UNL     1      43.324   2.846  12.476  0.00  0.00    +0.000 C 
ENDROOT
BRANCH   1   8
ATOM      4  C   UNL     1      48.189   5.670  15.509  0.00  0.00    +0.000 A 
ATOM      5  C   UNL     1      47.716   6.152  14.293  0.00  0.00    +0.000 A 
ATOM      6  C   UNL     1      46.879   5.347  13.516  0.00  0.00    +0.000 A 
ATOM      7  C   UNL     1      46.544   4.074  13.963  0.00  0.00    +0.000 A 
ATOM      8  N   UNL     1      45.818   3.161  13.192  0.00  0.00    +0.000 N 
ATOM      9  N   UNL     1      46.995   3.596  15.143  0.00  0.00    +0.000 NA
ATOM     10  C   UNL     1      47.805   4.395  15.887  0.00  0.00    +0.000 A 
ATOM     11  H   UNL     1      45.670   2.361  13.805  0.00  0.00    +0.000 HD
BRANCH   4  13
ATOM     12  N   UNL     1      48.550   7.410  17.163  0.00  0.00    +0.000 N 
ATOM     13  C   UNL     1      49.102   6.431  16.386  0.00  0.00    +0.000 C 
ATOM     14  O   UNL     1      50.294   6.181  16.437  0.00  0.00    +0.000 OA
ATOM     15  H   UNL     1      49.170   7.863  17.820  0.00  0.00    +0.000 HD
ATOM     16  H   UNL     1      47.560   7.501  17.320  0.00  0.00    +0.000 HD
ENDBRANCH   4  13
ENDBRANCH   1   8
BRANCH   1  17
ATOM     17  C   UNL     1      45.088   4.111  10.989  0.00  0.00    +0.000 A 
ATOM     18  C   UNL     1      45.390   5.475  10.843  0.00  0.00    +0.000 A 
ATOM     19  C   UNL     1      45.884   5.989   9.641  0.00  0.00    +0.000 A 
ATOM     20  C   UNL     1      46.086   5.146   8.550  0.00  0.00    +0.000 A 
ATOM     21  C   UNL     1      45.780   3.784   8.644  0.00  0.00    +0.000 A 
ATOM     22  C   UNL     1      45.267   3.294   9.860  0.00  0.00    +0.000 A 
BRANCH  21  23
ATOM     23  C   UNL     1      46.054   2.846   7.483  0.00  0.00    +0.000 C 
ATOM     24  C   UNL     1      46.612   1.493   7.950  0.00  0.00    +0.000 C 
ATOM     25  C   UNL     1      47.054   0.645   6.765  0.00  0.00    +0.000 C 
ATOM     26  O   UNL     1      47.981   1.358   5.947  0.00  0.00    +0.000 OA
ATOM     27  C   UNL     1      47.397   2.524   5.370  0.00  0.00    +0.000 C 
ATOM     28  C   UNL     1      46.990   3.506   6.455  0.00  0.00    +0.000 C 
ENDBRANCH  21  23
ENDBRANCH   1  17
TORSDOF 4
ENDMDL
MODEL 4
REMARK VINA RESULT:    -6.625      2.758      6.768
REMARK INTER + INTRA:          -9.293
REMARK INTER:                  -8.218
REMARK INTRA:                  -1.075
REMARK UNBOUND:                -1.118
REMARK  Name = 
REMARK  4 active torsions:
REMARK  status: ('A' for Active; 'I' for Inactive)
REMARK    1  A    between atoms: C_2  and  C_4
REMARK    2  A    between atoms: N_8  and  C_9
REMARK    3  A    between atoms: C_9  and  C_10
REMARK    4  A    between atoms: C_14  and  C_15
REMARK                            x       y       z     vdW  Elec       q    Type
REMARK                         _______ _______ _______ _____ _____    ______ ____
ROOT
ATOM      1  C   UNL     1      46.471   5.196  13.681  0.00  0.00    +0.000 C 
ATOM      2  C   UNL     1      46.455   4.246  14.869  0.00  0.00    +0.000 C 
ATOM      3  C   UNL     1      47.509   4.097  13.827  0.00  0.00    +0.000 C 
ENDROOT
BRANCH   1   8
ATOM      4  C   UNL     1      48.722   9.405  11.632  0.00  0.00    +0.000 A 
ATOM      5  C   UNL     1      49.140   8.080  11.558  0.00  0.00    +0.000 A 
ATOM      6  C   UNL     1      48.474   7.110  12.310  0.00  0.00    +0.000 A 
ATOM      7  C   UNL     1      47.416   7.484  13.130  0.00  0.00    +0.000 A 
ATOM      8  N   UNL     1      46.780   6.601  14.008  0.00  0.00    +0.000 N 
ATOM      9  N   UNL     1      47.001   8.767  13.209  0.00  0.00    +0.000 NA
ATOM     10  C   UNL     1      47.657   9.697  12.467  0.00  0.00    +0.000 A 
ATOM     11  H   UNL     1      46.013   7.138  14.410  0.00  0.00    +0.000 HD
BRANCH   4  13
ATOM     12  N   UNL     1      48.571  11.419  10.283  0.00  0.00    +0.000 N 
ATOM     13  C   UNL     1      49.381  10.507  10.900  0.00  0.00    +0.000 C 
ATOM     14  O   UNL     1      50.595  10.618  10.870  0.00  0.00    +0.000 OA
ATOM     15  H   UNL     1      49.032  12.213   9.861  0.00  0.00    +0.000 HD
ATOM     16  H   UNL     1      47.585  11.496  10.464  0.00  0.00    +0.000 HD
ENDBRANCH   4  13
ENDBRANCH   1   8
BRANCH   1  17
ATOM     17  C   UNL     1      45.360   5.048  12.643  0.00  0.00    +0.000 A 
ATOM     18  C   UNL     1      44.128   5.705  12.794  0.00  0.00    +0.000 A 
ATOM     19  C   UNL     1      43.154   5.670  11.794  0.00  0.00    +0.000 A 
ATOM     20  C   UNL     1      43.390   4.970  10.612  0.00  0.00    +0.000 A 
ATOM     21  C   UNL     1      44.594   4.284  10.426  0.00  0.00    +0.000 A 
ATOM     22  C   UNL     1      45.553   4.320  11.457  0.00  0.00    +0.000 A 
BRANCH  21  23
ATOM     23  C   UNL     1      44.887   3.570   9.119  0.00  0.00    +0.000 C 
ATOM     24  C   UNL     1      45.370   2.129   9.341  0.00  0.00    +0.000 C 
ATOM     25  C   UNL     1      45.835   1.501   8.034  0.00  0.00    +0.000 C 
ATOM     26  O   UNL     1      46.827   2.311   7.405  0.00  0.00    +0.000 OA
ATOM     27  C   UNL     1      46.316   3.591   7.038  0.00  0.00    +0.000 C 
ATOM     28  C   UNL     1      45.896   4.368   8.274  0.00  0.00    +0.000 C 
ENDBRANCH  21  23
ENDBRANCH   1  17
TORSDOF 4
ENDMDL
MODEL 5
REMARK VINA RESULT:    -6.538      4.389      8.441
REMARK INTER + INTRA:          -9.185
REMARK INTER:                  -8.190
REMARK INTRA:                  -0.995
REMARK UNBOUND:                -1.118
REMARK  Name = 
REMARK  4 active torsions:
REMARK  status: ('A' for Active; 'I' for Inactive)
REMARK    1  A    between atoms: C_2  and  C_4
REMARK    2  A    between atoms: N_8  and  C_9
REMARK    3  A    between atoms: C_9  and  C_10
REMARK    4  A    between atoms: C_14  and  C_15
REMARK                            x       y       z     vdW  Elec       q    Type
REMARK                         _______ _______ _______ _____ _____    ______ ____
ROOT
ATOM      1  C   UNL     1      49.215   7.936  12.843  0.00  0.00    +0.000 C 
ATOM      2  C   UNL     1      50.131   8.082  11.638  0.00  0.00    +0.000 C 
ATOM      3  C   UNL     1      49.840   9.273  12.484  0.00  0.00    +0.000 C 
ENDROOT
BRANCH   1   8
ATOM      4  C   UNL     1      48.459   6.949  17.887  0.00  0.00    +0.000 A 
ATOM      5  C   UNL     1      48.427   8.177  17.233  0.00  0.00    +0.000 A 
ATOM      6  C   UNL     1      48.810   8.248  15.891  0.00  0.00    +0.000 A 
ATOM      7  C   UNL     1      49.229   7.096  15.236  0.00  0.00    +0.000 A 
ATOM      8  N   UNL     1      49.746   7.101  13.937  0.00  0.00    +0.000 N 
ATOM      9  N   UNL     1      49.263   5.898  15.860  0.00  0.00    +0.000 NA
ATOM     10  C   UNL     1      48.883   5.848  17.164  0.00  0.00    +0.000 A 
ATOM     11  H   UNL     1      49.893   6.119  13.710  0.00  0.00    +0.000 HD
BRANCH   4  13
ATOM     12  N   UNL     1      47.475   5.617  19.662  0.00  0.00    +0.000 N 
ATOM     13  C   UNL     1      48.104   6.778  19.311  0.00  0.00    +0.000 C 
ATOM     14  O   UNL     1      48.386   7.621  20.145  0.00  0.00    +0.000 OA
ATOM     15  H   UNL     1      47.317   5.475  20.649  0.00  0.00    +0.000 HD
ATOM     16  H   UNL     1      47.424   4.810  19.063  0.00  0.00    +0.000 HD
ENDBRANCH   4  13
ENDBRANCH   1   8
BRANCH   1  17
ATOM     17  C   UNL     1      47.728   7.705  12.575  0.00  0.00    +0.000 A 
ATOM     18  C   UNL     1      46.841   8.782  12.411  0.00  0.00    +0.000 A 
ATOM     19  C   UNL     1      45.507   8.581  12.050  0.00  0.00    +0.000 A 
ATOM     20  C   UNL     1      45.025   7.289  11.845  0.00  0.00    +0.000 A 
ATOM     21  C   UNL     1      45.867   6.186  12.018  0.00  0.00    +0.000 A 
ATOM     22  C   UNL     1      47.203   6.414  12.399  0.00  0.00    +0.000 A 
BRANCH  21  23
ATOM     23  C   UNL     1      45.370   4.779  11.738  0.00  0.00    +0.000 C 
ATOM     24  C   UNL     1      44.908   4.606  10.284  0.00  0.00    +0.000 C 
ATOM     25  C   UNL     1      44.242   3.252  10.079  0.00  0.00    +0.000 C 
ATOM     26  O   UNL     1      43.176   3.064  11.009  0.00  0.00    +0.000 OA
ATOM     27  C   UNL     1      43.641   3.047  12.357  0.00  0.00    +0.000 C 
ATOM     28  C   UNL     1      44.254   4.387  12.724  0.00  0.00    +0.000 C 
ENDBRANCH  21  23
ENDBRANCH   1  17
TORSDOF 4
ENDMDL
MODEL 6
REMARK VINA RESULT:    -6.129      3.974      6.631
REMARK INTER + INTRA:          -8.681
REMARK INTER:                  -7.609
REMARK INTRA:                  -1.072
REMARK UNBOUND:                -1.118
REMARK  Name = 
REMARK  4 active torsions:
REMARK  status: ('A' for Active; 'I' for Inactive)
REMARK    1  A    between atoms: C_2  and  C_4
REMARK    2  A    between atoms: N_8  and  C_9
REMARK    3  A    between atoms: C_9  and  C_10
REMARK    4  A    between atoms: C_14  and  C_15
REMARK                            x       y       z     vdW  Elec       q    Type
REMARK                         _______ _______ _______ _____ _____    ______ ____
ROOT
ATOM      1  C   UNL     1      49.146   8.510  12.947  0.00  0.00    +0.000 C 
ATOM      2  C   UNL     1      50.393   9.219  12.442  0.00  0.00    +0.000 C 
ATOM      3  C   UNL     1      50.260   7.747  12.253  0.00  0.00    +0.000 C 
ENDROOT
BRANCH   1   8
ATOM      4  C   UNL     1      44.606   6.433  11.510  0.00  0.00    +0.000 A 
ATOM      5  C   UNL     1      45.871   5.855  11.472  0.00  0.00    +0.000 A 
ATOM      6  C   UNL     1      46.991   6.639  11.761  0.00  0.00    +0.000 A 
ATOM      7  C   UNL     1      46.825   7.984  12.069  0.00  0.00    +0.000 A 
ATOM      8  N   UNL     1      47.897   8.865  12.246  0.00  0.00    +0.000 N 
ATOM      9  N   UNL     1      45.602   8.556  12.111  0.00  0.00    +0.000 NA
ATOM     10  C   UNL     1      44.524   7.777  11.831  0.00  0.00    +0.000 A 
ATOM     11  H   UNL     1      47.468   9.745  12.528  0.00  0.00    +0.000 HD
BRANCH   4  13
ATOM     12  N   UNL     1      42.198   6.186  11.705  0.00  0.00    +0.000 N 
ATOM     13  C   UNL     1      43.366   5.697  11.190  0.00  0.00    +0.000 C 
ATOM     14  O   UNL     1      43.375   4.711  10.472  0.00  0.00    +0.000 OA
ATOM     15  H   UNL     1      41.350   5.725  11.408  0.00  0.00    +0.000 HD
ATOM     16  H   UNL     1      42.111   7.104  12.108  0.00  0.00    +0.000 HD
ENDBRANCH   4  13
ENDBRANCH   1   8
BRANCH   1  17
ATOM     17  C   UNL     1      48.972   8.377  14.459  0.00  0.00    +0.000 A 
ATOM     18  C   UNL     1      48.557   9.466  15.244  0.00  0.00    +0.000 A 
ATOM     19  C   UNL     1      48.282   9.322  16.606  0.00  0.00    +0.000 A 
ATOM     20  C   UNL     1      48.419   8.077  17.219  0.00  0.00    +0.000 A 
ATOM     21  C   UNL     1      48.849   6.970  16.481  0.00  0.00    +0.000 A 
ATOM     22  C   UNL     1      49.137   7.145  15.114  0.00  0.00    +0.000 A 
BRANCH  21  23
ATOM     23  C   UNL     1      48.943   5.598  17.124  0.00  0.00    +0.000 C 
ATOM     24  C   UNL     1      50.388   5.083  17.182  0.00  0.00    +0.000 C 
ATOM     25  C   UNL     1      50.435   3.636  17.655  0.00  0.00    +0.000 C 
ATOM     26  O   UNL     1      49.601   2.809  16.844  0.00  0.00    +0.000 OA
ATOM     27  C   UNL     1      48.228   3.184  16.936  0.00  0.00    +0.000 C 
ATOM     28  C   UNL     1      48.026   4.593  16.404  0.00  0.00    +0.000 C 
ENDBRANCH  21  23
ENDBRANCH   1  17
TORSDOF 4
ENDMDL
MODEL 7
REMARK VINA RESULT:    -6.084      3.837      7.416
REMARK INTER + INTRA:          -8.625
REMARK INTER:                  -8.435
REMARK INTRA:                  -0.190
REMARK UNBOUND:                -1.118
REMARK  Name = 
REMARK  4 active torsions:
REMARK  status: ('A' for Active; 'I' for Inactive)
REMARK    1  A    between atoms: C_2  and  C_4
REMARK    2  A    between atoms: N_8  and  C_9
REMARK    3  A    between atoms: C_9  and  C_10
REMARK    4  A    between atoms: C_14  and  C_15
REMARK                            x       y       z     vdW  Elec       q    Type
REMARK                         _______ _______ _______ _____ _____    ______ ____
ROOT
ATOM      1  C   UNL     1      48.476   7.861  12.751  0.00  0.00    +0.000 C 
ATOM      2  C   UNL     1      49.519   7.129  11.920  0.00  0.00    +0.000 C 
ATOM      3  C   UNL     1      49.480   8.618  11.899  0.00  0.00    +0.000 C 
ENDROOT
BRANCH   1   8
ATOM      4  C   UNL     1      48.202   4.323  16.545  0.00  0.00    +0.000 A 
ATOM      5  C   UNL     1      47.358   4.482  15.450  0.00  0.00    +0.000 A 
ATOM      6  C   UNL     1      47.515   5.597  14.622  0.00  0.00    +0.000 A 
ATOM      7  C   UNL     1      48.499   6.534  14.912  0.00  0.00    +0.000 A 
ATOM      8  N   UNL     1      48.640   7.736  14.212  0.00  0.00    +0.000 N 
ATOM      9  N   UNL     1      49.325   6.389  15.971  0.00  0.00    +0.000 NA
ATOM     10  C   UNL     1      49.161   5.296  16.763  0.00  0.00    +0.000 A 
ATOM     11  H   UNL     1      49.476   8.168  14.600  0.00  0.00    +0.000 HD
BRANCH   4  13
ATOM     12  N   UNL     1      46.844   2.714  17.753  0.00  0.00    +0.000 N 
ATOM     13  C   UNL     1      48.096   3.197  17.495  0.00  0.00    +0.000 C 
ATOM     14  O   UNL     1      49.083   2.698  18.007  0.00  0.00    +0.000 OA
ATOM     15  H   UNL     1      46.793   1.890  18.336  0.00  0.00    +0.000 HD
ATOM     16  H   UNL     1      46.037   2.939  17.196  0.00  0.00    +0.000 HD
ENDBRANCH   4  13
ENDBRANCH   1   8
BRANCH   1  17
ATOM     17  C   UNL     1      47.021   7.771  12.296  0.00  0.00    +0.000 A 
ATOM     18  C   UNL     1      46.151   8.868  12.414  0.00  0.00    +0.000 A 
ATOM     19  C   UNL     1      44.855   8.832  11.893  0.00  0.00    +0.000 A 
ATOM     20  C   UNL     1      44.395   7.689  11.241  0.00  0.00    +0.000 A 
ATOM     21  C   UNL     1      45.219   6.566  11.119  0.00  0.00    +0.000 A 
ATOM     22  C   UNL     1      46.515   6.621  11.667  0.00  0.00    +0.000 A 
BRANCH  21  23
ATOM     23  C   UNL     1      44.751   5.339  10.357  0.00  0.00    +0.000 C 
ATOM     24  C   UNL     1      44.608   4.111  11.269  0.00  0.00    +0.000 C 
ATOM     25  C   UNL     1      44.322   2.857  10.454  0.00  0.00    +0.000 C 
ATOM     26  O   UNL     1      45.315   2.667   9.447  0.00  0.00    +0.000 OA
ATOM     27  C   UNL     1      45.320   3.731   8.497  0.00  0.00    +0.000 C 
ATOM     28  C   UNL     1      45.685   5.042   9.170  0.00  0.00    +0.000 C 
ENDBRANCH  21  23
ENDBRANCH   1  17
TORSDOF 4
ENDMDL
MODEL 8
REMARK VINA RESULT:    -6.009      3.620      5.915
REMARK INTER + INTRA:          -8.532
REMARK INTER:                  -8.324
REMARK INTRA:                  -0.208
REMARK UNBOUND:                -1.118
REMARK  Name = 
REMARK  4 active torsions:
REMARK  status: ('A' for Active; 'I' for Inactive)
REMARK    1  A    between atoms: C_2  and  C_4
REMARK    2  A    between atoms: N_8  and  C_9
REMARK    3  A    between atoms: C_9  and  C_10
REMARK    4  A    between atoms: C_14  and  C_15
REMARK                            x       y       z     vdW  Elec       q    Type
REMARK                         _______ _______ _______ _____ _____    ______ ____
ROOT
ATOM      1  C   UNL     1      47.389   8.317  13.196  0.00  0.00    +0.000 C 
ATOM      2  C   UNL     1      47.564   9.598  12.396  0.00  0.00    +0.000 C 
ATOM      3  C   UNL     1      48.201   8.341  11.913  0.00  0.00    +0.000 C 
ENDROOT
BRANCH   1   8
ATOM      4  C   UNL     1      44.581   4.300  11.473  0.00  0.00    +0.000 A 
ATOM      5  C   UNL     1      45.563   5.019  10.799  0.00  0.00    +0.000 A 
ATOM      6  C   UNL     1      46.095   6.169  11.389  0.00  0.00    +0.000 A 
ATOM      7  C   UNL     1      45.627   6.582  12.631  0.00  0.00    +0.000 A 
ATOM      8  N   UNL     1      46.014   7.784  13.231  0.00  0.00    +0.000 N 
ATOM      9  N   UNL     1      44.676   5.890  13.295  0.00  0.00    +0.000 NA
ATOM     10  C   UNL     1      44.173   4.773  12.708  0.00  0.00    +0.000 A 
ATOM     11  H   UNL     1      45.569   7.773  14.148  0.00  0.00    +0.000 HD
BRANCH   4  13
ATOM     12  N   UNL     1      43.312   2.256  11.803  0.00  0.00    +0.000 N 
ATOM     13  C   UNL     1      43.936   3.092  10.920  0.00  0.00    +0.000 C 
ATOM     14  O   UNL     1      43.932   2.861   9.722  0.00  0.00    +0.000 OA
ATOM     15  H   UNL     1      42.801   1.482  11.403  0.00  0.00    +0.000 HD
ATOM     16  H   UNL     1      43.098   2.513  12.753  0.00  0.00    +0.000 HD
ENDBRANCH   4  13
ENDBRANCH   1   8
BRANCH   1  17
ATOM     17  C   UNL     1      48.108   8.219  14.540  0.00  0.00    +0.000 A 
ATOM     18  C   UNL     1      48.477   9.371  15.255  0.00  0.00    +0.000 A 
ATOM     19  C   UNL     1      49.028   9.290  16.537  0.00  0.00    +0.000 A 
ATOM     20  C   UNL     1      49.225   8.047  17.136  0.00  0.00    +0.000 A 
ATOM     21  C   UNL     1      48.891   6.873  16.453  0.00  0.00    +0.000 A 
ATOM     22  C   UNL     1      48.354   6.981  15.155  0.00  0.00    +0.000 A 
BRANCH  21  23
ATOM     23  C   UNL     1      49.045   5.517  17.119  0.00  0.00    +0.000 C 
ATOM     24  C   UNL     1      50.509   5.055  17.161  0.00  0.00    +0.000 C 
ATOM     25  C   UNL     1      50.615   3.620  17.659  0.00  0.00    +0.000 C 
ATOM     26  O   UNL     1      49.797   2.749  16.879  0.00  0.00    +0.000 OA
ATOM     27  C   UNL     1      48.413   3.077  16.988  0.00  0.00    +0.000 C 
ATOM     28  C   UNL     1      48.152   4.467  16.434  0.00  0.00    +0.000 C 
ENDBRANCH  21  23
ENDBRANCH   1  17
TORSDOF 4
ENDMDL
