MODEL 1
REMARK VINA RESULT:    -8.103      0.000      0.000
REMARK INTER + INTRA:         -12.703
REMARK INTER:                 -11.419
REMARK INTRA:                  -1.284
REMARK UNBOUND:                -1.284
REMARK  Name = 
REMARK  7 active torsions:
REMARK  status: ('A' for Active; 'I' for Inactive)
REMARK    1  A    between atoms: C_2  and  C_25
REMARK    2  A    between atoms: N_3  and  C_4
REMARK    3  A    between atoms: C_4  and  C_5
REMARK    4  A    between atoms: C_8  and  C_9
REMARK    5  A    between atoms: C_9  and  C_10
REMARK    6  A    between atoms: C_10  and  C_11
REMARK    7  A    between atoms: C_11  and  C_13
REMARK                            x       y       z     vdW  Elec       q    Type
REMARK                         _______ _______ _______ _____ _____    ______ ____
ROOT
ATOM      1  C   UNL     1      45.444   6.443  11.425  0.00  0.00    +0.000 A 
ATOM      2  C   UNL     1      46.827   6.462  11.213  0.00  0.00    +0.000 A 
ATOM      3  C   UNL     1      47.644   7.350  11.920  0.00  0.00    +0.000 A 
ATOM      4  C   UNL     1      47.095   8.238  12.855  0.00  0.00    +0.000 A 
ATOM      5  C   UNL     1      45.711   8.214  13.071  0.00  0.00    +0.000 A 
ATOM      6  C   UNL     1      44.895   7.320  12.369  0.00  0.00    +0.000 A 
ENDROOT
BRANCH   1   7
ATOM      7  C   UNL     1      44.559   5.524  10.628  0.00  0.00    +0.000 C 
BRANCH   7  10
ATOM      8  O   UNL     1      44.132   2.864  10.034  0.00  0.00    +0.000 OA
ATOM      9  C   UNL     1      44.970   3.472   9.379  0.00  0.00    +0.000 C 
ATOM     10  N   UNL     1      45.252   4.809   9.586  0.00  0.00    +0.000 N 
ATOM     11  H   UNL     1      45.987   5.240   9.034  0.00  0.00    +0.000 HD
BRANCH   9  12
ATOM     12  C   UNL     1      45.753   2.777   8.310  0.00  0.00    +0.000 A 
ATOM     13  C   UNL     1      46.106   3.497   7.171  0.00  0.00    +0.000 A 
ATOM     14  C   UNL     1      46.826   2.851   6.173  0.00  0.00    +0.000 A 
ATOM     15  C   UNL     1      47.168   1.515   6.346  0.00  0.00    +0.000 A 
ATOM     16  C   UNL     1      46.778   0.877   7.516  0.00  0.00    +0.000 A 
ATOM     17  N   UNL     1      46.077   1.470   8.510  0.00  0.00    +0.000 NA
ENDBRANCH   9  12
ENDBRANCH   7  10
ENDBRANCH   1   7
BRANCH   4  18
ATOM     18  C   UNL     1      47.975   9.208  13.614  0.00  0.00    +0.000 C 
BRANCH  18  19
ATOM     19  C   UNL     1      48.186   8.762  15.060  0.00  0.00    +0.000 C 
BRANCH  19  20
ATOM     20  C   UNL     1      49.252   7.696  15.216  0.00  0.00    +0.000 C 
ATOM     21  O   UNL     1      50.213   7.656  14.447  0.00  0.00    +0.000 OA
BRANCH  20  22
ATOM     22  C   UNL     1      49.181   6.753  16.350  0.00  0.00    +0.000 A 
ATOM     23  C   UNL     1      49.901   7.023  17.509  0.00  0.00    +0.000 A 
ATOM     24  S   UNL     1      49.651   5.882  18.750  0.00  0.00    +0.000 S 
ATOM     25  C   UNL     1      48.604   4.964  17.773  0.00  0.00    +0.000 A 
ATOM     26  N   UNL     1      48.031   3.829  18.253  0.00  0.00    +0.000 NA
ATOM     27  C   UNL     1      47.260   3.221  17.412  0.00  0.00    +0.000 A 
ATOM     28  N   UNL     1      47.018   3.644  16.137  0.00  0.00    +0.000 N 
ATOM     29  C   UNL     1      47.641   4.740  15.582  0.00  0.00    +0.000 A 
ATOM     30  O   UNL     1      47.515   4.973  14.386  0.00  0.00    +0.000 OA
ATOM     31  C   UNL     1      48.457   5.508  16.507  0.00  0.00    +0.000 A 
ATOM     32  H   UNL     1      46.452   3.099  15.505  0.00  0.00    +0.000 HD
ENDBRANCH  20  22
ENDBRANCH  19  20
ENDBRANCH  18  19
ENDBRANCH   4  18
TORSDOF 7
ENDMDL
MODEL 2
REMARK VINA RESULT:    -8.093      2.490      3.193
REMARK INTER + INTRA:         -12.688
REMARK INTER:                 -12.089
REMARK INTRA:                  -0.599
REMARK UNBOUND:                -1.284
REMARK  Name = 
REMARK  7 active torsions:
REMARK  status: ('A' for Active; 'I' for Inactive)
REMARK    1  A    between atoms: C_2  and  C_25
REMARK    2  A    between atoms: N_3  and  C_4
REMARK    3  A    between atoms: C_4  and  C_5
REMARK    4  A    between atoms: C_8  and  C_9
REMARK    5  A    between atoms: C_9  and  C_10
REMARK    6  A    between atoms: C_10  and  C_11
REMARK    7  A    between atoms: C_11  and  C_13
REMARK                            x       y       z     vdW  Elec       q    Type
REMARK                         _______ _______ _______ _____ _____    ______ ____
ROOT
ATOM      1  C   UNL     1      45.348   5.419  11.777  0.00  0.00    +0.000 A 
ATOM      2  C   UNL     1      45.468   4.345  12.667  0.00  0.00    +0.000 A 
ATOM      3  C   UNL     1      46.301   4.437  13.786  0.00  0.00    +0.000 A 
ATOM      4  C   UNL     1      47.034   5.605  14.039  0.00  0.00    +0.000 A 
ATOM      5  C   UNL     1      46.909   6.681  13.152  0.00  0.00    +0.000 A 
ATOM      6  C   UNL     1      46.068   6.592  12.036  0.00  0.00    +0.000 A 
ENDROOT
BRANCH   1   7
ATOM      7  C   UNL     1      44.491   5.302  10.546  0.00  0.00    +0.000 C 
BRANCH   7  10
ATOM      8  O   UNL     1      44.459   2.635   9.841  0.00  0.00    +0.000 OA
ATOM      9  C   UNL     1      45.112   3.405   9.147  0.00  0.00    +0.000 C 
ATOM     10  N   UNL     1      45.185   4.762   9.405  0.00  0.00    +0.000 N 
ATOM     11  H   UNL     1      45.777   5.336   8.812  0.00  0.00    +0.000 HD
BRANCH   9  12
ATOM     12  C   UNL     1      45.888   2.901   7.971  0.00  0.00    +0.000 A 
ATOM     13  C   UNL     1      46.385   1.600   8.012  0.00  0.00    +0.000 A 
ATOM     14  C   UNL     1      47.114   1.134   6.925  0.00  0.00    +0.000 A 
ATOM     15  C   UNL     1      47.319   1.976   5.839  0.00  0.00    +0.000 A 
ATOM     16  C   UNL     1      46.782   3.256   5.882  0.00  0.00    +0.000 A 
ATOM     17  N   UNL     1      46.068   3.748   6.921  0.00  0.00    +0.000 NA
ENDBRANCH   9  12
ENDBRANCH   7  10
ENDBRANCH   1   7
BRANCH   4  18
ATOM     18  C   UNL     1      47.946   5.703  15.244  0.00  0.00    +0.000 C 
BRANCH  18  19
ATOM     19  C   UNL     1      47.877   4.442  16.104  0.00  0.00    +0.000 C 
BRANCH  19  20
ATOM     20  C   UNL     1      48.386   4.644  17.517  0.00  0.00    +0.000 C 
ATOM     21  O   UNL     1      47.612   4.963  18.420  0.00  0.00    +0.000 OA
BRANCH  20  22
ATOM     22  C   UNL     1      49.804   4.373  17.828  0.00  0.00    +0.000 A 
ATOM     23  C   UNL     1      50.571   5.362  18.435  0.00  0.00    +0.000 A 
ATOM     24  S   UNL     1      52.161   4.867  18.797  0.00  0.00    +0.000 S 
ATOM     25  C   UNL     1      51.897   3.329  18.121  0.00  0.00    +0.000 A 
ATOM     26  N   UNL     1      52.889   2.400  18.112  0.00  0.00    +0.000 NA
ATOM     27  C   UNL     1      52.564   1.274  17.566  0.00  0.00    +0.000 A 
ATOM     28  N   UNL     1      51.341   1.000  17.025  0.00  0.00    +0.000 N 
ATOM     29  C   UNL     1      50.335   1.936  16.938  0.00  0.00    +0.000 A 
ATOM     30  O   UNL     1      49.323   1.687  16.295  0.00  0.00    +0.000 OA
ATOM     31  C   UNL     1      50.617   3.194  17.607  0.00  0.00    +0.000 A 
ATOM     32  H   UNL     1      51.160   0.122  16.562  0.00  0.00    +0.000 HD
ENDBRANCH  20  22
ENDBRANCH  19  20
ENDBRANCH  18  19
ENDBRANCH   4  18
TORSDOF 7
ENDMDL
MODEL 3
REMARK VINA RESULT:    -7.909      3.395      8.094
REMARK INTER + INTRA:         -12.429
REMARK INTER:                 -11.314
REMARK INTRA:                  -1.115
REMARK UNBOUND:                -1.284
REMARK  Name = 
REMARK  7 active torsions:
REMARK  status: ('A' for Active; 'I' for Inactive)
REMARK    1  A    between atoms: C_2  and  C_25
REMARK    2  A    between atoms: N_3  and  C_4
REMARK    3  A    between atoms: C_4  and  C_5
REMARK    4  A    between atoms: C_8  and  C_9
REMARK    5  A    between atoms: C_9  and  C_10
REMARK    6  A    between atoms: C_10  and  C_11
REMARK    7  A    between atoms: C_11  and  C_13
REMARK                            x       y       z     vdW  Elec       q    Type
REMARK                         _______ _______ _______ _____ _____    ______ ____
ROOT
ATOM      1  C   UNL     1      47.750   4.591  15.954  0.00  0.00    +0.000 A 
ATOM      2  C   UNL     1      48.262   5.884  15.796  0.00  0.00    +0.000 A 
ATOM      3  C   UNL     1      48.166   6.542  14.566  0.00  0.00    +0.000 A 
ATOM      4  C   UNL     1      47.554   5.922  13.468  0.00  0.00    +0.000 A 
ATOM      5  C   UNL     1      47.036   4.631  13.628  0.00  0.00    +0.000 A 
ATOM      6  C   UNL     1      47.126   3.975  14.861  0.00  0.00    +0.000 A 
ENDROOT
BRANCH   1   7
ATOM      7  C   UNL     1      47.899   3.862  17.261  0.00  0.00    +0.000 C 
BRANCH   7  10
ATOM      8  O   UNL     1      49.309   1.743  16.196  0.00  0.00    +0.000 OA
ATOM      9  C   UNL     1      49.875   2.456  17.015  0.00  0.00    +0.000 C 
ATOM     10  N   UNL     1      49.265   3.550  17.600  0.00  0.00    +0.000 N 
ATOM     11  H   UNL     1      49.779   4.075  18.301  0.00  0.00    +0.000 HD
BRANCH   9  12
ATOM     12  C   UNL     1      51.279   2.163  17.440  0.00  0.00    +0.000 A 
ATOM     13  C   UNL     1      52.073   3.219  17.883  0.00  0.00    +0.000 A 
ATOM     14  C   UNL     1      53.381   2.950  18.269  0.00  0.00    +0.000 A 
ATOM     15  C   UNL     1      53.848   1.643  18.203  0.00  0.00    +0.000 A 
ATOM     16  C   UNL     1      52.985   0.652  17.754  0.00  0.00    +0.000 A 
ATOM     17  N   UNL     1      51.706   0.873  17.369  0.00  0.00    +0.000 NA
ENDBRANCH   9  12
ENDBRANCH   7  10
ENDBRANCH   1   7
BRANCH   4  18
ATOM     18  C   UNL     1      47.458   6.629  12.132  0.00  0.00    +0.000 C 
BRANCH  18  19
ATOM     19  C   UNL     1      46.481   7.803  12.187  0.00  0.00    +0.000 C 
BRANCH  19  20
ATOM     20  C   UNL     1      45.127   7.493  11.582  0.00  0.00    +0.000 C 
ATOM     21  O   UNL     1      44.506   8.359  10.965  0.00  0.00    +0.000 OA
BRANCH  20  22
ATOM     22  C   UNL     1      44.589   6.121  11.662  0.00  0.00    +0.000 A 
ATOM     23  C   UNL     1      43.871   5.733  12.788  0.00  0.00    +0.000 A 
ATOM     24  S   UNL     1      43.253   4.148  12.693  0.00  0.00    +0.000 S 
ATOM     25  C   UNL     1      43.955   3.906  11.163  0.00  0.00    +0.000 A 
ATOM     26  N   UNL     1      43.799   2.723  10.511  0.00  0.00    +0.000 NA
ATOM     27  C   UNL     1      44.385   2.664   9.360  0.00  0.00    +0.000 A 
ATOM     28  N   UNL     1      45.115   3.677   8.810  0.00  0.00    +0.000 N 
ATOM     29  C   UNL     1      45.369   4.859   9.468  0.00  0.00    +0.000 A 
ATOM     30  O   UNL     1      46.167   5.661   8.998  0.00  0.00    +0.000 OA
ATOM     31  C   UNL     1      44.669   5.012  10.732  0.00  0.00    +0.000 A 
ATOM     32  H   UNL     1      45.597   3.555   7.932  0.00  0.00    +0.000 HD
ENDBRANCH  20  22
ENDBRANCH  19  20
ENDBRANCH  18  19
ENDBRANCH   4  18
TORSDOF 7
ENDMDL
MODEL 4
REMARK VINA RESULT:    -7.148      2.190      3.309
REMARK INTER + INTRA:         -11.356
REMARK INTER:                 -10.374
REMARK INTRA:                  -0.982
REMARK UNBOUND:                -1.284
REMARK  Name = 
REMARK  7 active torsions:
REMARK  status: ('A' for Active; 'I' for Inactive)
REMARK    1  A    between atoms: C_2  and  C_25
REMARK    2  A    between atoms: N_3  and  C_4
REMARK    3  A    between atoms: C_4  and  C_5
REMARK    4  A    between atoms: C_8  and  C_9
REMARK    5  A    between atoms: C_9  and  C_10
REMARK    6  A    between atoms: C_10  and  C_11
REMARK    7  A    between atoms: C_11  and  C_13
REMARK                            x       y       z     vdW  Elec       q    Type
REMARK                         _______ _______ _______ _____ _____    ______ ____
ROOT
ATOM      1  C   UNL     1      45.707   5.567  11.840  0.00  0.00    +0.000 A 
ATOM      2  C   UNL     1      45.131   4.670  12.747  0.00  0.00    +0.000 A 
ATOM      3  C   UNL     1      45.720   4.442  13.995  0.00  0.00    +0.000 A 
ATOM      4  C   UNL     1      46.898   5.107  14.363  0.00  0.00    +0.000 A 
ATOM      5  C   UNL     1      47.470   6.009  13.457  0.00  0.00    +0.000 A 
ATOM      6  C   UNL     1      46.877   6.242  12.212  0.00  0.00    +0.000 A 
ENDROOT
BRANCH   1   7
ATOM      7  C   UNL     1      45.103   5.774  10.478  0.00  0.00    +0.000 C 
BRANCH   7  10
ATOM      8  O   UNL     1      44.235   3.304   9.607  0.00  0.00    +0.000 OA
ATOM      9  C   UNL     1      45.235   3.780   9.082  0.00  0.00    +0.000 C 
ATOM     10  N   UNL     1      45.746   5.015   9.436  0.00  0.00    +0.000 N 
ATOM     11  H   UNL     1      46.601   5.332   8.988  0.00  0.00    +0.000 HD
BRANCH   9  12
ATOM     12  C   UNL     1      45.973   3.025   8.023  0.00  0.00    +0.000 A 
ATOM     13  C   UNL     1      46.300   3.688   6.841  0.00  0.00    +0.000 A 
ATOM     14  C   UNL     1      46.978   2.985   5.852  0.00  0.00    +0.000 A 
ATOM     15  C   UNL     1      47.305   1.652   6.075  0.00  0.00    +0.000 A 
ATOM     16  C   UNL     1      46.943   1.074   7.284  0.00  0.00    +0.000 A 
ATOM     17  N   UNL     1      46.283   1.724   8.272  0.00  0.00    +0.000 NA
ENDBRANCH   9  12
ENDBRANCH   7  10
ENDBRANCH   1   7
BRANCH   4  18
ATOM     18  C   UNL     1      47.543   4.853  15.709  0.00  0.00    +0.000 C 
BRANCH  18  19
ATOM     19  C   UNL     1      47.823   3.367  15.926  0.00  0.00    +0.000 C 
BRANCH  19  20
ATOM     20  C   UNL     1      48.961   3.099  16.892  0.00  0.00    +0.000 C 
ATOM     21  O   UNL     1      49.817   2.255  16.629  0.00  0.00    +0.000 OA
BRANCH  20  22
ATOM     22  C   UNL     1      49.088   3.918  18.114  0.00  0.00    +0.000 A 
ATOM     23  C   UNL     1      48.358   3.573  19.246  0.00  0.00    +0.000 A 
ATOM     24  S   UNL     1      48.674   4.567  20.593  0.00  0.00    +0.000 S 
ATOM     25  C   UNL     1      49.767   5.520  19.704  0.00  0.00    +0.000 A 
ATOM     26  N   UNL     1      50.404   6.569  20.290  0.00  0.00    +0.000 NA
ATOM     27  C   UNL     1      51.204   7.215  19.507  0.00  0.00    +0.000 A 
ATOM     28  N   UNL     1      51.417   6.910  18.194  0.00  0.00    +0.000 N 
ATOM     29  C   UNL     1      50.734   5.911  17.538  0.00  0.00    +0.000 A 
ATOM     30  O   UNL     1      50.842   5.793  16.323  0.00  0.00    +0.000 OA
ATOM     31  C   UNL     1      49.880   5.100  18.388  0.00  0.00    +0.000 A 
ATOM     32  H   UNL     1      52.011   7.484  17.615  0.00  0.00    +0.000 HD
ENDBRANCH  20  22
ENDBRANCH  19  20
ENDBRANCH  18  19
ENDBRANCH   4  18
TORSDOF 7
ENDMDL
MODEL 5
REMARK VINA RESULT:    -7.121      1.615      2.063
REMARK INTER + INTRA:         -11.319
REMARK INTER:                 -10.257
REMARK INTRA:                  -1.061
REMARK UNBOUND:                -1.284
REMARK  Name = 
REMARK  7 active torsions:
REMARK  status: ('A' for Active; 'I' for Inactive)
REMARK    1  A    between atoms: C_2  and  C_25
REMARK    2  A    between atoms: N_3  and  C_4
REMARK    3  A    between atoms: C_4  and  C_5
REMARK    4  A    between atoms: C_8  and  C_9
REMARK    5  A    between atoms: C_9  and  C_10
REMARK    6  A    between atoms: C_10  and  C_11
REMARK    7  A    between atoms: C_11  and  C_13
REMARK                            x       y       z     vdW  Elec       q    Type
REMARK                         _______ _______ _______ _____ _____    ______ ____
ROOT
ATOM      1  C   UNL     1      45.077   6.156  11.489  0.00  0.00    +0.000 A 
ATOM      2  C   UNL     1      44.842   7.535  11.441  0.00  0.00    +0.000 A 
ATOM      3  C   UNL     1      45.560   8.408  12.265  0.00  0.00    +0.000 A 
ATOM      4  C   UNL     1      46.528   7.921  13.154  0.00  0.00    +0.000 A 
ATOM      5  C   UNL     1      46.767   6.542  13.196  0.00  0.00    +0.000 A 
ATOM      6  C   UNL     1      46.054   5.669  12.367  0.00  0.00    +0.000 A 
ENDROOT
BRANCH   1   7
ATOM      7  C   UNL     1      44.270   5.211  10.641  0.00  0.00    +0.000 C 
BRANCH   7  10
ATOM      8  O   UNL     1      44.390   2.527  10.013  0.00  0.00    +0.000 OA
ATOM      9  C   UNL     1      44.998   3.313   9.296  0.00  0.00    +0.000 C 
ATOM     10  N   UNL     1      44.994   4.678   9.515  0.00  0.00    +0.000 N 
ATOM     11  H   UNL     1      45.551   5.269   8.905  0.00  0.00    +0.000 HD
BRANCH   9  12
ATOM     12  C   UNL     1      45.801   2.821   8.134  0.00  0.00    +0.000 A 
ATOM     13  C   UNL     1      46.293   1.517   8.171  0.00  0.00    +0.000 A 
ATOM     14  C   UNL     1      47.047   1.062   7.097  0.00  0.00    +0.000 A 
ATOM     15  C   UNL     1      47.283   1.917   6.027  0.00  0.00    +0.000 A 
ATOM     16  C   UNL     1      46.750   3.199   6.072  0.00  0.00    +0.000 A 
ATOM     17  N   UNL     1      46.011   3.680   7.099  0.00  0.00    +0.000 NA
ENDBRANCH   9  12
ENDBRANCH   7  10
ENDBRANCH   1   7
BRANCH   4  18
ATOM     18  C   UNL     1      47.299   8.863  14.054  0.00  0.00    +0.000 C 
BRANCH  18  19
ATOM     19  C   UNL     1      48.784   8.508  14.099  0.00  0.00    +0.000 C 
BRANCH  19  20
ATOM     20  C   UNL     1      49.483   8.982  15.358  0.00  0.00    +0.000 C 
ATOM     21  O   UNL     1      50.503   9.667  15.286  0.00  0.00    +0.000 OA
BRANCH  20  22
ATOM     22  C   UNL     1      48.886   8.690  16.677  0.00  0.00    +0.000 A 
ATOM     23  C   UNL     1      48.536   9.742  17.515  0.00  0.00    +0.000 A 
ATOM     24  S   UNL     1      47.789   9.243  18.964  0.00  0.00    +0.000 S 
ATOM     25  C   UNL     1      47.943   7.602  18.543  0.00  0.00    +0.000 A 
ATOM     26  N   UNL     1      47.487   6.630  19.378  0.00  0.00    +0.000 NA
ATOM     27  C   UNL     1      47.667   5.426  18.945  0.00  0.00    +0.000 A 
ATOM     28  N   UNL     1      48.265   5.109  17.760  0.00  0.00    +0.000 N 
ATOM     29  C   UNL     1      48.814   6.054  16.923  0.00  0.00    +0.000 A 
ATOM     30  O   UNL     1      49.484   5.702  15.960  0.00  0.00    +0.000 OA
ATOM     31  C   UNL     1      48.571   7.430  17.320  0.00  0.00    +0.000 A 
ATOM     32  H   UNL     1      48.429   4.148  17.499  0.00  0.00    +0.000 HD
ENDBRANCH  20  22
ENDBRANCH  19  20
ENDBRANCH  18  19
ENDBRANCH   4  18
TORSDOF 7
ENDMDL
MODEL 6
REMARK VINA RESULT:    -6.854      5.380      9.743
REMARK INTER + INTRA:         -10.943
REMARK INTER:                 -10.101
REMARK INTRA:                  -0.842
REMARK UNBOUND:                -1.284
REMARK  Name = 
REMARK  7 active torsions:
REMARK  status: ('A' for Active; 'I' for Inactive)
REMARK    1  A    between atoms: C_2  and  C_25
REMARK    2  A    between atoms: N_3  and  C_4
REMARK    3  A    between atoms: C_4  and  C_5
REMARK    4  A    between atoms: C_8  and  C_9
REMARK    5  A    between atoms: C_9  and  C_10
REMARK    6  A    between atoms: C_10  and  C_11
REMARK    7  A    between atoms: C_11  and  C_13
REMARK                            x       y       z     vdW  Elec       q    Type
REMARK                         _______ _______ _______ _____ _____    ______ ____
ROOT
ATOM      1  C   UNL     1      51.586   2.782  17.773  0.00  0.00    +0.000 A 
ATOM      2  C   UNL     1      50.926   3.969  18.115  0.00  0.00    +0.000 A 
ATOM      3  C   UNL     1      49.580   4.155  17.788  0.00  0.00    +0.000 A 
ATOM      4  C   UNL     1      48.863   3.159  17.111  0.00  0.00    +0.000 A 
ATOM      5  C   UNL     1      49.521   1.970  16.774  0.00  0.00    +0.000 A 
ATOM      6  C   UNL     1      50.867   1.780  17.108  0.00  0.00    +0.000 A 
ENDROOT
BRANCH   1   7
ATOM      7  C   UNL     1      53.047   2.602  18.079  0.00  0.00    +0.000 C 
BRANCH   7  10
ATOM      8  O   UNL     1      54.643   0.818  16.707  0.00  0.00    +0.000 OA
ATOM      9  C   UNL     1      54.182   0.465  17.786  0.00  0.00    +0.000 C 
ATOM     10  N   UNL     1      53.382   1.285  18.559  0.00  0.00    +0.000 N 
ATOM     11  H   UNL     1      53.002   0.915  19.425  0.00  0.00    +0.000 HD
BRANCH   9  12
ATOM     12  C   UNL     1      54.459  -0.904  18.322  0.00  0.00    +0.000 A 
ATOM     13  C   UNL     1      54.937  -1.876  17.446  0.00  0.00    +0.000 A 
ATOM     14  C   UNL     1      55.185  -3.151  17.940  0.00  0.00    +0.000 A 
ATOM     15  C   UNL     1      54.952  -3.411  19.286  0.00  0.00    +0.000 A 
ATOM     16  C   UNL     1      54.480  -2.379  20.087  0.00  0.00    +0.000 A 
ATOM     17  N   UNL     1      54.225  -1.126  19.645  0.00  0.00    +0.000 NA
ENDBRANCH   9  12
ENDBRANCH   7  10
ENDBRANCH   1   7
BRANCH   4  18
ATOM     18  C   UNL     1      47.408   3.363  16.746  0.00  0.00    +0.000 C 
BRANCH  18  19
ATOM     19  C   UNL     1      47.212   4.619  15.898  0.00  0.00    +0.000 C 
BRANCH  19  20
ATOM     20  C   UNL     1      46.972   4.328  14.430  0.00  0.00    +0.000 C 
ATOM     21  O   UNL     1      47.184   3.205  13.973  0.00  0.00    +0.000 OA
BRANCH  20  22
ATOM     22  C   UNL     1      46.399   5.377  13.563  0.00  0.00    +0.000 A 
ATOM     23  C   UNL     1      47.134   6.530  13.309  0.00  0.00    +0.000 A 
ATOM     24  S   UNL     1      46.369   7.605  12.231  0.00  0.00    +0.000 S 
ATOM     25  C   UNL     1      45.010   6.591  12.095  0.00  0.00    +0.000 A 
ATOM     26  N   UNL     1      43.963   6.942  11.301  0.00  0.00    +0.000 NA
ATOM     27  C   UNL     1      42.992   6.089  11.288  0.00  0.00    +0.000 A 
ATOM     28  N   UNL     1      42.973   4.924  12.000  0.00  0.00    +0.000 N 
ATOM     29  C   UNL     1      43.971   4.570  12.879  0.00  0.00    +0.000 A 
ATOM     30  O   UNL     1      43.822   3.601  13.614  0.00  0.00    +0.000 OA
ATOM     31  C   UNL     1      45.126   5.451  12.875  0.00  0.00    +0.000 A 
ATOM     32  H   UNL     1      42.163   4.323  11.995  0.00  0.00    +0.000 HD
ENDBRANCH  20  22
ENDBRANCH  19  20
ENDBRANCH  18  19
ENDBRANCH   4  18
TORSDOF 7
ENDMDL
MODEL 7
REMARK VINA RESULT:    -6.731      2.532      3.056
REMARK INTER + INTRA:         -10.769
REMARK INTER:                  -9.936
REMARK INTRA:                  -0.833
REMARK UNBOUND:                -1.284
REMARK  Name = 
REMARK  7 active torsions:
REMARK  status: ('A' for Active; 'I' for Inactive)
REMARK    1  A    between atoms: C_2  and  C_25
REMARK    2  A    between atoms: N_3  and  C_4
REMARK    3  A    between atoms: C_4  and  C_5
REMARK    4  A    between atoms: C_8  and  C_9
REMARK    5  A    between atoms: C_9  and  C_10
REMARK    6  A    between atoms: C_10  and  C_11
REMARK    7  A    between atoms: C_11  and  C_13
REMARK                            x       y       z     vdW  Elec       q    Type
REMARK                         _______ _______ _______ _____ _____    ______ ____
ROOT
ATOM      1  C   UNL     1      45.508   5.388  11.625  0.00  0.00    +0.000 A 
ATOM      2  C   UNL     1      46.393   6.447  11.862  0.00  0.00    +0.000 A 
ATOM      3  C   UNL     1      47.106   6.523  13.063  0.00  0.00    +0.000 A 
ATOM      4  C   UNL     1      46.950   5.543  14.053  0.00  0.00    +0.000 A 
ATOM      5  C   UNL     1      46.069   4.481  13.812  0.00  0.00    +0.000 A 
ATOM      6  C   UNL     1      45.361   4.400  12.607  0.00  0.00    +0.000 A 
ENDROOT
BRANCH   1   7
ATOM      7  C   UNL     1      44.703   5.332  10.356  0.00  0.00    +0.000 C 
BRANCH   7  10
ATOM      8  O   UNL     1      44.557   2.642   9.762  0.00  0.00    +0.000 OA
ATOM      9  C   UNL     1      45.262   3.350   9.053  0.00  0.00    +0.000 C 
ATOM     10  N   UNL     1      45.395   4.711   9.255  0.00  0.00    +0.000 N 
ATOM     11  H   UNL     1      46.027   5.231   8.654  0.00  0.00    +0.000 HD
BRANCH   9  12
ATOM     12  C   UNL     1      46.039   2.759   7.919  0.00  0.00    +0.000 A 
ATOM     13  C   UNL     1      46.222   3.526   6.770  0.00  0.00    +0.000 A 
ATOM     14  C   UNL     1      46.936   2.975   5.712  0.00  0.00    +0.000 A 
ATOM     15  C   UNL     1      47.441   1.686   5.837  0.00  0.00    +0.000 A 
ATOM     16  C   UNL     1      47.214   0.997   7.021  0.00  0.00    +0.000 A 
ATOM     17  N   UNL     1      46.524   1.497   8.073  0.00  0.00    +0.000 NA
ENDBRANCH   9  12
ENDBRANCH   7  10
ENDBRANCH   1   7
BRANCH   4  18
ATOM     18  C   UNL     1      47.712   5.630  15.358  0.00  0.00    +0.000 C 
BRANCH  18  19
ATOM     19  C   UNL     1      49.008   6.424  15.199  0.00  0.00    +0.000 C 
BRANCH  19  20
ATOM     20  C   UNL     1      49.740   6.657  16.506  0.00  0.00    +0.000 C 
ATOM     21  O   UNL     1      49.154   7.149  17.470  0.00  0.00    +0.000 OA
BRANCH  20  22
ATOM     22  C   UNL     1      51.140   6.213  16.647  0.00  0.00    +0.000 A 
ATOM     23  C   UNL     1      52.161   6.992  16.115  0.00  0.00    +0.000 A 
ATOM     24  S   UNL     1      53.722   6.384  16.429  0.00  0.00    +0.000 S 
ATOM     25  C   UNL     1      53.091   5.035  17.253  0.00  0.00    +0.000 A 
ATOM     26  N   UNL     1      53.923   4.101  17.785  0.00  0.00    +0.000 NA
ATOM     27  C   UNL     1      53.320   3.125  18.380  0.00  0.00    +0.000 A 
ATOM     28  N   UNL     1      51.964   2.998  18.484  0.00  0.00    +0.000 N 
ATOM     29  C   UNL     1      51.084   3.875  17.890  0.00  0.00    +0.000 A 
ATOM     30  O   UNL     1      49.887   3.620  17.874  0.00  0.00    +0.000 OA
ATOM     31  C   UNL     1      51.706   5.035  17.276  0.00  0.00    +0.000 A 
ATOM     32  H   UNL     1      51.548   2.186  18.912  0.00  0.00    +0.000 HD
ENDBRANCH  20  22
ENDBRANCH  19  20
ENDBRANCH  18  19
ENDBRANCH   4  18
TORSDOF 7
ENDMDL
MODEL 8
REMARK VINA RESULT:    -6.708      1.669      2.322
REMARK INTER + INTRA:         -10.737
REMARK INTER:                 -10.085
REMARK INTRA:                  -0.652
REMARK UNBOUND:                -1.284
REMARK  Name = 
REMARK  7 active torsions:
REMARK  status: ('A' for Active; 'I' for Inactive)
REMARK    1  A    between atoms: C_2  and  C_25
REMARK    2  A    between atoms: N_3  and  C_4
REMARK    3  A    between atoms: C_4  and  C_5
REMARK    4  A    between atoms: C_8  and  C_9
REMARK    5  A    between atoms: C_9  and  C_10
REMARK    6  A    between atoms: C_10  and  C_11
REMARK    7  A    between atoms: C_11  and  C_13
REMARK                            x       y       z     vdW  Elec       q    Type
REMARK                         _______ _______ _______ _____ _____    ______ ____
ROOT
ATOM      1  C   UNL     1      45.296   6.570  11.505  0.00  0.00    +0.000 A 
ATOM      2  C   UNL     1      46.602   6.144  11.775  0.00  0.00    +0.000 A 
ATOM      3  C   UNL     1      47.460   6.927  12.553  0.00  0.00    +0.000 A 
ATOM      4  C   UNL     1      47.031   8.153  13.080  0.00  0.00    +0.000 A 
ATOM      5  C   UNL     1      45.723   8.576  12.815  0.00  0.00    +0.000 A 
ATOM      6  C   UNL     1      44.862   7.789  12.042  0.00  0.00    +0.000 A 
ENDROOT
BRANCH   1   7
ATOM      7  C   UNL     1      44.390   5.754  10.625  0.00  0.00    +0.000 C 
BRANCH   7  10
ATOM      8  O   UNL     1      44.175   3.023  10.296  0.00  0.00    +0.000 OA
ATOM      9  C   UNL     1      44.915   3.637   9.538  0.00  0.00    +0.000 C 
ATOM     10  N   UNL     1      45.086   5.007   9.608  0.00  0.00    +0.000 N 
ATOM     11  H   UNL     1      45.746   5.447   8.974  0.00  0.00    +0.000 HD
BRANCH   9  12
ATOM     12  C   UNL     1      45.697   2.915   8.486  0.00  0.00    +0.000 A 
ATOM     13  C   UNL     1      46.143   3.635   7.379  0.00  0.00    +0.000 A 
ATOM     14  C   UNL     1      46.861   2.964   6.397  0.00  0.00    +0.000 A 
ATOM     15  C   UNL     1      47.112   1.605   6.552  0.00  0.00    +0.000 A 
ATOM     16  C   UNL     1      46.634   0.970   7.691  0.00  0.00    +0.000 A 
ATOM     17  N   UNL     1      45.930   1.587   8.669  0.00  0.00    +0.000 NA
ENDBRANCH   9  12
ENDBRANCH   7  10
ENDBRANCH   1   7
BRANCH   4  18
ATOM     18  C   UNL     1      47.962   9.007  13.914  0.00  0.00    +0.000 C 
BRANCH  18  19
ATOM     19  C   UNL     1      48.290   8.341  15.250  0.00  0.00    +0.000 C 
BRANCH  19  20
ATOM     20  C   UNL     1      49.512   7.447  15.197  0.00  0.00    +0.000 C 
ATOM     21  O   UNL     1      50.451   7.716  14.448  0.00  0.00    +0.000 OA
BRANCH  20  22
ATOM     22  C   UNL     1      49.612   6.293  16.112  0.00  0.00    +0.000 A 
ATOM     23  C   UNL     1      48.469   5.558  16.411  0.00  0.00    +0.000 A 
ATOM     24  S   UNL     1      48.764   4.215  17.418  0.00  0.00    +0.000 S 
ATOM     25  C   UNL     1      50.420   4.587  17.525  0.00  0.00    +0.000 A 
ATOM     26  N   UNL     1      51.258   3.805  18.257  0.00  0.00    +0.000 NA
ATOM     27  C   UNL     1      52.489   4.197  18.261  0.00  0.00    +0.000 A 
ATOM     28  N   UNL     1      52.954   5.301  17.606  0.00  0.00    +0.000 N 
ATOM     29  C   UNL     1      52.130   6.166  16.922  0.00  0.00    +0.000 A 
ATOM     30  O   UNL     1      52.575   7.226  16.498  0.00  0.00    +0.000 OA
ATOM     31  C   UNL     1      50.747   5.732  16.817  0.00  0.00    +0.000 A 
ATOM     32  H   UNL     1      53.916   5.591  17.691  0.00  0.00    +0.000 HD
ENDBRANCH  20  22
ENDBRANCH  19  20
ENDBRANCH  18  19
ENDBRANCH   4  18
TORSDOF 7
ENDMDL
MODEL 9
REMARK VINA RESULT:    -6.424      3.312      4.580
REMARK INTER + INTRA:         -10.336
REMARK INTER:                  -8.686
REMARK INTRA:                  -1.651
REMARK UNBOUND:                -1.284
REMARK  Name = 
REMARK  7 active torsions:
REMARK  status: ('A' for Active; 'I' for Inactive)
REMARK    1  A    between atoms: C_2  and  C_25
REMARK    2  A    between atoms: N_3  and  C_4
REMARK    3  A    between atoms: C_4  and  C_5
REMARK    4  A    between atoms: C_8  and  C_9
REMARK    5  A    between atoms: C_9  and  C_10
REMARK    6  A    between atoms: C_10  and  C_11
REMARK    7  A    between atoms: C_11  and  C_13
REMARK                            x       y       z     vdW  Elec       q    Type
REMARK                         _______ _______ _______ _____ _____    ______ ____
ROOT
ATOM      1  C   UNL     1      48.473   7.917  14.074  0.00  0.00    +0.000 A 
ATOM      2  C   UNL     1      47.929   8.882  14.930  0.00  0.00    +0.000 A 
ATOM      3  C   UNL     1      48.324   8.950  16.269  0.00  0.00    +0.000 A 
ATOM      4  C   UNL     1      49.271   8.053  16.783  0.00  0.00    +0.000 A 
ATOM      5  C   UNL     1      49.820   7.092  15.925  0.00  0.00    +0.000 A 
ATOM      6  C   UNL     1      49.430   7.030  14.582  0.00  0.00    +0.000 A 
ENDROOT
BRANCH   1   7
ATOM      7  C   UNL     1      48.011   7.811  12.646  0.00  0.00    +0.000 C 
BRANCH   7  10
ATOM      8  O   UNL     1      45.256   7.950  12.622  0.00  0.00    +0.000 OA
ATOM      9  C   UNL     1      45.778   6.861  12.419  0.00  0.00    +0.000 C 
ATOM     10  N   UNL     1      47.149   6.684  12.397  0.00  0.00    +0.000 N 
ATOM     11  H   UNL     1      47.515   5.746  12.262  0.00  0.00    +0.000 HD
BRANCH   9  12
ATOM     12  C   UNL     1      44.939   5.643  12.193  0.00  0.00    +0.000 A 
ATOM     13  C   UNL     1      45.500   4.393  12.449  0.00  0.00    +0.000 A 
ATOM     14  C   UNL     1      44.725   3.261  12.231  0.00  0.00    +0.000 A 
ATOM     15  C   UNL     1      43.422   3.413  11.770  0.00  0.00    +0.000 A 
ATOM     16  C   UNL     1      42.944   4.698  11.546  0.00  0.00    +0.000 A 
ATOM     17  N   UNL     1      43.666   5.825  11.746  0.00  0.00    +0.000 NA
ENDBRANCH   9  12
ENDBRANCH   7  10
ENDBRANCH   1   7
BRANCH   4  18
ATOM     18  C   UNL     1      49.692   8.117  18.236  0.00  0.00    +0.000 C 
BRANCH  18  19
ATOM     19  C   UNL     1      48.655   7.465  19.150  0.00  0.00    +0.000 C 
BRANCH  19  20
ATOM     20  C   UNL     1      49.139   6.183  19.797  0.00  0.00    +0.000 C 
ATOM     21  O   UNL     1      48.969   5.987  21.000  0.00  0.00    +0.000 OA
BRANCH  20  22
ATOM     22  C   UNL     1      49.742   5.126  18.960  0.00  0.00    +0.000 A 
ATOM     23  C   UNL     1      51.121   4.948  18.973  0.00  0.00    +0.000 A 
ATOM     24  S   UNL     1      51.651   3.641  18.016  0.00  0.00    +0.000 S 
ATOM     25  C   UNL     1      50.063   3.289  17.518  0.00  0.00    +0.000 A 
ATOM     26  N   UNL     1      49.820   2.254  16.670  0.00  0.00    +0.000 NA
ATOM     27  C   UNL     1      48.574   2.094  16.365  0.00  0.00    +0.000 A 
ATOM     28  N   UNL     1      47.556   2.878  16.826  0.00  0.00    +0.000 N 
ATOM     29  C   UNL     1      47.764   3.985  17.618  0.00  0.00    +0.000 A 
ATOM     30  O   UNL     1      46.835   4.745  17.862  0.00  0.00    +0.000 OA
ATOM     31  C   UNL     1      49.137   4.166  18.058  0.00  0.00    +0.000 A 
ATOM     32  H   UNL     1      46.608   2.741  16.510  0.00  0.00    +0.000 HD
ENDBRANCH  20  22
ENDBRANCH  19  20
ENDBRANCH  18  19
ENDBRANCH   4  18
TORSDOF 7
ENDMDL
