MODEL 1
REMARK VINA RESULT:    -8.088      0.000      0.000
REMARK INTER + INTRA:         -12.194
REMARK INTER:                 -10.925
REMARK INTRA:                  -1.269
REMARK UNBOUND:                -1.269
REMARK  Name = 
REMARK  7 active torsions:
REMARK  status: ('A' for Active; 'I' for Inactive)
REMARK    1  A    between atoms: C_1  and  O_2
REMARK    2  A    between atoms: O_2  and  C_3
REMARK    3  A    between atoms: C_5  and  C_6
REMARK    4  A    between atoms: C_6  and  N_7
REMARK    5  A    between atoms: C_8  and  C_10
REMARK    6  A    between atoms: C_22  and  C_23
REMARK    7  A    between atoms: C_23  and  N_24
REMARK                            x       y       z     vdW  Elec       q    Type
REMARK                         _______ _______ _______ _____ _____    ______ ____
ROOT
ATOM      1  C   UNL     1      45.258   6.442  12.127  0.00  0.00    +0.000 A 
ATOM      2  C   UNL     1      46.392   6.805  12.881  0.00  0.00    +0.000 A 
ATOM      3  C   UNL     1      47.119   5.858  13.620  0.00  0.00    +0.000 A 
ATOM      4  C   UNL     1      46.684   4.535  13.619  0.00  0.00    +0.000 A 
ATOM      5  C   UNL     1      45.581   4.165  12.855  0.00  0.00    +0.000 A 
ATOM      6  C   UNL     1      44.852   5.099  12.087  0.00  0.00    +0.000 A 
ENDROOT
BRANCH   1   8
ATOM      7  C   UNL     1      45.093   8.793  11.801  0.00  0.00    +0.000 C 
ATOM      8  O   UNL     1      44.737   7.478  11.393  0.00  0.00    +0.000 OA
ENDBRANCH   1   8
BRANCH   3   9
ATOM      9  C   UNL     1      48.336   6.234  14.419  0.00  0.00    +0.000 C 
BRANCH   9  10
ATOM     10  N   UNL     1      48.021   6.402  15.814  0.00  0.00    +0.000 N 
ATOM     11  C   UNL     1      48.866   6.019  16.825  0.00  0.00    +0.000 C 
ATOM     12  O   UNL     1      49.969   5.524  16.610  0.00  0.00    +0.000 OA
ATOM     13  H   UNL     1      47.054   6.619  16.026  0.00  0.00    +0.000 HD
BRANCH  11  14
ATOM     14  C   UNL     1      48.406   6.303  18.194  0.00  0.00    +0.000 A 
ATOM     15  C   UNL     1      48.330   5.266  19.117  0.00  0.00    +0.000 A 
ATOM     16  S   UNL     1      47.836   5.762  20.672  0.00  0.00    +0.000 S 
ATOM     17  C   UNL     1      47.656   7.374  20.159  0.00  0.00    +0.000 A 
ATOM     18  N   UNL     1      47.227   8.335  21.021  0.00  0.00    +0.000 NA
ATOM     19  C   UNL     1      47.095   9.506  20.493  0.00  0.00    +0.000 A 
ATOM     20  N   UNL     1      47.361   9.804  19.182  0.00  0.00    +0.000 N 
ATOM     21  C   UNL     1      47.856   8.880  18.293  0.00  0.00    +0.000 A 
ATOM     22  O   UNL     1      48.183   9.209  17.156  0.00  0.00    +0.000 OA
ATOM     23  C   UNL     1      47.987   7.535  18.824  0.00  0.00    +0.000 A 
ATOM     24  H   UNL     1      47.256  10.745  18.833  0.00  0.00    +0.000 HD
ENDBRANCH  11  14
ENDBRANCH   9  10
ENDBRANCH   3   9
BRANCH   6  25
ATOM     25  C   UNL     1      43.719   4.549  11.250  0.00  0.00    +0.000 C 
BRANCH  25  26
ATOM     26  N   UNL     1      43.927   4.774   9.834  0.00  0.00    +0.000 N 
ATOM     27  C   UNL     1      44.729   3.893   9.139  0.00  0.00    +0.000 A 
ATOM     28  N   UNL     1      44.938   2.649   9.586  0.00  0.00    +0.000 NA
ATOM     29  C   UNL     1      45.688   1.827   8.823  0.00  0.00    +0.000 A 
ATOM     30  C   UNL     1      46.260   2.210   7.636  0.00  0.00    +0.000 A 
ATOM     31 CL   UNL     1      47.201   1.149   6.688  0.00  0.00    +0.000 Cl
ATOM     32  C   UNL     1      46.019   3.511   7.274  0.00  0.00    +0.000 A 
ATOM     33  N   UNL     1      45.269   4.370   8.007  0.00  0.00    +0.000 NA
ATOM     34  H   UNL     1      44.199   5.709   9.560  0.00  0.00    +0.000 HD
ENDBRANCH  25  26
ENDBRANCH   6  25
TORSDOF 6
ENDMDL
MODEL 2
REMARK VINA RESULT:    -8.052      1.817      2.863
REMARK INTER + INTRA:         -12.145
REMARK INTER:                 -11.100
REMARK INTRA:                  -1.046
REMARK UNBOUND:                -1.269
REMARK  Name = 
REMARK  7 active torsions:
REMARK  status: ('A' for Active; 'I' for Inactive)
REMARK    1  A    between atoms: C_1  and  O_2
REMARK    2  A    between atoms: O_2  and  C_3
REMARK    3  A    between atoms: C_5  and  C_6
REMARK    4  A    between atoms: C_6  and  N_7
REMARK    5  A    between atoms: C_8  and  C_10
REMARK    6  A    between atoms: C_22  and  C_23
REMARK    7  A    between atoms: C_23  and  N_24
REMARK                            x       y       z     vdW  Elec       q    Type
REMARK                         _______ _______ _______ _____ _____    ______ ____
ROOT
ATOM      1  C   UNL     1      45.702   5.072  12.573  0.00  0.00    +0.000 A 
ATOM      2  C   UNL     1      46.691   5.846  13.213  0.00  0.00    +0.000 A 
ATOM      3  C   UNL     1      46.822   7.223  12.967  0.00  0.00    +0.000 A 
ATOM      4  C   UNL     1      45.964   7.820  12.049  0.00  0.00    +0.000 A 
ATOM      5  C   UNL     1      44.968   7.068  11.433  0.00  0.00    +0.000 A 
ATOM      6  C   UNL     1      44.805   5.689  11.685  0.00  0.00    +0.000 A 
ENDROOT
BRANCH   1   8
ATOM      7  C   UNL     1      46.795   3.301  13.724  0.00  0.00    +0.000 C 
ATOM      8  O   UNL     1      45.659   3.773  13.010  0.00  0.00    +0.000 OA
ENDBRANCH   1   8
BRANCH   3   9
ATOM      9  C   UNL     1      47.867   8.058  13.654  0.00  0.00    +0.000 C 
BRANCH   9  10
ATOM     10  N   UNL     1      47.871   7.832  15.077  0.00  0.00    +0.000 N 
ATOM     11  C   UNL     1      48.887   7.180  15.729  0.00  0.00    +0.000 C 
ATOM     12  O   UNL     1      49.884   6.762  15.146  0.00  0.00    +0.000 OA
ATOM     13  H   UNL     1      46.989   7.984  15.552  0.00  0.00    +0.000 HD
BRANCH  11  14
ATOM     14  C   UNL     1      48.753   7.073  17.191  0.00  0.00    +0.000 A 
ATOM     15  C   UNL     1      48.552   8.225  17.944  0.00  0.00    +0.000 A 
ATOM     16  S   UNL     1      48.360   7.933  19.612  0.00  0.00    +0.000 S 
ATOM     17  C   UNL     1      48.589   6.260  19.400  0.00  0.00    +0.000 A 
ATOM     18  N   UNL     1      48.566   5.413  20.465  0.00  0.00    +0.000 NA
ATOM     19  C   UNL     1      48.793   4.177  20.170  0.00  0.00    +0.000 A 
ATOM     20  N   UNL     1      49.033   3.709  18.904  0.00  0.00    +0.000 N 
ATOM     21  C   UNL     1      49.002   4.517  17.793  0.00  0.00    +0.000 A 
ATOM     22  O   UNL     1      49.116   4.046  16.665  0.00  0.00    +0.000 OA
ATOM     23  C   UNL     1      48.789   5.926  18.071  0.00  0.00    +0.000 A 
ATOM     24  H   UNL     1      49.186   2.727  18.735  0.00  0.00    +0.000 HD
ENDBRANCH  11  14
ENDBRANCH   9  10
ENDBRANCH   3   9
BRANCH   6  25
ATOM     25  C   UNL     1      43.639   5.008  11.003  0.00  0.00    +0.000 C 
BRANCH  25  26
ATOM     26  N   UNL     1      43.815   4.933   9.567  0.00  0.00    +0.000 N 
ATOM     27  C   UNL     1      44.617   3.934   9.054  0.00  0.00    +0.000 A 
ATOM     28  N   UNL     1      44.856   2.815   9.747  0.00  0.00    +0.000 NA
ATOM     29  C   UNL     1      45.604   1.859   9.157  0.00  0.00    +0.000 A 
ATOM     30  C   UNL     1      46.145   1.991   7.903  0.00  0.00    +0.000 A 
ATOM     31 CL   UNL     1      47.084   0.765   7.177  0.00  0.00    +0.000 Cl
ATOM     32  C   UNL     1      45.875   3.184   7.282  0.00  0.00    +0.000 A 
ATOM     33  N   UNL     1      45.126   4.169   7.835  0.00  0.00    +0.000 NA
ATOM     34  H   UNL     1      44.066   5.792   9.097  0.00  0.00    +0.000 HD
ENDBRANCH  25  26
ENDBRANCH   6  25
TORSDOF 6
ENDMDL
MODEL 3
REMARK VINA RESULT:    -7.921      1.323      2.178
REMARK INTER + INTRA:         -11.968
REMARK INTER:                 -10.773
REMARK INTRA:                  -1.195
REMARK UNBOUND:                -1.269
REMARK  Name = 
REMARK  7 active torsions:
REMARK  status: ('A' for Active; 'I' for Inactive)
REMARK    1  A    between atoms: C_1  and  O_2
REMARK    2  A    between atoms: O_2  and  C_3
REMARK    3  A    between atoms: C_5  and  C_6
REMARK    4  A    between atoms: C_6  and  N_7
REMARK    5  A    between atoms: C_8  and  C_10
REMARK    6  A    between atoms: C_22  and  C_23
REMARK    7  A    between atoms: C_23  and  N_24
REMARK                            x       y       z     vdW  Elec       q    Type
REMARK                         _______ _______ _______ _____ _____    ______ ____
ROOT
ATOM      1  C   UNL     1      45.154   6.620  12.145  0.00  0.00    +0.000 A 
ATOM      2  C   UNL     1      46.318   7.048  12.814  0.00  0.00    +0.000 A 
ATOM      3  C   UNL     1      47.167   6.142  13.470  0.00  0.00    +0.000 A 
ATOM      4  C   UNL     1      46.825   4.793  13.473  0.00  0.00    +0.000 A 
ATOM      5  C   UNL     1      45.691   4.359  12.792  0.00  0.00    +0.000 A 
ATOM      6  C   UNL     1      44.840   5.252  12.107  0.00  0.00    +0.000 A 
ENDROOT
BRANCH   1   8
ATOM      7  C   UNL     1      45.001   8.947  11.676  0.00  0.00    +0.000 C 
ATOM      8  O   UNL     1      44.505   7.629  11.479  0.00  0.00    +0.000 OA
ENDBRANCH   1   8
BRANCH   3   9
ATOM      9  C   UNL     1      48.417   6.589  14.176  0.00  0.00    +0.000 C 
BRANCH   9  10
ATOM     10  N   UNL     1      48.247   6.576  15.607  0.00  0.00    +0.000 N 
ATOM     11  C   UNL     1      48.857   7.478  16.442  0.00  0.00    +0.000 C 
ATOM     12  O   UNL     1      49.576   8.383  16.024  0.00  0.00    +0.000 OA
ATOM     13  H   UNL     1      47.830   5.739  15.996  0.00  0.00    +0.000 HD
BRANCH  11  14
ATOM     14  C   UNL     1      48.542   7.349  17.874  0.00  0.00    +0.000 A 
ATOM     15  C   UNL     1      48.059   8.453  18.568  0.00  0.00    +0.000 A 
ATOM     16  S   UNL     1      47.688   8.131  20.201  0.00  0.00    +0.000 S 
ATOM     17  C   UNL     1      48.205   6.517  20.056  0.00  0.00    +0.000 A 
ATOM     18  N   UNL     1      48.170   5.676  21.126  0.00  0.00    +0.000 NA
ATOM     19  C   UNL     1      48.629   4.493  20.890  0.00  0.00    +0.000 A 
ATOM     20  N   UNL     1      49.112   4.071  19.678  0.00  0.00    +0.000 N 
ATOM     21  C   UNL     1      49.107   4.865  18.557  0.00  0.00    +0.000 A 
ATOM     22  O   UNL     1      49.449   4.419  17.465  0.00  0.00    +0.000 OA
ATOM     23  C   UNL     1      48.637   6.222  18.775  0.00  0.00    +0.000 A 
ATOM     24  H   UNL     1      49.440   3.126  19.552  0.00  0.00    +0.000 HD
ENDBRANCH  11  14
ENDBRANCH   9  10
ENDBRANCH   3   9
BRANCH   6  25
ATOM     25  C   UNL     1      43.682   4.639  11.351  0.00  0.00    +0.000 C 
BRANCH  25  26
ATOM     26  N   UNL     1      43.819   4.799   9.918  0.00  0.00    +0.000 N 
ATOM     27  C   UNL     1      44.625   3.914   9.232  0.00  0.00    +0.000 A 
ATOM     28  N   UNL     1      44.902   2.703   9.729  0.00  0.00    +0.000 NA
ATOM     29  C   UNL     1      45.651   1.872   8.974  0.00  0.00    +0.000 A 
ATOM     30  C   UNL     1      46.155   2.215   7.746  0.00  0.00    +0.000 A 
ATOM     31 CL   UNL     1      47.095   1.143   6.810  0.00  0.00    +0.000 Cl
ATOM     32  C   UNL     1      45.847   3.486   7.331  0.00  0.00    +0.000 A 
ATOM     33  N   UNL     1      45.096   4.353   8.054  0.00  0.00    +0.000 NA
ATOM     34  H   UNL     1      44.043   5.728   9.587  0.00  0.00    +0.000 HD
ENDBRANCH  25  26
ENDBRANCH   6  25
TORSDOF 6
ENDMDL
MODEL 4
REMARK VINA RESULT:    -7.733      2.115      2.855
REMARK INTER + INTRA:         -11.715
REMARK INTER:                 -10.733
REMARK INTRA:                  -0.982
REMARK UNBOUND:                -1.269
REMARK  Name = 
REMARK  7 active torsions:
REMARK  status: ('A' for Active; 'I' for Inactive)
REMARK    1  A    between atoms: C_1  and  O_2
REMARK    2  A    between atoms: O_2  and  C_3
REMARK    3  A    between atoms: C_5  and  C_6
REMARK    4  A    between atoms: C_6  and  N_7
REMARK    5  A    between atoms: C_8  and  C_10
REMARK    6  A    between atoms: C_22  and  C_23
REMARK    7  A    between atoms: C_23  and  N_24
REMARK                            x       y       z     vdW  Elec       q    Type
REMARK                         _______ _______ _______ _____ _____    ______ ____
ROOT
ATOM      1  C   UNL     1      44.453   7.520  11.614  0.00  0.00    +0.000 A 
ATOM      2  C   UNL     1      45.401   8.273  12.335  0.00  0.00    +0.000 A 
ATOM      3  C   UNL     1      46.513   7.669  12.944  0.00  0.00    +0.000 A 
ATOM      4  C   UNL     1      46.657   6.288  12.845  0.00  0.00    +0.000 A 
ATOM      5  C   UNL     1      45.739   5.541  12.112  0.00  0.00    +0.000 A 
ATOM      6  C   UNL     1      44.629   6.134  11.474  0.00  0.00    +0.000 A 
ENDROOT
BRANCH   1   8
ATOM      7  C   UNL     1      43.825   9.650  10.761  0.00  0.00    +0.000 C 
ATOM      8  O   UNL     1      43.493   8.290  11.007  0.00  0.00    +0.000 OA
ENDBRANCH   1   8
BRANCH   3   9
ATOM      9  C   UNL     1      47.535   8.466  13.705  0.00  0.00    +0.000 C 
BRANCH   9  10
ATOM     10  N   UNL     1      47.836   7.860  14.978  0.00  0.00    +0.000 N 
ATOM     11  C   UNL     1      48.973   7.128  15.209  0.00  0.00    +0.000 C 
ATOM     12  O   UNL     1      49.833   6.957  14.350  0.00  0.00    +0.000 OA
ATOM     13  H   UNL     1      47.068   7.814  15.638  0.00  0.00    +0.000 HD
BRANCH  11  14
ATOM     14  C   UNL     1      49.144   6.616  16.579  0.00  0.00    +0.000 A 
ATOM     15  C   UNL     1      49.757   7.418  17.535  0.00  0.00    +0.000 A 
ATOM     16  S   UNL     1      49.831   6.709  19.084  0.00  0.00    +0.000 S 
ATOM     17  C   UNL     1      49.092   5.282  18.525  0.00  0.00    +0.000 A 
ATOM     18  N   UNL     1      48.874   4.235  19.366  0.00  0.00    +0.000 NA
ATOM     19  C   UNL     1      48.344   3.200  18.804  0.00  0.00    +0.000 A 
ATOM     20  N   UNL     1      48.002   3.121  17.479  0.00  0.00    +0.000 N 
ATOM     21  C   UNL     1      48.145   4.175  16.609  0.00  0.00    +0.000 A 
ATOM     22  O   UNL     1      47.731   4.103  15.456  0.00  0.00    +0.000 OA
ATOM     23  C   UNL     1      48.774   5.353  17.179  0.00  0.00    +0.000 A 
ATOM     24  H   UNL     1      47.573   2.290  17.104  0.00  0.00    +0.000 HD
ENDBRANCH  11  14
ENDBRANCH   9  10
ENDBRANCH   3   9
BRANCH   6  25
ATOM     25  C   UNL     1      43.750   5.217  10.653  0.00  0.00    +0.000 C 
BRANCH  25  26
ATOM     26  N   UNL     1      44.203   5.110   9.282  0.00  0.00    +0.000 N 
ATOM     27  C   UNL     1      44.863   3.962   8.895  0.00  0.00    +0.000 A 
ATOM     28  N   UNL     1      44.707   2.815   9.566  0.00  0.00    +0.000 NA
ATOM     29  C   UNL     1      45.342   1.721   9.095  0.00  0.00    +0.000 A 
ATOM     30  C   UNL     1      46.150   1.736   7.986  0.00  0.00    +0.000 A 
ATOM     31 CL   UNL     1      46.937   0.337   7.409  0.00  0.00    +0.000 Cl
ATOM     32  C   UNL     1      46.277   2.960   7.382  0.00  0.00    +0.000 A 
ATOM     33  N   UNL     1      45.656   4.083   7.818  0.00  0.00    +0.000 NA
ATOM     34  H   UNL     1      44.725   5.895   8.915  0.00  0.00    +0.000 HD
ENDBRANCH  25  26
ENDBRANCH   6  25
TORSDOF 6
ENDMDL
MODEL 5
REMARK VINA RESULT:    -6.781      4.583      9.179
REMARK INTER + INTRA:         -10.428
REMARK INTER:                  -9.185
REMARK INTRA:                  -1.243
REMARK UNBOUND:                -1.269
REMARK  Name = 
REMARK  7 active torsions:
REMARK  status: ('A' for Active; 'I' for Inactive)
REMARK    1  A    between atoms: C_1  and  O_2
REMARK    2  A    between atoms: O_2  and  C_3
REMARK    3  A    between atoms: C_5  and  C_6
REMARK    4  A    between atoms: C_6  and  N_7
REMARK    5  A    between atoms: C_8  and  C_10
REMARK    6  A    between atoms: C_22  and  C_23
REMARK    7  A    between atoms: C_23  and  N_24
REMARK                            x       y       z     vdW  Elec       q    Type
REMARK                         _______ _______ _______ _____ _____    ______ ____
ROOT
ATOM      1  C   UNL     1      50.939   3.617  17.843  0.00  0.00    +0.000 A 
ATOM      2  C   UNL     1      49.710   3.151  17.336  0.00  0.00    +0.000 A 
ATOM      3  C   UNL     1      48.595   3.996  17.214  0.00  0.00    +0.000 A 
ATOM      4  C   UNL     1      48.713   5.319  17.631  0.00  0.00    +0.000 A 
ATOM      5  C   UNL     1      49.931   5.793  18.108  0.00  0.00    +0.000 A 
ATOM      6  C   UNL     1      51.069   4.965  18.216  0.00  0.00    +0.000 A 
ENDROOT
BRANCH   1   8
ATOM      7  C   UNL     1      51.562   1.360  17.427  0.00  0.00    +0.000 C 
ATOM      8  O   UNL     1      51.940   2.680  17.795  0.00  0.00    +0.000 OA
ENDBRANCH   1   8
BRANCH   3   9
ATOM      9  C   UNL     1      47.283   3.509  16.663  0.00  0.00    +0.000 C 
BRANCH   9  10
ATOM     10  N   UNL     1      46.741   4.433  15.699  0.00  0.00    +0.000 N 
ATOM     11  C   UNL     1      46.795   4.220  14.344  0.00  0.00    +0.000 C 
ATOM     12  O   UNL     1      47.291   3.209  13.855  0.00  0.00    +0.000 OA
ATOM     13  H   UNL     1      46.508   5.354  16.051  0.00  0.00    +0.000 HD
BRANCH  11  14
ATOM     14  C   UNL     1      46.154   5.244  13.503  0.00  0.00    +0.000 A 
ATOM     15  C   UNL     1      46.831   6.429  13.235  0.00  0.00    +0.000 A 
ATOM     16  S   UNL     1      45.984   7.489  12.203  0.00  0.00    +0.000 S 
ATOM     17  C   UNL     1      44.657   6.427  12.115  0.00  0.00    +0.000 A 
ATOM     18  N   UNL     1      43.553   6.752  11.388  0.00  0.00    +0.000 NA
ATOM     19  C   UNL     1      42.604   5.877  11.439  0.00  0.00    +0.000 A 
ATOM     20  N   UNL     1      42.664   4.702  12.143  0.00  0.00    +0.000 N 
ATOM     21  C   UNL     1      43.781   4.305  12.837  0.00  0.00    +0.000 A 
ATOM     22  O   UNL     1      43.836   3.200  13.368  0.00  0.00    +0.000 OA
ATOM     23  C   UNL     1      44.866   5.271  12.846  0.00  0.00    +0.000 A 
ATOM     24  H   UNL     1      41.895   4.050  12.127  0.00  0.00    +0.000 HD
ENDBRANCH  11  14
ENDBRANCH   9  10
ENDBRANCH   3   9
BRANCH   6  25
ATOM     25  C   UNL     1      52.347   5.626  18.684  0.00  0.00    +0.000 C 
BRANCH  25  26
ATOM     26  N   UNL     1      53.400   5.541  17.694  0.00  0.00    +0.000 N 
ATOM     27  C   UNL     1      53.473   6.521  16.726  0.00  0.00    +0.000 A 
ATOM     28  N   UNL     1      52.930   7.728  16.921  0.00  0.00    +0.000 NA
ATOM     29  C   UNL     1      53.091   8.653  15.952  0.00  0.00    +0.000 A 
ATOM     30  C   UNL     1      53.757   8.408  14.778  0.00  0.00    +0.000 A 
ATOM     31 CL   UNL     1      53.950   9.597  13.569  0.00  0.00    +0.000 Cl
ATOM     32  C   UNL     1      54.251   7.135  14.650  0.00  0.00    +0.000 A 
ATOM     33  N   UNL     1      54.117   6.177  15.599  0.00  0.00    +0.000 NA
ATOM     34  H   UNL     1      53.513   4.650  17.229  0.00  0.00    +0.000 HD
ENDBRANCH  25  26
ENDBRANCH   6  25
TORSDOF 6
ENDMDL
MODEL 6
REMARK VINA RESULT:    -6.570      4.117      9.306
REMARK INTER + INTRA:         -10.143
REMARK INTER:                  -9.034
REMARK INTRA:                  -1.108
REMARK UNBOUND:                -1.269
REMARK  Name = 
REMARK  7 active torsions:
REMARK  status: ('A' for Active; 'I' for Inactive)
REMARK    1  A    between atoms: C_1  and  O_2
REMARK    2  A    between atoms: O_2  and  C_3
REMARK    3  A    between atoms: C_5  and  C_6
REMARK    4  A    between atoms: C_6  and  N_7
REMARK    5  A    between atoms: C_8  and  C_10
REMARK    6  A    between atoms: C_22  and  C_23
REMARK    7  A    between atoms: C_23  and  N_24
REMARK                            x       y       z     vdW  Elec       q    Type
REMARK                         _______ _______ _______ _____ _____    ______ ____
ROOT
ATOM      1  C   UNL     1      50.670   7.772  14.673  0.00  0.00    +0.000 A 
ATOM      2  C   UNL     1      49.917   7.906  13.490  0.00  0.00    +0.000 A 
ATOM      3  C   UNL     1      48.613   7.395  13.383  0.00  0.00    +0.000 A 
ATOM      4  C   UNL     1      48.072   6.719  14.473  0.00  0.00    +0.000 A 
ATOM      5  C   UNL     1      48.800   6.605  15.654  0.00  0.00    +0.000 A 
ATOM      6  C   UNL     1      50.102   7.133  15.788  0.00  0.00    +0.000 A 
ENDROOT
BRANCH   1   8
ATOM      7  C   UNL     1      52.474   8.571  13.345  0.00  0.00    +0.000 C 
ATOM      8  O   UNL     1      51.879   8.418  14.628  0.00  0.00    +0.000 OA
ENDBRANCH   1   8
BRANCH   3   9
ATOM      9  C   UNL     1      47.799   7.544  12.128  0.00  0.00    +0.000 C 
BRANCH   9  10
ATOM     10  N   UNL     1      47.012   6.366  11.866  0.00  0.00    +0.000 N 
ATOM     11  C   UNL     1      45.641   6.354  11.917  0.00  0.00    +0.000 C 
ATOM     12  O   UNL     1      44.982   7.359  12.166  0.00  0.00    +0.000 OA
ATOM     13  H   UNL     1      47.520   5.489  11.854  0.00  0.00    +0.000 HD
BRANCH  11  14
ATOM     14  C   UNL     1      44.993   5.076  11.580  0.00  0.00    +0.000 A 
ATOM     15  C   UNL     1      44.246   4.414  12.547  0.00  0.00    +0.000 A 
ATOM     16  S   UNL     1      43.513   2.978  11.990  0.00  0.00    +0.000 S 
ATOM     17  C   UNL     1      44.207   3.161  10.447  0.00  0.00    +0.000 A 
ATOM     18  N   UNL     1      43.990   2.236   9.473  0.00  0.00    +0.000 NA
ATOM     19  C   UNL     1      44.607   2.474   8.364  0.00  0.00    +0.000 A 
ATOM     20  N   UNL     1      45.415   3.557   8.138  0.00  0.00    +0.000 N 
ATOM     21  C   UNL     1      45.612   4.547   9.071  0.00  0.00    +0.000 A 
ATOM     22  O   UNL     1      46.257   5.555   8.797  0.00  0.00    +0.000 OA
ATOM     23  C   UNL     1      44.971   4.311  10.353  0.00  0.00    +0.000 A 
ATOM     24  H   UNL     1      45.856   3.697   7.242  0.00  0.00    +0.000 HD
ENDBRANCH  11  14
ENDBRANCH   9  10
ENDBRANCH   3   9
BRANCH   6  25
ATOM     25  C   UNL     1      50.751   7.000  17.148  0.00  0.00    +0.000 C 
BRANCH  25  26
ATOM     26  N   UNL     1      52.017   6.301  17.083  0.00  0.00    +0.000 N 
ATOM     27  C   UNL     1      52.033   4.944  17.329  0.00  0.00    +0.000 A 
ATOM     28  N   UNL     1      50.930   4.202  17.178  0.00  0.00    +0.000 NA
ATOM     29  C   UNL     1      51.036   2.872  17.382  0.00  0.00    +0.000 A 
ATOM     30  C   UNL     1      52.203   2.256  17.756  0.00  0.00    +0.000 A 
ATOM     31 CL   UNL     1      52.312   0.572  18.004  0.00  0.00    +0.000 Cl
ATOM     32  C   UNL     1      53.273   3.099  17.919  0.00  0.00    +0.000 A 
ATOM     33  N   UNL     1      53.213   4.439  17.721  0.00  0.00    +0.000 NA
ATOM     34  H   UNL     1      52.786   6.709  17.599  0.00  0.00    +0.000 HD
ENDBRANCH  25  26
ENDBRANCH   6  25
TORSDOF 6
ENDMDL
MODEL 7
REMARK VINA RESULT:    -6.423      4.380      9.013
REMARK INTER + INTRA:          -9.944
REMARK INTER:                  -8.893
REMARK INTRA:                  -1.052
REMARK UNBOUND:                -1.269
REMARK  Name = 
REMARK  7 active torsions:
REMARK  status: ('A' for Active; 'I' for Inactive)
REMARK    1  A    between atoms: C_1  and  O_2
REMARK    2  A    between atoms: O_2  and  C_3
REMARK    3  A    between atoms: C_5  and  C_6
REMARK    4  A    between atoms: C_6  and  N_7
REMARK    5  A    between atoms: C_8  and  C_10
REMARK    6  A    between atoms: C_22  and  C_23
REMARK    7  A    between atoms: C_23  and  N_24
REMARK                            x       y       z     vdW  Elec       q    Type
REMARK                         _______ _______ _______ _____ _____    ______ ____
ROOT
ATOM      1  C   UNL     1      50.755   7.934  14.897  0.00  0.00    +0.000 A 
ATOM      2  C   UNL     1      50.168   8.237  13.652  0.00  0.00    +0.000 A 
ATOM      3  C   UNL     1      48.914   7.721  13.284  0.00  0.00    +0.000 A 
ATOM      4  C   UNL     1      48.257   6.872  14.170  0.00  0.00    +0.000 A 
ATOM      5  C   UNL     1      48.819   6.590  15.411  0.00  0.00    +0.000 A 
ATOM      6  C   UNL     1      50.067   7.117  15.809  0.00  0.00    +0.000 A 
ENDROOT
BRANCH   1   8
ATOM      7  C   UNL     1      51.855   9.769  15.936  0.00  0.00    +0.000 C 
ATOM      8  O   UNL     1      51.930   8.605  15.123  0.00  0.00    +0.000 OA
ENDBRANCH   1   8
BRANCH   3   9
ATOM      9  C   UNL     1      48.275   8.049  11.963  0.00  0.00    +0.000 C 
BRANCH   9  10
ATOM     10  N   UNL     1      47.521   6.933  11.451  0.00  0.00    +0.000 N 
ATOM     11  C   UNL     1      46.151   6.926  11.374  0.00  0.00    +0.000 C 
ATOM     12  O   UNL     1      45.467   7.887  11.715  0.00  0.00    +0.000 OA
ATOM     13  H   UNL     1      48.032   6.064  11.349  0.00  0.00    +0.000 HD
BRANCH  11  14
ATOM     14  C   UNL     1      45.543   5.722  10.785  0.00  0.00    +0.000 A 
ATOM     15  C   UNL     1      45.677   5.487   9.421  0.00  0.00    +0.000 A 
ATOM     16  S   UNL     1      44.968   4.027   8.900  0.00  0.00    +0.000 S 
ATOM     17  C   UNL     1      44.410   3.677  10.469  0.00  0.00    +0.000 A 
ATOM     18  N   UNL     1      43.690   2.549  10.715  0.00  0.00    +0.000 NA
ATOM     19  C   UNL     1      43.294   2.425  11.938  0.00  0.00    +0.000 A 
ATOM     20  N   UNL     1      43.561   3.322  12.939  0.00  0.00    +0.000 N 
ATOM     21  C   UNL     1      44.337   4.440  12.750  0.00  0.00    +0.000 A 
ATOM     22  O   UNL     1      44.643   5.165  13.692  0.00  0.00    +0.000 OA
ATOM     23  C   UNL     1      44.777   4.650  11.382  0.00  0.00    +0.000 A 
ATOM     24  H   UNL     1      43.239   3.159  13.880  0.00  0.00    +0.000 HD
ENDBRANCH  11  14
ENDBRANCH   9  10
ENDBRANCH   3   9
BRANCH   6  25
ATOM     25  C   UNL     1      50.527   6.786  17.211  0.00  0.00    +0.000 C 
BRANCH  25  26
ATOM     26  N   UNL     1      51.819   6.132  17.222  0.00  0.00    +0.000 N 
ATOM     27  C   UNL     1      51.863   4.768  17.423  0.00  0.00    +0.000 A 
ATOM     28  N   UNL     1      50.801   3.996  17.163  0.00  0.00    +0.000 NA
ATOM     29  C   UNL     1      50.939   2.664  17.331  0.00  0.00    +0.000 A 
ATOM     30  C   UNL     1      52.095   2.074  17.775  0.00  0.00    +0.000 A 
ATOM     31 CL   UNL     1      52.243   0.386  17.974  0.00  0.00    +0.000 Cl
ATOM     32  C   UNL     1      53.118   2.945  18.048  0.00  0.00    +0.000 A 
ATOM     33  N   UNL     1      53.027   4.288  17.890  0.00  0.00    +0.000 NA
ATOM     34  H   UNL     1      52.530   6.546  17.810  0.00  0.00    +0.000 HD
ENDBRANCH  25  26
ENDBRANCH   6  25
TORSDOF 6
ENDMDL
MODEL 8
REMARK VINA RESULT:    -6.219      6.277      9.059
REMARK INTER + INTRA:          -9.669
REMARK INTER:                  -8.548
REMARK INTRA:                  -1.120
REMARK UNBOUND:                -1.269
REMARK  Name = 
REMARK  7 active torsions:
REMARK  status: ('A' for Active; 'I' for Inactive)
REMARK    1  A    between atoms: C_1  and  O_2
REMARK    2  A    between atoms: O_2  and  C_3
REMARK    3  A    between atoms: C_5  and  C_6
REMARK    4  A    between atoms: C_6  and  N_7
REMARK    5  A    between atoms: C_8  and  C_10
REMARK    6  A    between atoms: C_22  and  C_23
REMARK    7  A    between atoms: C_23  and  N_24
REMARK                            x       y       z     vdW  Elec       q    Type
REMARK                         _______ _______ _______ _____ _____    ______ ____
ROOT
ATOM      1  C   UNL     1      49.013   7.617  13.130  0.00  0.00    +0.000 A 
ATOM      2  C   UNL     1      50.237   8.128  12.652  0.00  0.00    +0.000 A 
ATOM      3  C   UNL     1      50.286   9.234  11.788  0.00  0.00    +0.000 A 
ATOM      4  C   UNL     1      49.089   9.816  11.382  0.00  0.00    +0.000 A 
ATOM      5  C   UNL     1      47.879   9.334  11.871  0.00  0.00    +0.000 A 
ATOM      6  C   UNL     1      47.810   8.238  12.758  0.00  0.00    +0.000 A 
ENDROOT
BRANCH   1   8
ATOM      7  C   UNL     1      49.514   6.977  15.366  0.00  0.00    +0.000 C 
ATOM      8  O   UNL     1      49.164   6.601  14.039  0.00  0.00    +0.000 OA
ENDBRANCH   1   8
BRANCH   3   9
ATOM      9  C   UNL     1      51.588   9.792  11.283  0.00  0.00    +0.000 C 
BRANCH   9  10
ATOM     10  N   UNL     1      51.932   9.246   9.995  0.00  0.00    +0.000 N 
ATOM     11  C   UNL     1      53.168   8.726   9.707  0.00  0.00    +0.000 C 
ATOM     12  O   UNL     1      54.069   8.666  10.540  0.00  0.00    +0.000 OA
ATOM     13  H   UNL     1      51.290   9.457   9.240  0.00  0.00    +0.000 HD
BRANCH  11  14
ATOM     14  C   UNL     1      53.337   8.170   8.355  0.00  0.00    +0.000 A 
ATOM     15  C   UNL     1      53.324   9.025   7.259  0.00  0.00    +0.000 A 
ATOM     16  S   UNL     1      53.586   8.240   5.768  0.00  0.00    +0.000 S 
ATOM     17  C   UNL     1      53.679   6.719   6.525  0.00  0.00    +0.000 A 
ATOM     18  N   UNL     1      53.875   5.588   5.794  0.00  0.00    +0.000 NA
ATOM     19  C   UNL     1      53.884   4.499   6.487  0.00  0.00    +0.000 A 
ATOM     20  N   UNL     1      53.724   4.439   7.847  0.00  0.00    +0.000 N 
ATOM     21  C   UNL     1      53.587   5.559   8.632  0.00  0.00    +0.000 A 
ATOM     22  O   UNL     1      53.552   5.473   9.856  0.00  0.00    +0.000 OA
ATOM     23  C   UNL     1      53.531   6.811   7.899  0.00  0.00    +0.000 A 
ATOM     24  H   UNL     1      53.760   3.557   8.334  0.00  0.00    +0.000 HD
ENDBRANCH  11  14
ENDBRANCH   9  10
ENDBRANCH   3   9
BRANCH   6  25
ATOM     25  C   UNL     1      46.435   7.863  13.266  0.00  0.00    +0.000 C 
BRANCH  25  26
ATOM     26  N   UNL     1      46.348   6.461  13.621  0.00  0.00    +0.000 N 
ATOM     27  C   UNL     1      45.801   5.585  12.707  0.00  0.00    +0.000 A 
ATOM     28  N   UNL     1      45.771   5.876  11.401  0.00  0.00    +0.000 NA
ATOM     29  C   UNL     1      45.271   4.945  10.562  0.00  0.00    +0.000 A 
ATOM     30  C   UNL     1      44.774   3.737  10.984  0.00  0.00    +0.000 A 
ATOM     31 CL   UNL     1      44.152   2.575   9.901  0.00  0.00    +0.000 Cl
ATOM     32  C   UNL     1      44.815   3.539  12.340  0.00  0.00    +0.000 A 
ATOM     33  N   UNL     1      45.312   4.444  13.219  0.00  0.00    +0.000 NA
ATOM     34  H   UNL     1      45.943   6.247  14.523  0.00  0.00    +0.000 HD
ENDBRANCH  25  26
ENDBRANCH   6  25
TORSDOF 6
ENDMDL
MODEL 9
REMARK VINA RESULT:    -6.167      5.325      8.497
REMARK INTER + INTRA:          -9.599
REMARK INTER:                  -8.550
REMARK INTRA:                  -1.049
REMARK UNBOUND:                -1.269
REMARK  Name = 
REMARK  7 active torsions:
REMARK  status: ('A' for Active; 'I' for Inactive)
REMARK    1  A    between atoms: C_1  and  O_2
REMARK    2  A    between atoms: O_2  and  C_3
REMARK    3  A    between atoms: C_5  and  C_6
REMARK    4  A    between atoms: C_6  and  N_7
REMARK    5  A    between atoms: C_8  and  C_10
REMARK    6  A    between atoms: C_22  and  C_23
REMARK    7  A    between atoms: C_23  and  N_24
REMARK                            x       y       z     vdW  Elec       q    Type
REMARK                         _______ _______ _______ _____ _____    ______ ____
ROOT
ATOM      1  C   UNL     1      49.895   9.813  11.503  0.00  0.00    +0.000 A 
ATOM      2  C   UNL     1      48.565   9.719  11.959  0.00  0.00    +0.000 A 
ATOM      3  C   UNL     1      48.013   8.495  12.372  0.00  0.00    +0.000 A 
ATOM      4  C   UNL     1      48.802   7.351  12.301  0.00  0.00    +0.000 A 
ATOM      5  C   UNL     1      50.124   7.441  11.877  0.00  0.00    +0.000 A 
ATOM      6  C   UNL     1      50.704   8.666  11.480  0.00  0.00    +0.000 A 
ENDROOT
BRANCH   1   8
ATOM      7  C   UNL     1      50.248  11.515   9.879  0.00  0.00    +0.000 C 
ATOM      8  O   UNL     1      50.290  11.100  11.238  0.00  0.00    +0.000 OA
ENDBRANCH   1   8
BRANCH   3   9
ATOM      9  C   UNL     1      46.598   8.387  12.871  0.00  0.00    +0.000 C 
BRANCH   9  10
ATOM     10  N   UNL     1      46.053   7.075  12.630  0.00  0.00    +0.000 N 
ATOM     11  C   UNL     1      45.037   6.838  11.739  0.00  0.00    +0.000 C 
ATOM     12  O   UNL     1      44.534   7.729  11.060  0.00  0.00    +0.000 OA
ATOM     13  H   UNL     1      46.303   6.362  13.305  0.00  0.00    +0.000 HD
BRANCH  11  14
ATOM     14  C   UNL     1      44.628   5.433  11.584  0.00  0.00    +0.000 A 
ATOM     15  C   UNL     1      43.917   4.812  12.604  0.00  0.00    +0.000 A 
ATOM     16  S   UNL     1      43.468   3.205  12.253  0.00  0.00    +0.000 S 
ATOM     17  C   UNL     1      44.251   3.260  10.744  0.00  0.00    +0.000 A 
ATOM     18  N   UNL     1      44.264   2.172   9.926  0.00  0.00    +0.000 NA
ATOM     19  C   UNL     1      44.926   2.335   8.831  0.00  0.00    +0.000 A 
ATOM     20  N   UNL     1      45.570   3.492   8.474  0.00  0.00    +0.000 N 
ATOM     21  C   UNL     1      45.530   4.633   9.238  0.00  0.00    +0.000 A 
ATOM     22  O   UNL     1      46.029   5.680   8.836  0.00  0.00    +0.000 OA
ATOM     23  C   UNL     1      44.830   4.494  10.502  0.00  0.00    +0.000 A 
ATOM     24  H   UNL     1      46.057   3.563   7.593  0.00  0.00    +0.000 HD
ENDBRANCH  11  14
ENDBRANCH   9  10
ENDBRANCH   3   9
BRANCH   6  25
ATOM     25  C   UNL     1      52.170   8.633  11.109  0.00  0.00    +0.000 C 
BRANCH  25  26
ATOM     26  N   UNL     1      52.370   8.593   9.675  0.00  0.00    +0.000 N 
ATOM     27  C   UNL     1      53.109   7.557   9.143  0.00  0.00    +0.000 A 
ATOM     28  N   UNL     1      53.253   6.401   9.801  0.00  0.00    +0.000 NA
ATOM     29  C   UNL     1      53.943   5.414   9.192  0.00  0.00    +0.000 A 
ATOM     30  C   UNL     1      54.519   5.549   7.954  0.00  0.00    +0.000 A 
ATOM     31 CL   UNL     1      55.383   4.283   7.204  0.00  0.00    +0.000 Cl
ATOM     32  C   UNL     1      54.348   6.777   7.369  0.00  0.00    +0.000 A 
ATOM     33  N   UNL     1      53.659   7.795   7.942  0.00  0.00    +0.000 NA
ATOM     34  H   UNL     1      52.691   9.447   9.240  0.00  0.00    +0.000 HD
ENDBRANCH  25  26
ENDBRANCH   6  25
TORSDOF 6
ENDMDL
