MODEL 1
REMARK VINA RESULT:    -6.401      0.000      0.000
REMARK INTER + INTRA:          -9.749
REMARK INTER:                  -9.208
REMARK INTRA:                  -0.541
REMARK UNBOUND:                -0.541
REMARK  Name = 
REMARK  8 active torsions:
REMARK  status: ('A' for Active; 'I' for Inactive)
REMARK    1  A    between atoms: O_1  and  C_2
REMARK    2  A    between atoms: C_2  and  C_3
REMARK    3  A    between atoms: C_3  and  C_4
REMARK    4  A    between atoms: C_4  and  O_5
REMARK    5  A    between atoms: O_5  and  C_6
REMARK    6  A    between atoms: C_9  and  O_10
REMARK    7  A    between atoms: O_10  and  C_11
REMARK    8  A    between atoms: C_11  and  C_12
REMARK                            x       y       z     vdW  Elec       q    Type
REMARK                         _______ _______ _______ _____ _____    ______ ____
ROOT
ATOM      1  C   UNL     1      47.051   4.903  13.982  0.00  0.00    +0.000 A 
ATOM      2  C   UNL     1      46.328   5.792  13.215  0.00  0.00    +0.000 A 
ATOM      3  N   UNL     1      45.402   5.425  12.305  0.00  0.00    +0.000 NA
ATOM      4  C   UNL     1      45.210   4.104  12.161  0.00  0.00    +0.000 A 
ATOM      5  N   UNL     1      45.843   3.147  12.849  0.00  0.00    +0.000 NA
ATOM      6  C   UNL     1      46.767   3.575  13.737  0.00  0.00    +0.000 A 
ENDROOT
BRANCH   1   7
ATOM      7  O   UNL     1      48.004   5.198  14.907  0.00  0.00    +0.000 OA
BRANCH   7   8
ATOM      8  C   UNL     1      47.594   5.045  16.271  0.00  0.00    +0.000 C 
BRANCH   8   9
ATOM      9  C   UNL     1      48.568   4.107  16.976  0.00  0.00    +0.000 C 
BRANCH   9  10
ATOM     10  C   UNL     1      47.894   2.801  17.367  0.00  0.00    +0.000 C 
BRANCH  10  11
ATOM     11  O   UNL     1      46.500   3.011  17.544  0.00  0.00    +0.000 OA
ATOM     12  H   UNL     1      46.345   3.971  17.500  0.00  0.00    +0.000 HD
ENDBRANCH  10  11
ENDBRANCH   9  10
ENDBRANCH   8   9
ENDBRANCH   7   8
ENDBRANCH   1   7
BRANCH   4  13
ATOM     13  O   UNL     1      44.245   3.667  11.284  0.00  0.00    +0.000 OA
BRANCH  13  14
ATOM     14  C   UNL     1      44.312   4.389  10.056  0.00  0.00    +0.000 C 
BRANCH  14  15
ATOM     15  C   UNL     1      45.197   3.645   9.092  0.00  0.00    +0.000 A 
ATOM     16  C   UNL     1      45.298   2.259   9.166  0.00  0.00    +0.000 A 
ATOM     17  N   UNL     1      46.053   1.531   8.306  0.00  0.00    +0.000 NA
ATOM     18  C   UNL     1      46.709   2.247   7.369  0.00  0.00    +0.000 A 
ATOM     19  C   UNL     1      46.617   3.623   7.288  0.00  0.00    +0.000 A 
ATOM     20  N   UNL     1      45.855   4.352   8.136  0.00  0.00    +0.000 NA
ENDBRANCH  14  15
ENDBRANCH  13  14
ENDBRANCH   4  13
TORSDOF 8
ENDMDL
MODEL 2
REMARK VINA RESULT:    -6.353      3.115      6.801
REMARK INTER + INTRA:          -9.679
REMARK INTER:                  -9.553
REMARK INTRA:                  -0.126
REMARK UNBOUND:                -0.541
REMARK  Name = 
REMARK  8 active torsions:
REMARK  status: ('A' for Active; 'I' for Inactive)
REMARK    1  A    between atoms: O_1  and  C_2
REMARK    2  A    between atoms: C_2  and  C_3
REMARK    3  A    between atoms: C_3  and  C_4
REMARK    4  A    between atoms: C_4  and  O_5
REMARK    5  A    between atoms: O_5  and  C_6
REMARK    6  A    between atoms: C_9  and  O_10
REMARK    7  A    between atoms: O_10  and  C_11
REMARK    8  A    between atoms: C_11  and  C_12
REMARK                            x       y       z     vdW  Elec       q    Type
REMARK                         _______ _______ _______ _____ _____    ______ ____
ROOT
ATOM      1  C   UNL     1      44.539   2.490   9.493  0.00  0.00    +0.000 A 
ATOM      2  C   UNL     1      43.863   2.131  10.639  0.00  0.00    +0.000 A 
ATOM      3  N   UNL     1      43.198   3.000  11.428  0.00  0.00    +0.000 NA
ATOM      4  C   UNL     1      43.230   4.286  11.044  0.00  0.00    +0.000 A 
ATOM      5  N   UNL     1      43.843   4.757   9.952  0.00  0.00    +0.000 NA
ATOM      6  C   UNL     1      44.502   3.840   9.208  0.00  0.00    +0.000 A 
ENDROOT
BRANCH   1   7
ATOM      7  O   UNL     1      45.237   1.675   8.657  0.00  0.00    +0.000 OA
BRANCH   7   8
ATOM      8  C   UNL     1      46.003   2.348   7.651  0.00  0.00    +0.000 C 
BRANCH   8   9
ATOM      9  C   UNL     1      47.177   1.462   7.251  0.00  0.00    +0.000 C 
BRANCH   9  10
ATOM     10  C   UNL     1      48.293   2.276   6.613  0.00  0.00    +0.000 C 
BRANCH  10  11
ATOM     11  O   UNL     1      48.633   1.721   5.350  0.00  0.00    +0.000 OA
ATOM     12  H   UNL     1      49.594   1.830   5.235  0.00  0.00    +0.000 HD
ENDBRANCH  10  11
ENDBRANCH   9  10
ENDBRANCH   8   9
ENDBRANCH   7   8
ENDBRANCH   1   7
BRANCH   4  13
ATOM     13  O   UNL     1      42.530   5.215  11.779  0.00  0.00    +0.000 OA
BRANCH  13  14
ATOM     14  C   UNL     1      42.975   5.226  13.134  0.00  0.00    +0.000 C 
BRANCH  14  15
ATOM     15  C   UNL     1      44.452   5.516  13.167  0.00  0.00    +0.000 A 
ATOM     16  C   UNL     1      44.930   6.754  12.749  0.00  0.00    +0.000 A 
ATOM     17  N   UNL     1      46.244   7.084  12.785  0.00  0.00    +0.000 NA
ATOM     18  C   UNL     1      47.066   6.122  13.255  0.00  0.00    +0.000 A 
ATOM     19  C   UNL     1      46.603   4.889  13.671  0.00  0.00    +0.000 A 
ATOM     20  N   UNL     1      45.291   4.560  13.648  0.00  0.00    +0.000 NA
ENDBRANCH  14  15
ENDBRANCH  13  14
ENDBRANCH   4  13
TORSDOF 8
ENDMDL
MODEL 3
REMARK VINA RESULT:    -6.343      1.304      1.885
REMARK INTER + INTRA:          -9.665
REMARK INTER:                  -9.198
REMARK INTRA:                  -0.467
REMARK UNBOUND:                -0.541
REMARK  Name = 
REMARK  8 active torsions:
REMARK  status: ('A' for Active; 'I' for Inactive)
REMARK    1  A    between atoms: O_1  and  C_2
REMARK    2  A    between atoms: C_2  and  C_3
REMARK    3  A    between atoms: C_3  and  C_4
REMARK    4  A    between atoms: C_4  and  O_5
REMARK    5  A    between atoms: O_5  and  C_6
REMARK    6  A    between atoms: C_9  and  O_10
REMARK    7  A    between atoms: O_10  and  C_11
REMARK    8  A    between atoms: C_11  and  C_12
REMARK                            x       y       z     vdW  Elec       q    Type
REMARK                         _______ _______ _______ _____ _____    ______ ____
ROOT
ATOM      1  C   UNL     1      45.902   4.819  12.947  0.00  0.00    +0.000 A 
ATOM      2  C   UNL     1      45.164   3.698  12.630  0.00  0.00    +0.000 A 
ATOM      3  N   UNL     1      44.644   3.457  11.408  0.00  0.00    +0.000 NA
ATOM      4  C   UNL     1      44.873   4.395  10.476  0.00  0.00    +0.000 A 
ATOM      5  N   UNL     1      45.578   5.517  10.658  0.00  0.00    +0.000 NA
ATOM      6  C   UNL     1      46.063   5.709  11.905  0.00  0.00    +0.000 A 
ENDROOT
BRANCH   1   7
ATOM      7  O   UNL     1      46.446   5.133  14.153  0.00  0.00    +0.000 OA
BRANCH   7   8
ATOM      8  C   UNL     1      47.190   4.080  14.777  0.00  0.00    +0.000 C 
BRANCH   8   9
ATOM      9  C   UNL     1      47.461   4.460  16.229  0.00  0.00    +0.000 C 
BRANCH   9  10
ATOM     10  C   UNL     1      47.702   3.229  17.088  0.00  0.00    +0.000 C 
BRANCH  10  11
ATOM     11  O   UNL     1      46.476   2.788  17.655  0.00  0.00    +0.000 OA
ATOM     12  H   UNL     1      45.757   3.210  17.153  0.00  0.00    +0.000 HD
ENDBRANCH  10  11
ENDBRANCH   9  10
ENDBRANCH   8   9
ENDBRANCH   7   8
ENDBRANCH   1   7
BRANCH   4  13
ATOM     13  O   UNL     1      44.411   4.185   9.197  0.00  0.00    +0.000 OA
BRANCH  13  14
ATOM     14  C   UNL     1      44.502   2.805   8.847  0.00  0.00    +0.000 C 
BRANCH  14  15
ATOM     15  C   UNL     1      45.699   2.599   7.957  0.00  0.00    +0.000 A 
ATOM     16  C   UNL     1      46.409   1.403   8.008  0.00  0.00    +0.000 A 
ATOM     17  N   UNL     1      47.475   1.147   7.210  0.00  0.00    +0.000 NA
ATOM     18  C   UNL     1      47.807   2.140   6.358  0.00  0.00    +0.000 A 
ATOM     19  C   UNL     1      47.111   3.332   6.301  0.00  0.00    +0.000 A 
ATOM     20  N   UNL     1      46.039   3.587   7.087  0.00  0.00    +0.000 NA
ENDBRANCH  14  15
ENDBRANCH  13  14
ENDBRANCH   4  13
TORSDOF 8
ENDMDL
MODEL 4
REMARK VINA RESULT:    -6.162      2.453      7.330
REMARK INTER + INTRA:          -9.405
REMARK INTER:                  -8.983
REMARK INTRA:                  -0.422
REMARK UNBOUND:                -0.541
REMARK  Name = 
REMARK  8 active torsions:
REMARK  status: ('A' for Active; 'I' for Inactive)
REMARK    1  A    between atoms: O_1  and  C_2
REMARK    2  A    between atoms: C_2  and  C_3
REMARK    3  A    between atoms: C_3  and  C_4
REMARK    4  A    between atoms: C_4  and  O_5
REMARK    5  A    between atoms: O_5  and  C_6
REMARK    6  A    between atoms: C_9  and  O_10
REMARK    7  A    between atoms: O_10  and  C_11
REMARK    8  A    between atoms: C_11  and  C_12
REMARK                            x       y       z     vdW  Elec       q    Type
REMARK                         _______ _______ _______ _____ _____    ______ ____
ROOT
ATOM      1  C   UNL     1      44.954   4.330   9.795  0.00  0.00    +0.000 A 
ATOM      2  C   UNL     1      45.541   5.381  10.465  0.00  0.00    +0.000 A 
ATOM      3  N   UNL     1      45.742   5.409  11.799  0.00  0.00    +0.000 NA
ATOM      4  C   UNL     1      45.321   4.331  12.480  0.00  0.00    +0.000 A 
ATOM      5  N   UNL     1      44.746   3.249  11.944  0.00  0.00    +0.000 NA
ATOM      6  C   UNL     1      44.561   3.285  10.605  0.00  0.00    +0.000 A 
ENDROOT
BRANCH   1   7
ATOM      7  O   UNL     1      44.711   4.236   8.460  0.00  0.00    +0.000 OA
BRANCH   7   8
ATOM      8  C   UNL     1      45.266   3.081   7.820  0.00  0.00    +0.000 C 
BRANCH   8   9
ATOM      9  C   UNL     1      46.559   3.480   7.118  0.00  0.00    +0.000 C 
BRANCH   9  10
ATOM     10  C   UNL     1      47.426   2.266   6.821  0.00  0.00    +0.000 C 
BRANCH  10  11
ATOM     11  O   UNL     1      48.702   2.686   6.358  0.00  0.00    +0.000 OA
ATOM     12  H   UNL     1      48.923   2.140   5.583  0.00  0.00    +0.000 HD
ENDBRANCH  10  11
ENDBRANCH   9  10
ENDBRANCH   8   9
ENDBRANCH   7   8
ENDBRANCH   1   7
BRANCH   4  13
ATOM     13  O   UNL     1      45.541   4.277  13.837  0.00  0.00    +0.000 OA
BRANCH  13  14
ATOM     14  C   UNL     1      46.824   4.809  14.163  0.00  0.00    +0.000 C 
BRANCH  14  15
ATOM     15  C   UNL     1      47.341   4.127  15.402  0.00  0.00    +0.000 A 
ATOM     16  C   UNL     1      47.166   4.719  16.649  0.00  0.00    +0.000 A 
ATOM     17  N   UNL     1      47.581   4.138  17.802  0.00  0.00    +0.000 NA
ATOM     18  C   UNL     1      48.183   2.939  17.657  0.00  0.00    +0.000 A 
ATOM     19  C   UNL     1      48.364   2.344  16.424  0.00  0.00    +0.000 A 
ATOM     20  N   UNL     1      47.941   2.914  15.272  0.00  0.00    +0.000 NA
ENDBRANCH  14  15
ENDBRANCH  13  14
ENDBRANCH   4  13
TORSDOF 8
ENDMDL
MODEL 5
REMARK VINA RESULT:    -5.943      1.762      2.589
REMARK INTER + INTRA:          -9.090
REMARK INTER:                  -8.657
REMARK INTRA:                  -0.434
REMARK UNBOUND:                -0.541
REMARK  Name = 
REMARK  8 active torsions:
REMARK  status: ('A' for Active; 'I' for Inactive)
REMARK    1  A    between atoms: O_1  and  C_2
REMARK    2  A    between atoms: C_2  and  C_3
REMARK    3  A    between atoms: C_3  and  C_4
REMARK    4  A    between atoms: C_4  and  O_5
REMARK    5  A    between atoms: O_5  and  C_6
REMARK    6  A    between atoms: C_9  and  O_10
REMARK    7  A    between atoms: O_10  and  C_11
REMARK    8  A    between atoms: C_11  and  C_12
REMARK                            x       y       z     vdW  Elec       q    Type
REMARK                         _______ _______ _______ _____ _____    ______ ____
ROOT
ATOM      1  C   UNL     1      47.040   5.083  13.626  0.00  0.00    +0.000 A 
ATOM      2  C   UNL     1      46.723   3.742  13.587  0.00  0.00    +0.000 A 
ATOM      3  N   UNL     1      45.749   3.218  12.815  0.00  0.00    +0.000 NA
ATOM      4  C   UNL     1      45.064   4.090  12.059  0.00  0.00    +0.000 A 
ATOM      5  N   UNL     1      45.282   5.409  12.003  0.00  0.00    +0.000 NA
ATOM      6  C   UNL     1      46.262   5.877  12.808  0.00  0.00    +0.000 A 
ENDROOT
BRANCH   1   7
ATOM      7  O   UNL     1      47.997   5.683  14.384  0.00  0.00    +0.000 OA
BRANCH   7   8
ATOM      8  C   UNL     1      48.198   7.076  14.118  0.00  0.00    +0.000 C 
BRANCH   8   9
ATOM      9  C   UNL     1      49.211   7.626  15.116  0.00  0.00    +0.000 C 
BRANCH   9  10
ATOM     10  C   UNL     1      48.565   8.619  16.071  0.00  0.00    +0.000 C 
BRANCH  10  11
ATOM     11  O   UNL     1      47.388   9.156  15.485  0.00  0.00    +0.000 OA
ATOM     12  H   UNL     1      47.668   9.792  14.804  0.00  0.00    +0.000 HD
ENDBRANCH  10  11
ENDBRANCH   9  10
ENDBRANCH   8   9
ENDBRANCH   7   8
ENDBRANCH   1   7
BRANCH   4  13
ATOM     13  O   UNL     1      44.091   3.612  11.212  0.00  0.00    +0.000 OA
BRANCH  13  14
ATOM     14  C   UNL     1      44.146   4.278   9.951  0.00  0.00    +0.000 C 
BRANCH  14  15
ATOM     15  C   UNL     1      45.088   3.535   9.041  0.00  0.00    +0.000 A 
ATOM     16  C   UNL     1      45.248   2.159   9.176  0.00  0.00    +0.000 A 
ATOM     17  N   UNL     1      46.056   1.431   8.367  0.00  0.00    +0.000 NA
ATOM     18  C   UNL     1      46.703   2.136   7.415  0.00  0.00    +0.000 A 
ATOM     19  C   UNL     1      46.553   3.502   7.273  0.00  0.00    +0.000 A 
ATOM     20  N   UNL     1      45.738   4.231   8.072  0.00  0.00    +0.000 NA
ENDBRANCH  14  15
ENDBRANCH  13  14
ENDBRANCH   4  13
TORSDOF 8
ENDMDL
MODEL 6
REMARK VINA RESULT:    -5.630      2.495      7.362
REMARK INTER + INTRA:          -8.641
REMARK INTER:                  -7.953
REMARK INTRA:                  -0.687
REMARK UNBOUND:                -0.541
REMARK  Name = 
REMARK  8 active torsions:
REMARK  status: ('A' for Active; 'I' for Inactive)
REMARK    1  A    between atoms: O_1  and  C_2
REMARK    2  A    between atoms: C_2  and  C_3
REMARK    3  A    between atoms: C_3  and  C_4
REMARK    4  A    between atoms: C_4  and  O_5
REMARK    5  A    between atoms: O_5  and  C_6
REMARK    6  A    between atoms: C_9  and  O_10
REMARK    7  A    between atoms: O_10  and  C_11
REMARK    8  A    between atoms: C_11  and  C_12
REMARK                            x       y       z     vdW  Elec       q    Type
REMARK                         _______ _______ _______ _____ _____    ______ ____
ROOT
ATOM      1  C   UNL     1      45.355   4.822  11.742  0.00  0.00    +0.000 A 
ATOM      2  C   UNL     1      46.216   5.874  11.972  0.00  0.00    +0.000 A 
ATOM      3  N   UNL     1      46.984   5.994  13.074  0.00  0.00    +0.000 NA
ATOM      4  C   UNL     1      46.866   5.013  13.983  0.00  0.00    +0.000 A 
ATOM      5  N   UNL     1      46.074   3.941  13.872  0.00  0.00    +0.000 NA
ATOM      6  C   UNL     1      45.320   3.882  12.751  0.00  0.00    +0.000 A 
ENDROOT
BRANCH   1   7
ATOM      7  O   UNL     1      44.546   4.639  10.664  0.00  0.00    +0.000 OA
BRANCH   7   8
ATOM      8  C   UNL     1      44.181   3.279  10.401  0.00  0.00    +0.000 C 
BRANCH   8   9
ATOM      9  C   UNL     1      44.939   2.795   9.168  0.00  0.00    +0.000 C 
BRANCH   9  10
ATOM     10  C   UNL     1      44.886   3.823   8.047  0.00  0.00    +0.000 C 
BRANCH  10  11
ATOM     11  O   UNL     1      46.115   4.532   7.984  0.00  0.00    +0.000 OA
ATOM     12  H   UNL     1      46.034   5.304   8.570  0.00  0.00    +0.000 HD
ENDBRANCH  10  11
ENDBRANCH   9  10
ENDBRANCH   8   9
ENDBRANCH   7   8
ENDBRANCH   1   7
BRANCH   4  13
ATOM     13  O   UNL     1      47.659   5.053  15.107  0.00  0.00    +0.000 OA
BRANCH  13  14
ATOM     14  C   UNL     1      47.393   3.935  15.952  0.00  0.00    +0.000 C 
BRANCH  14  15
ATOM     15  C   UNL     1      48.690   3.432  16.529  0.00  0.00    +0.000 A 
ATOM     16  C   UNL     1      49.413   4.225  17.415  0.00  0.00    +0.000 A 
ATOM     17  N   UNL     1      50.570   3.814  17.991  0.00  0.00    +0.000 NA
ATOM     18  C   UNL     1      50.979   2.576  17.641  0.00  0.00    +0.000 A 
ATOM     19  C   UNL     1      50.270   1.782  16.760  0.00  0.00    +0.000 A 
ATOM     20  N   UNL     1      49.109   2.184  16.193  0.00  0.00    +0.000 NA
ENDBRANCH  14  15
ENDBRANCH  13  14
ENDBRANCH   4  13
TORSDOF 8
ENDMDL
MODEL 7
REMARK VINA RESULT:    -5.364      2.364      7.532
REMARK INTER + INTRA:          -8.258
REMARK INTER:                  -7.609
REMARK INTRA:                  -0.649
REMARK UNBOUND:                -0.541
REMARK  Name = 
REMARK  8 active torsions:
REMARK  status: ('A' for Active; 'I' for Inactive)
REMARK    1  A    between atoms: O_1  and  C_2
REMARK    2  A    between atoms: C_2  and  C_3
REMARK    3  A    between atoms: C_3  and  C_4
REMARK    4  A    between atoms: C_4  and  O_5
REMARK    5  A    between atoms: O_5  and  C_6
REMARK    6  A    between atoms: C_9  and  O_10
REMARK    7  A    between atoms: O_10  and  C_11
REMARK    8  A    between atoms: C_11  and  C_12
REMARK                            x       y       z     vdW  Elec       q    Type
REMARK                         _______ _______ _______ _____ _____    ______ ____
ROOT
ATOM      1  C   UNL     1      45.125   4.573  11.028  0.00  0.00    +0.000 A 
ATOM      2  C   UNL     1      45.149   3.526  11.924  0.00  0.00    +0.000 A 
ATOM      3  N   UNL     1      45.711   3.593  13.149  0.00  0.00    +0.000 NA
ATOM      4  C   UNL     1      46.280   4.765  13.472  0.00  0.00    +0.000 A 
ATOM      5  N   UNL     1      46.316   5.853  12.694  0.00  0.00    +0.000 NA
ATOM      6  C   UNL     1      45.747   5.721  11.474  0.00  0.00    +0.000 A 
ENDROOT
BRANCH   1   7
ATOM      7  O   UNL     1      44.588   4.577   9.778  0.00  0.00    +0.000 OA
BRANCH   7   8
ATOM      8  C   UNL     1      45.540   4.561   8.707  0.00  0.00    +0.000 C 
BRANCH   8   9
ATOM      9  C   UNL     1      45.238   3.376   7.796  0.00  0.00    +0.000 C 
BRANCH   9  10
ATOM     10  C   UNL     1      45.762   2.075   8.387  0.00  0.00    +0.000 C 
BRANCH  10  11
ATOM     11  O   UNL     1      44.756   1.468   9.185  0.00  0.00    +0.000 OA
ATOM     12  H   UNL     1      44.326   0.786   8.640  0.00  0.00    +0.000 HD
ENDBRANCH  10  11
ENDBRANCH   9  10
ENDBRANCH   8   9
ENDBRANCH   7   8
ENDBRANCH   1   7
BRANCH   4  13
ATOM     13  O   UNL     1      46.827   4.913  14.725  0.00  0.00    +0.000 OA
BRANCH  13  14
ATOM     14  C   UNL     1      47.290   3.660  15.226  0.00  0.00    +0.000 C 
BRANCH  14  15
ATOM     15  C   UNL     1      47.810   3.850  16.626  0.00  0.00    +0.000 A 
ATOM     16  C   UNL     1      48.729   2.950  17.158  0.00  0.00    +0.000 A 
ATOM     17  N   UNL     1      49.256   3.086  18.399  0.00  0.00    +0.000 NA
ATOM     18  C   UNL     1      48.824   4.160  19.093  0.00  0.00    +0.000 A 
ATOM     19  C   UNL     1      47.912   5.059  18.576  0.00  0.00    +0.000 A 
ATOM     20  N   UNL     1      47.392   4.934  17.333  0.00  0.00    +0.000 NA
ENDBRANCH  14  15
ENDBRANCH  13  14
ENDBRANCH   4  13
TORSDOF 8
ENDMDL
MODEL 8
REMARK VINA RESULT:    -5.336      2.604      3.917
REMARK INTER + INTRA:          -8.217
REMARK INTER:                  -7.577
REMARK INTRA:                  -0.640
REMARK UNBOUND:                -0.541
REMARK  Name = 
REMARK  8 active torsions:
REMARK  status: ('A' for Active; 'I' for Inactive)
REMARK    1  A    between atoms: O_1  and  C_2
REMARK    2  A    between atoms: C_2  and  C_3
REMARK    3  A    between atoms: C_3  and  C_4
REMARK    4  A    between atoms: C_4  and  O_5
REMARK    5  A    between atoms: O_5  and  C_6
REMARK    6  A    between atoms: C_9  and  O_10
REMARK    7  A    between atoms: O_10  and  C_11
REMARK    8  A    between atoms: C_11  and  C_12
REMARK                            x       y       z     vdW  Elec       q    Type
REMARK                         _______ _______ _______ _____ _____    ______ ____
ROOT
ATOM      1  C   UNL     1      48.254   5.179  17.507  0.00  0.00    +0.000 A 
ATOM      2  C   UNL     1      47.343   4.145  17.453  0.00  0.00    +0.000 A 
ATOM      3  N   UNL     1      46.754   3.715  16.318  0.00  0.00    +0.000 NA
ATOM      4  C   UNL     1      47.095   4.366  15.195  0.00  0.00    +0.000 A 
ATOM      5  N   UNL     1      47.969   5.377  15.117  0.00  0.00    +0.000 NA
ATOM      6  C   UNL     1      48.517   5.771  16.288  0.00  0.00    +0.000 A 
ENDROOT
BRANCH   1   7
ATOM      7  O   UNL     1      48.877   5.672  18.610  0.00  0.00    +0.000 OA
BRANCH   7   8
ATOM      8  C   UNL     1      48.036   6.407  19.507  0.00  0.00    +0.000 C 
BRANCH   8   9
ATOM      9  C   UNL     1      48.425   6.064  20.941  0.00  0.00    +0.000 C 
BRANCH   9  10
ATOM     10  C   UNL     1      49.228   4.773  21.003  0.00  0.00    +0.000 C 
BRANCH  10  11
ATOM     11  O   UNL     1      48.379   3.663  20.747  0.00  0.00    +0.000 OA
ATOM     12  H   UNL     1      47.797   3.909  20.006  0.00  0.00    +0.000 HD
ENDBRANCH  10  11
ENDBRANCH   9  10
ENDBRANCH   8   9
ENDBRANCH   7   8
ENDBRANCH   1   7
BRANCH   4  13
ATOM     13  O   UNL     1      46.567   3.944  13.997  0.00  0.00    +0.000 OA
BRANCH  13  14
ATOM     14  C   UNL     1      45.651   4.908  13.480  0.00  0.00    +0.000 C 
BRANCH  14  15
ATOM     15  C   UNL     1      45.158   4.448  12.134  0.00  0.00    +0.000 A 
ATOM     16  C   UNL     1      45.409   5.214  11.000  0.00  0.00    +0.000 A 
ATOM     17  N   UNL     1      45.019   4.837   9.758  0.00  0.00    +0.000 NA
ATOM     18  C   UNL     1      44.362   3.660   9.694  0.00  0.00    +0.000 A 
ATOM     19  C   UNL     1      44.106   2.892  10.814  0.00  0.00    +0.000 A 
ATOM     20  N   UNL     1      44.504   3.259  12.054  0.00  0.00    +0.000 NA
ENDBRANCH  14  15
ENDBRANCH  13  14
ENDBRANCH   4  13
TORSDOF 8
ENDMDL
MODEL 9
REMARK VINA RESULT:    -5.238      3.280      7.408
REMARK INTER + INTRA:          -8.076
REMARK INTER:                  -7.367
REMARK INTRA:                  -0.709
REMARK UNBOUND:                -0.541
REMARK  Name = 
REMARK  8 active torsions:
REMARK  status: ('A' for Active; 'I' for Inactive)
REMARK    1  A    between atoms: O_1  and  C_2
REMARK    2  A    between atoms: C_2  and  C_3
REMARK    3  A    between atoms: C_3  and  C_4
REMARK    4  A    between atoms: C_4  and  O_5
REMARK    5  A    between atoms: O_5  and  C_6
REMARK    6  A    between atoms: C_9  and  O_10
REMARK    7  A    between atoms: O_10  and  C_11
REMARK    8  A    between atoms: C_11  and  C_12
REMARK                            x       y       z     vdW  Elec       q    Type
REMARK                         _______ _______ _______ _____ _____    ______ ____
ROOT
ATOM      1  C   UNL     1      46.493   5.207  12.848  0.00  0.00    +0.000 A 
ATOM      2  C   UNL     1      46.408   4.184  13.769  0.00  0.00    +0.000 A 
ATOM      3  N   UNL     1      47.116   4.139  14.916  0.00  0.00    +0.000 NA
ATOM      4  C   UNL     1      47.951   5.167  15.132  0.00  0.00    +0.000 A 
ATOM      5  N   UNL     1      48.117   6.219  14.321  0.00  0.00    +0.000 NA
ATOM      6  C   UNL     1      47.389   6.201  13.182  0.00  0.00    +0.000 A 
ENDROOT
BRANCH   1   7
ATOM      7  O   UNL     1      45.821   5.314  11.671  0.00  0.00    +0.000 OA
BRANCH   7   8
ATOM      8  C   UNL     1      44.833   4.302  11.440  0.00  0.00    +0.000 C 
BRANCH   8   9
ATOM      9  C   UNL     1      43.519   4.974  11.058  0.00  0.00    +0.000 C 
BRANCH   9  10
ATOM     10  C   UNL     1      42.639   5.204  12.278  0.00  0.00    +0.000 C 
BRANCH  10  11
ATOM     11  O   UNL     1      43.320   6.027  13.215  0.00  0.00    +0.000 OA
ATOM     12  H   UNL     1      42.788   6.834  13.332  0.00  0.00    +0.000 HD
ENDBRANCH  10  11
ENDBRANCH   9  10
ENDBRANCH   8   9
ENDBRANCH   7   8
ENDBRANCH   1   7
BRANCH   4  13
ATOM     13  O   UNL     1      48.666   5.205  16.307  0.00  0.00    +0.000 OA
BRANCH  13  14
ATOM     14  C   UNL     1      48.415   4.039  17.090  0.00  0.00    +0.000 C 
BRANCH  14  15
ATOM     15  C   UNL     1      49.712   3.308  17.316  0.00  0.00    +0.000 A 
ATOM     16  C   UNL     1      49.843   1.981  16.917  0.00  0.00    +0.000 A 
ATOM     17  N   UNL     1      50.995   1.281  17.065  0.00  0.00    +0.000 NA
ATOM     18  C   UNL     1      52.013   1.961  17.633  0.00  0.00    +0.000 A 
ATOM     19  C   UNL     1      51.893   3.278  18.034  0.00  0.00    +0.000 A 
ATOM     20  N   UNL     1      50.749   3.984  17.877  0.00  0.00    +0.000 NA
ENDBRANCH  14  15
ENDBRANCH  13  14
ENDBRANCH   4  13
TORSDOF 8
ENDMDL
