MODEL 1
REMARK VINA RESULT:    -9.626      0.000      0.000
REMARK INTER + INTRA:         -13.880
REMARK INTER:                 -13.002
REMARK INTRA:                  -0.878
REMARK UNBOUND:                -0.878
REMARK  Name = 
REMARK  6 active torsions:
REMARK  status: ('A' for Active; 'I' for Inactive)
REMARK    1  A    between atoms: C_2  and  C_4
REMARK    2  A    between atoms: N_8  and  C_9
REMARK    3  A    between atoms: C_9  and  C_10
REMARK    4  A    between atoms: C_10  and  C_13
REMARK    5  A    between atoms: C_18  and  O_19
REMARK    6  A    between atoms: O_19  and  C_20
REMARK                            x       y       z     vdW  Elec       q    Type
REMARK                         _______ _______ _______ _____ _____    ______ ____
ROOT
ATOM      1  C   UNL     1      43.503   5.614  12.134  0.00  0.00    +0.000 C 
ATOM      2  F   UNL     1      43.051   6.777  11.574  0.00  0.00    +0.000 F 
ATOM      3  F   UNL     1      42.746   5.440  13.259  0.00  0.00    +0.000 F 
ENDROOT
BRANCH   1   4
ATOM      4  C   UNL     1      44.980   5.689  12.482  0.00  0.00    +0.000 A 
ATOM      5  C   UNL     1      45.795   6.688  11.934  0.00  0.00    +0.000 A 
ATOM      6  C   UNL     1      47.143   6.745  12.274  0.00  0.00    +0.000 A 
ATOM      7  F   UNL     1      47.915   7.701  11.742  0.00  0.00    +0.000 F 
ATOM      8  C   UNL     1      47.701   5.830  13.160  0.00  0.00    +0.000 A 
ATOM      9  C   UNL     1      46.898   4.842  13.726  0.00  0.00    +0.000 A 
ATOM     10  C   UNL     1      45.548   4.758  13.374  0.00  0.00    +0.000 A 
BRANCH   9  11
ATOM     11  O   UNL     1      47.529   3.990  14.598  0.00  0.00    +0.000 OA
BRANCH  11  12
ATOM     12  C   UNL     1      47.340   4.188  16.019  0.00  0.00    +0.000 C 
ATOM     13  C   UNL     1      48.305   5.125  16.757  0.00  0.00    +0.000 C 
ATOM     14  O   UNL     1      48.719   4.076  17.663  0.00  0.00    +0.000 OA
ATOM     15  C   UNL     1      47.944   3.105  16.925  0.00  0.00    +0.000 C 
ENDBRANCH  11  12
ENDBRANCH   9  11
ENDBRANCH   1   4
BRANCH   1  16
ATOM     16  C   UNL     1      43.206   4.454  11.145  0.00  0.00    +0.000 C 
BRANCH  16  21
ATOM     17  C   UNL     1      46.491   2.519   7.723  0.00  0.00    +0.000 A 
ATOM     18  C   UNL     1      45.675   1.857   8.634  0.00  0.00    +0.000 A 
ATOM     19  C   UNL     1      44.740   2.590   9.368  0.00  0.00    +0.000 A 
ATOM     20  C   UNL     1      44.645   3.966   9.186  0.00  0.00    +0.000 A 
ATOM     21  N   UNL     1      43.672   4.742   9.783  0.00  0.00    +0.000 N 
ATOM     22  N   UNL     1      45.458   4.620   8.337  0.00  0.00    +0.000 NA
ATOM     23  C   UNL     1      46.367   3.896   7.630  0.00  0.00    +0.000 A 
ATOM     24  H   UNL     1      43.874   5.722   9.583  0.00  0.00    +0.000 HD
BRANCH  17  26
ATOM     25  N   UNL     1      48.545   2.540   6.431  0.00  0.00    +0.000 N 
ATOM     26  C   UNL     1      47.466   1.819   6.863  0.00  0.00    +0.000 C 
ATOM     27  O   UNL     1      47.338   0.636   6.580  0.00  0.00    +0.000 OA
ATOM     28  H   UNL     1      49.265   2.020   5.946  0.00  0.00    +0.000 HD
ATOM     29  H   UNL     1      48.816   3.415   6.860  0.00  0.00    +0.000 HD
ENDBRANCH  17  26
ENDBRANCH  16  21
ENDBRANCH   1  16
TORSDOF 6
ENDMDL
MODEL 2
REMARK VINA RESULT:    -8.876      2.101      3.061
REMARK INTER + INTRA:         -12.867
REMARK INTER:                 -11.936
REMARK INTRA:                  -0.931
REMARK UNBOUND:                -0.878
REMARK  Name = 
REMARK  6 active torsions:
REMARK  status: ('A' for Active; 'I' for Inactive)
REMARK    1  A    between atoms: C_2  and  C_4
REMARK    2  A    between atoms: N_8  and  C_9
REMARK    3  A    between atoms: C_9  and  C_10
REMARK    4  A    between atoms: C_10  and  C_13
REMARK    5  A    between atoms: C_18  and  O_19
REMARK    6  A    between atoms: O_19  and  C_20
REMARK                            x       y       z     vdW  Elec       q    Type
REMARK                         _______ _______ _______ _____ _____    ______ ____
ROOT
ATOM      1  C   UNL     1      43.455   5.487  12.105  0.00  0.00    +0.000 C 
ATOM      2  F   UNL     1      43.130   6.679  11.517  0.00  0.00    +0.000 F 
ATOM      3  F   UNL     1      42.510   5.297  13.074  0.00  0.00    +0.000 F 
ENDROOT
BRANCH   1   4
ATOM      4  C   UNL     1      44.850   5.514  12.705  0.00  0.00    +0.000 A 
ATOM      5  C   UNL     1      45.444   4.341  13.190  0.00  0.00    +0.000 A 
ATOM      6  C   UNL     1      46.727   4.386  13.726  0.00  0.00    +0.000 A 
ATOM      7  F   UNL     1      47.283   3.260  14.191  0.00  0.00    +0.000 F 
ATOM      8  C   UNL     1      47.442   5.577  13.783  0.00  0.00    +0.000 A 
ATOM      9  C   UNL     1      46.870   6.747  13.289  0.00  0.00    +0.000 A 
ATOM     10  C   UNL     1      45.572   6.722  12.770  0.00  0.00    +0.000 A 
BRANCH   9  11
ATOM     11  O   UNL     1      47.652   7.872  13.375  0.00  0.00    +0.000 OA
BRANCH  11  12
ATOM     12  C   UNL     1      49.040   7.784  12.975  0.00  0.00    +0.000 C 
ATOM     13  C   UNL     1      49.889   9.062  13.010  0.00  0.00    +0.000 C 
ATOM     14  O   UNL     1      50.198   8.962  11.601  0.00  0.00    +0.000 OA
ATOM     15  C   UNL     1      49.298   7.840  11.462  0.00  0.00    +0.000 C 
ENDBRANCH  11  12
ENDBRANCH   9  11
ENDBRANCH   1   4
BRANCH   1  16
ATOM     16  C   UNL     1      43.312   4.368  11.038  0.00  0.00    +0.000 C 
BRANCH  16  21
ATOM     17  C   UNL     1      46.640   2.737   7.501  0.00  0.00    +0.000 A 
ATOM     18  C   UNL     1      45.802   1.999   8.330  0.00  0.00    +0.000 A 
ATOM     19  C   UNL     1      44.861   2.668   9.115  0.00  0.00    +0.000 A 
ATOM     20  C   UNL     1      44.781   4.056   9.065  0.00  0.00    +0.000 A 
ATOM     21  N   UNL     1      43.805   4.780   9.718  0.00  0.00    +0.000 N 
ATOM     22  N   UNL     1      45.615   4.780   8.297  0.00  0.00    +0.000 NA
ATOM     23  C   UNL     1      46.530   4.117   7.539  0.00  0.00    +0.000 A 
ATOM     24  H   UNL     1      44.018   5.773   9.617  0.00  0.00    +0.000 HD
BRANCH  17  26
ATOM     25  N   UNL     1      47.954   2.807   5.462  0.00  0.00    +0.000 N 
ATOM     26  C   UNL     1      47.624   2.113   6.594  0.00  0.00    +0.000 C 
ATOM     27  O   UNL     1      48.152   1.042   6.859  0.00  0.00    +0.000 OA
ATOM     28  H   UNL     1      48.716   2.429   4.912  0.00  0.00    +0.000 HD
ATOM     29  H   UNL     1      47.750   3.792   5.354  0.00  0.00    +0.000 HD
ENDBRANCH  17  26
ENDBRANCH  16  21
ENDBRANCH   1  16
TORSDOF 6
ENDMDL
MODEL 3
REMARK VINA RESULT:    -8.420      1.936      2.174
REMARK INTER + INTRA:         -12.251
REMARK INTER:                 -11.537
REMARK INTRA:                  -0.714
REMARK UNBOUND:                -0.878
REMARK  Name = 
REMARK  6 active torsions:
REMARK  status: ('A' for Active; 'I' for Inactive)
REMARK    1  A    between atoms: C_2  and  C_4
REMARK    2  A    between atoms: N_8  and  C_9
REMARK    3  A    between atoms: C_9  and  C_10
REMARK    4  A    between atoms: C_10  and  C_13
REMARK    5  A    between atoms: C_18  and  O_19
REMARK    6  A    between atoms: O_19  and  C_20
REMARK                            x       y       z     vdW  Elec       q    Type
REMARK                         _______ _______ _______ _____ _____    ______ ____
ROOT
ATOM      1  C   UNL     1      43.012   5.204  12.146  0.00  0.00    +0.000 C 
ATOM      2  F   UNL     1      41.887   5.834  11.692  0.00  0.00    +0.000 F 
ATOM      3  F   UNL     1      42.664   4.681  13.361  0.00  0.00    +0.000 F 
ENDROOT
BRANCH   1   4
ATOM      4  C   UNL     1      44.182   6.162  12.285  0.00  0.00    +0.000 A 
ATOM      5  C   UNL     1      44.136   7.437  11.704  0.00  0.00    +0.000 A 
ATOM      6  C   UNL     1      45.215   8.303  11.852  0.00  0.00    +0.000 A 
ATOM      7  F   UNL     1      45.163   9.518  11.290  0.00  0.00    +0.000 F 
ATOM      8  C   UNL     1      46.342   7.932  12.578  0.00  0.00    +0.000 A 
ATOM      9  C   UNL     1      46.393   6.675  13.174  0.00  0.00    +0.000 A 
ATOM     10  C   UNL     1      45.328   5.785  13.013  0.00  0.00    +0.000 A 
BRANCH   9  11
ATOM     11  O   UNL     1      47.538   6.399  13.880  0.00  0.00    +0.000 OA
BRANCH  11  12
ATOM     12  C   UNL     1      48.359   7.503  14.329  0.00  0.00    +0.000 C 
ATOM     13  C   UNL     1      49.757   7.665  13.718  0.00  0.00    +0.000 C 
ATOM     14  O   UNL     1      50.394   7.572  15.013  0.00  0.00    +0.000 OA
ATOM     15  C   UNL     1      49.127   7.268  15.638  0.00  0.00    +0.000 C 
ENDBRANCH  11  12
ENDBRANCH   9  11
ENDBRANCH   1   4
BRANCH   1  16
ATOM     16  C   UNL     1      43.340   4.038  11.173  0.00  0.00    +0.000 C 
BRANCH  16  21
ATOM     17  C   UNL     1      46.615   2.802   7.434  0.00  0.00    +0.000 A 
ATOM     18  C   UNL     1      45.912   1.972   8.300  0.00  0.00    +0.000 A 
ATOM     19  C   UNL     1      44.950   2.529   9.146  0.00  0.00    +0.000 A 
ATOM     20  C   UNL     1      44.717   3.901   9.117  0.00  0.00    +0.000 A 
ATOM     21  N   UNL     1      43.707   4.510   9.832  0.00  0.00    +0.000 N 
ATOM     22  N   UNL     1      45.421   4.716   8.311  0.00  0.00    +0.000 NA
ATOM     23  C   UNL     1      46.357   4.162   7.494  0.00  0.00    +0.000 A 
ATOM     24  H   UNL     1      43.804   5.520   9.731  0.00  0.00    +0.000 HD
BRANCH  17  26
ATOM     25  N   UNL     1      47.756   2.998   5.300  0.00  0.00    +0.000 N 
ATOM     26  C   UNL     1      47.607   2.295   6.464  0.00  0.00    +0.000 C 
ATOM     27  O   UNL     1      48.295   1.313   6.706  0.00  0.00    +0.000 OA
ATOM     28  H   UNL     1      48.520   2.714   4.701  0.00  0.00    +0.000 HD
ATOM     29  H   UNL     1      47.410   3.943   5.193  0.00  0.00    +0.000 HD
ENDBRANCH  17  26
ENDBRANCH  16  21
ENDBRANCH   1  16
TORSDOF 6
ENDMDL
MODEL 4
REMARK VINA RESULT:    -8.350      3.143      4.743
REMARK INTER + INTRA:         -12.158
REMARK INTER:                 -11.497
REMARK INTRA:                  -0.661
REMARK UNBOUND:                -0.878
REMARK  Name = 
REMARK  6 active torsions:
REMARK  status: ('A' for Active; 'I' for Inactive)
REMARK    1  A    between atoms: C_2  and  C_4
REMARK    2  A    between atoms: N_8  and  C_9
REMARK    3  A    between atoms: C_9  and  C_10
REMARK    4  A    between atoms: C_10  and  C_13
REMARK    5  A    between atoms: C_18  and  O_19
REMARK    6  A    between atoms: O_19  and  C_20
REMARK                            x       y       z     vdW  Elec       q    Type
REMARK                         _______ _______ _______ _____ _____    ______ ____
ROOT
ATOM      1  C   UNL     1      44.448   4.762  12.276  0.00  0.00    +0.000 C 
ATOM      2  F   UNL     1      43.835   4.625  13.491  0.00  0.00    +0.000 F 
ATOM      3  F   UNL     1      45.344   3.731  12.208  0.00  0.00    +0.000 F 
ENDROOT
BRANCH   1   4
ATOM      4  C   UNL     1      45.153   6.100  12.145  0.00  0.00    +0.000 A 
ATOM      5  C   UNL     1      46.548   6.190  12.251  0.00  0.00    +0.000 A 
ATOM      6  C   UNL     1      47.174   7.425  12.118  0.00  0.00    +0.000 A 
ATOM      7  F   UNL     1      48.507   7.500  12.226  0.00  0.00    +0.000 F 
ATOM      8  C   UNL     1      46.441   8.580  11.869  0.00  0.00    +0.000 A 
ATOM      9  C   UNL     1      45.057   8.503  11.743  0.00  0.00    +0.000 A 
ATOM     10  C   UNL     1      44.411   7.273  11.900  0.00  0.00    +0.000 A 
BRANCH   9  11
ATOM     11  O   UNL     1      44.417   9.690  11.487  0.00  0.00    +0.000 OA
BRANCH  11  12
ATOM     12  C   UNL     1      43.272   9.683  10.600  0.00  0.00    +0.000 C 
ATOM     13  C   UNL     1      43.286  10.625   9.389  0.00  0.00    +0.000 C 
ATOM     14  O   UNL     1      42.073  11.285   9.818  0.00  0.00    +0.000 OA
ATOM     15  C   UNL     1      42.078  10.535  11.054  0.00  0.00    +0.000 C 
ENDBRANCH  11  12
ENDBRANCH   9  11
ENDBRANCH   1   4
BRANCH   1  16
ATOM     16  C   UNL     1      43.376   4.569  11.169  0.00  0.00    +0.000 C 
BRANCH  16  21
ATOM     17  C   UNL     1      46.510   2.522   7.672  0.00  0.00    +0.000 A 
ATOM     18  C   UNL     1      45.622   1.892   8.537  0.00  0.00    +0.000 A 
ATOM     19  C   UNL     1      44.751   2.669   9.303  0.00  0.00    +0.000 A 
ATOM     20  C   UNL     1      44.789   4.056   9.198  0.00  0.00    +0.000 A 
ATOM     21  N   UNL     1      43.886   4.886   9.829  0.00  0.00    +0.000 N 
ATOM     22  N   UNL     1      45.672   4.675   8.394  0.00  0.00    +0.000 NA
ATOM     23  C   UNL     1      46.518   3.907   7.655  0.00  0.00    +0.000 A 
ATOM     24  H   UNL     1      44.182   5.852   9.687  0.00  0.00    +0.000 HD
BRANCH  17  26
ATOM     25  N   UNL     1      48.553   2.435   6.365  0.00  0.00    +0.000 N 
ATOM     26  C   UNL     1      47.426   1.781   6.782  0.00  0.00    +0.000 C 
ATOM     27  O   UNL     1      47.209   0.620   6.461  0.00  0.00    +0.000 OA
ATOM     28  H   UNL     1      49.230   1.879   5.858  0.00  0.00    +0.000 HD
ATOM     29  H   UNL     1      48.890   3.272   6.821  0.00  0.00    +0.000 HD
ENDBRANCH  17  26
ENDBRANCH  16  21
ENDBRANCH   1  16
TORSDOF 6
ENDMDL
MODEL 5
REMARK VINA RESULT:    -8.006      3.142      7.728
REMARK INTER + INTRA:         -11.693
REMARK INTER:                 -10.945
REMARK INTRA:                  -0.747
REMARK UNBOUND:                -0.878
REMARK  Name = 
REMARK  6 active torsions:
REMARK  status: ('A' for Active; 'I' for Inactive)
REMARK    1  A    between atoms: C_2  and  C_4
REMARK    2  A    between atoms: N_8  and  C_9
REMARK    3  A    between atoms: C_9  and  C_10
REMARK    4  A    between atoms: C_10  and  C_13
REMARK    5  A    between atoms: C_18  and  O_19
REMARK    6  A    between atoms: O_19  and  C_20
REMARK                            x       y       z     vdW  Elec       q    Type
REMARK                         _______ _______ _______ _____ _____    ______ ____
ROOT
ATOM      1  C   UNL     1      45.806   6.350  11.390  0.00  0.00    +0.000 C 
ATOM      2  F   UNL     1      45.052   7.445  11.068  0.00  0.00    +0.000 F 
ATOM      3  F   UNL     1      47.078   6.664  11.000  0.00  0.00    +0.000 F 
ENDROOT
BRANCH   1   4
ATOM      4  C   UNL     1      45.317   5.098  10.683  0.00  0.00    +0.000 A 
ATOM      5  C   UNL     1      44.499   4.174  11.347  0.00  0.00    +0.000 A 
ATOM      6  C   UNL     1      44.053   3.038  10.678  0.00  0.00    +0.000 A 
ATOM      7  F   UNL     1      43.276   2.159  11.323  0.00  0.00    +0.000 F 
ATOM      8  C   UNL     1      44.396   2.804   9.351  0.00  0.00    +0.000 A 
ATOM      9  C   UNL     1      45.194   3.723   8.674  0.00  0.00    +0.000 A 
ATOM     10  C   UNL     1      45.670   4.855   9.341  0.00  0.00    +0.000 A 
BRANCH   9  11
ATOM     11  O   UNL     1      45.473   3.416   7.365  0.00  0.00    +0.000 OA
BRANCH  11  12
ATOM     12  C   UNL     1      46.854   3.216   6.979  0.00  0.00    +0.000 C 
ATOM     13  C   UNL     1      47.151   2.809   5.530  0.00  0.00    +0.000 C 
ATOM     14  O   UNL     1      47.819   1.596   5.949  0.00  0.00    +0.000 OA
ATOM     15  C   UNL     1      47.445   1.842   7.323  0.00  0.00    +0.000 C 
ENDBRANCH  11  12
ENDBRANCH   9  11
ENDBRANCH   1   4
BRANCH   1  16
ATOM     16  C   UNL     1      45.781   6.183  12.933  0.00  0.00    +0.000 C 
BRANCH  16  21
ATOM     17  C   UNL     1      48.425   4.014  16.748  0.00  0.00    +0.000 A 
ATOM     18  C   UNL     1      47.492   3.446  15.887  0.00  0.00    +0.000 A 
ATOM     19  C   UNL     1      47.009   4.198  14.815  0.00  0.00    +0.000 A 
ATOM     20  C   UNL     1      47.458   5.502  14.629  0.00  0.00    +0.000 A 
ATOM     21  N   UNL     1      47.119   6.268  13.531  0.00  0.00    +0.000 N 
ATOM     22  N   UNL     1      48.329   6.073  15.480  0.00  0.00    +0.000 NA
ATOM     23  C   UNL     1      48.790   5.331  16.522  0.00  0.00    +0.000 A 
ATOM     24  H   UNL     1      47.480   7.211  13.674  0.00  0.00    +0.000 HD
BRANCH  17  26
ATOM     25  N   UNL     1      48.345   3.260  19.053  0.00  0.00    +0.000 N 
ATOM     26  C   UNL     1      49.035   3.275  17.872  0.00  0.00    +0.000 C 
ATOM     27  O   UNL     1      50.089   2.669  17.744  0.00  0.00    +0.000 OA
ATOM     28  H   UNL     1      48.709   2.653  19.776  0.00  0.00    +0.000 HD
ATOM     29  H   UNL     1      47.367   3.512  19.110  0.00  0.00    +0.000 HD
ENDBRANCH  17  26
ENDBRANCH  16  21
ENDBRANCH   1  16
TORSDOF 6
ENDMDL
MODEL 6
REMARK VINA RESULT:    -6.905      3.151      3.948
REMARK INTER + INTRA:         -10.205
REMARK INTER:                  -9.286
REMARK INTRA:                  -0.920
REMARK UNBOUND:                -0.878
REMARK  Name = 
REMARK  6 active torsions:
REMARK  status: ('A' for Active; 'I' for Inactive)
REMARK    1  A    between atoms: C_2  and  C_4
REMARK    2  A    between atoms: N_8  and  C_9
REMARK    3  A    between atoms: C_9  and  C_10
REMARK    4  A    between atoms: C_10  and  C_13
REMARK    5  A    between atoms: C_18  and  O_19
REMARK    6  A    between atoms: O_19  and  C_20
REMARK                            x       y       z     vdW  Elec       q    Type
REMARK                         _______ _______ _______ _____ _____    ______ ____
ROOT
ATOM      1  C   UNL     1      44.004   5.509  12.477  0.00  0.00    +0.000 C 
ATOM      2  F   UNL     1      43.059   5.443  13.463  0.00  0.00    +0.000 F 
ATOM      3  F   UNL     1      45.086   4.837  12.972  0.00  0.00    +0.000 F 
ENDROOT
BRANCH   1   4
ATOM      4  C   UNL     1      44.367   6.943  12.135  0.00  0.00    +0.000 A 
ATOM      5  C   UNL     1      43.537   7.715  11.311  0.00  0.00    +0.000 A 
ATOM      6  C   UNL     1      43.883   9.031  11.019  0.00  0.00    +0.000 A 
ATOM      7  F   UNL     1      43.086   9.759  10.227  0.00  0.00    +0.000 F 
ATOM      8  C   UNL     1      45.039   9.603  11.539  0.00  0.00    +0.000 A 
ATOM      9  C   UNL     1      45.863   8.852  12.373  0.00  0.00    +0.000 A 
ATOM     10  C   UNL     1      45.541   7.522  12.655  0.00  0.00    +0.000 A 
BRANCH   9  11
ATOM     11  O   UNL     1      46.975   9.501  12.850  0.00  0.00    +0.000 OA
BRANCH  11  12
ATOM     12  C   UNL     1      48.098   9.700  11.957  0.00  0.00    +0.000 C 
ATOM     13  C   UNL     1      49.048   8.520  11.711  0.00  0.00    +0.000 C 
ATOM     14  O   UNL     1      50.189   9.267  12.189  0.00  0.00    +0.000 OA
ATOM     15  C   UNL     1      49.333  10.363  12.583  0.00  0.00    +0.000 C 
ENDBRANCH  11  12
ENDBRANCH   9  11
ENDBRANCH   1   4
BRANCH   1  16
ATOM     16  C   UNL     1      43.462   4.745  11.237  0.00  0.00    +0.000 C 
BRANCH  16  21
ATOM     17  C   UNL     1      46.458   3.134   7.407  0.00  0.00    +0.000 A 
ATOM     18  C   UNL     1      46.294   4.417   7.919  0.00  0.00    +0.000 A 
ATOM     19  C   UNL     1      45.533   4.596   9.076  0.00  0.00    +0.000 A 
ATOM     20  C   UNL     1      44.944   3.496   9.691  0.00  0.00    +0.000 A 
ATOM     21  N   UNL     1      44.278   3.572  10.897  0.00  0.00    +0.000 N 
ATOM     22  N   UNL     1      45.064   2.257   9.180  0.00  0.00    +0.000 NA
ATOM     23  C   UNL     1      45.805   2.096   8.051  0.00  0.00    +0.000 A 
ATOM     24  H   UNL     1      43.849   2.666  11.086  0.00  0.00    +0.000 HD
BRANCH  17  26
ATOM     25  N   UNL     1      48.605   2.530   6.450  0.00  0.00    +0.000 N 
ATOM     26  C   UNL     1      47.293   2.843   6.224  0.00  0.00    +0.000 C 
ATOM     27  O   UNL     1      46.825   2.840   5.094  0.00  0.00    +0.000 OA
ATOM     28  H   UNL     1      49.135   2.215   5.647  0.00  0.00    +0.000 HD
ATOM     29  H   UNL     1      48.946   2.261   7.364  0.00  0.00    +0.000 HD
ENDBRANCH  17  26
ENDBRANCH  16  21
ENDBRANCH   1  16
TORSDOF 6
ENDMDL
MODEL 7
REMARK VINA RESULT:    -6.826      3.284      7.923
REMARK INTER + INTRA:         -10.099
REMARK INTER:                  -9.759
REMARK INTRA:                  -0.340
REMARK UNBOUND:                -0.878
REMARK  Name = 
REMARK  6 active torsions:
REMARK  status: ('A' for Active; 'I' for Inactive)
REMARK    1  A    between atoms: C_2  and  C_4
REMARK    2  A    between atoms: N_8  and  C_9
REMARK    3  A    between atoms: C_9  and  C_10
REMARK    4  A    between atoms: C_10  and  C_13
REMARK    5  A    between atoms: C_18  and  O_19
REMARK    6  A    between atoms: O_19  and  C_20
REMARK                            x       y       z     vdW  Elec       q    Type
REMARK                         _______ _______ _______ _____ _____    ______ ____
ROOT
ATOM      1  C   UNL     1      46.344   7.182  12.399  0.00  0.00    +0.000 C 
ATOM      2  F   UNL     1      45.599   7.781  13.376  0.00  0.00    +0.000 F 
ATOM      3  F   UNL     1      46.885   8.211  11.679  0.00  0.00    +0.000 F 
ENDROOT
BRANCH   1   4
ATOM      4  C   UNL     1      45.499   6.285  11.512  0.00  0.00    +0.000 A 
ATOM      5  C   UNL     1      44.201   5.918  11.892  0.00  0.00    +0.000 A 
ATOM      6  C   UNL     1      43.440   5.104  11.059  0.00  0.00    +0.000 A 
ATOM      7  F   UNL     1      42.203   4.755  11.434  0.00  0.00    +0.000 F 
ATOM      8  C   UNL     1      43.940   4.652   9.843  0.00  0.00    +0.000 A 
ATOM      9  C   UNL     1      45.221   5.024   9.444  0.00  0.00    +0.000 A 
ATOM     10  C   UNL     1      46.006   5.820  10.282  0.00  0.00    +0.000 A 
BRANCH   9  11
ATOM     11  O   UNL     1      45.627   4.542   8.224  0.00  0.00    +0.000 OA
BRANCH  11  12
ATOM     12  C   UNL     1      45.275   3.185   7.864  0.00  0.00    +0.000 C 
ATOM     13  C   UNL     1      45.482   2.079   8.907  0.00  0.00    +0.000 C 
ATOM     14  O   UNL     1      46.368   1.343   8.034  0.00  0.00    +0.000 OA
ATOM     15  C   UNL     1      46.337   2.415   7.065  0.00  0.00    +0.000 C 
ENDBRANCH  11  12
ENDBRANCH   9  11
ENDBRANCH   1   4
BRANCH   1  16
ATOM     16  C   UNL     1      47.492   6.391  13.084  0.00  0.00    +0.000 C 
BRANCH  16  21
ATOM     17  C   UNL     1      48.935   4.644  17.678  0.00  0.00    +0.000 A 
ATOM     18  C   UNL     1      49.081   5.915  17.132  0.00  0.00    +0.000 A 
ATOM     19  C   UNL     1      48.469   6.205  15.911  0.00  0.00    +0.000 A 
ATOM     20  C   UNL     1      47.733   5.222  15.257  0.00  0.00    +0.000 A 
ATOM     21  N   UNL     1      47.003   5.463  14.111  0.00  0.00    +0.000 N 
ATOM     22  N   UNL     1      47.621   3.979  15.757  0.00  0.00    +0.000 NA
ATOM     23  C   UNL     1      48.224   3.707  16.946  0.00  0.00    +0.000 A 
ATOM     24  H   UNL     1      46.642   4.573  13.766  0.00  0.00    +0.000 HD
BRANCH  17  26
ATOM     25  N   UNL     1      48.623   3.780  19.924  0.00  0.00    +0.000 N 
ATOM     26  C   UNL     1      49.497   4.265  18.990  0.00  0.00    +0.000 C 
ATOM     27  O   UNL     1      50.696   4.341  19.220  0.00  0.00    +0.000 OA
ATOM     28  H   UNL     1      49.034   3.411  20.772  0.00  0.00    +0.000 HD
ATOM     29  H   UNL     1      47.697   3.454  19.679  0.00  0.00    +0.000 HD
ENDBRANCH  17  26
ENDBRANCH  16  21
ENDBRANCH   1  16
TORSDOF 6
ENDMDL
