MODEL 1
REMARK VINA RESULT:    -8.241      0.000      0.000
REMARK INTER + INTRA:         -12.437
REMARK INTER:                 -11.372
REMARK INTRA:                  -1.065
REMARK UNBOUND:                -1.065
REMARK  Name = 
REMARK  8 active torsions:
REMARK  status: ('A' for Active; 'I' for Inactive)
REMARK    1  A    between atoms: C_1  and  C_2
REMARK    2  A    between atoms: C_2  and  C_3
REMARK    3  A    between atoms: C_7  and  C_8
REMARK    4  A    between atoms: C_8  and  C_9
REMARK    5  A    between atoms: C_9  and  N_10
REMARK    6  A    between atoms: N_10  and  C_11
REMARK    7  A    between atoms: C_14  and  C_15
REMARK    8  A    between atoms: C_23  and  O_24
REMARK                            x       y       z     vdW  Elec       q    Type
REMARK                         _______ _______ _______ _____ _____    ______ ____
ROOT
ATOM      1  C   UNL     1      46.889   6.685  12.949  0.00  0.00    +0.000 A 
ATOM      2  C   UNL     1      47.486   5.619  13.639  0.00  0.00    +0.000 A 
ATOM      3  C   UNL     1      46.779   4.439  13.897  0.00  0.00    +0.000 A 
ATOM      4  C   UNL     1      45.453   4.300  13.485  0.00  0.00    +0.000 A 
ATOM      5  C   UNL     1      44.822   5.334  12.790  0.00  0.00    +0.000 A 
ATOM      6  C   UNL     1      45.568   6.498  12.517  0.00  0.00    +0.000 A 
ENDROOT
BRANCH   1   8
ATOM      7  C   UNL     1      46.544   9.053  12.291  0.00  0.00    +0.000 C 
ATOM      8  C   UNL     1      47.616   8.039  12.761  0.00  0.00    +0.000 C 
ATOM      9  C   UNL     1      48.252   8.491  14.103  0.00  0.00    +0.000 C 
ATOM     10  C   UNL     1      49.102   9.763  13.993  0.00  0.00    +0.000 C 
ATOM     11  C   UNL     1      50.170   9.684  12.905  0.00  0.00    +0.000 C 
ATOM     12  C   UNL     1      49.585   9.254  11.564  0.00  0.00    +0.000 C 
ATOM     13  C   UNL     1      48.747   7.980  11.685  0.00  0.00    +0.000 C 
BRANCH  11  14
ATOM     14  O   UNL     1      51.207   8.785  13.293  0.00  0.00    +0.000 OA
ATOM     15  H   UNL     1      51.826   8.675  12.553  0.00  0.00    +0.000 HD
ENDBRANCH  11  14
ENDBRANCH   1   8
BRANCH   5  16
ATOM     16  C   UNL     1      43.357   5.206  12.396  0.00  0.00    +0.000 C 
BRANCH  16  17
ATOM     17  C   UNL     1      43.138   4.330  11.155  0.00  0.00    +0.000 C 
BRANCH  17  18
ATOM     18  N   UNL     1      43.731   4.869   9.931  0.00  0.00    +0.000 N 
ATOM     19  H   UNL     1      44.233   5.740  10.099  0.00  0.00    +0.000 HD
BRANCH  18  20
ATOM     20  C   UNL     1      44.530   3.951   9.212  0.00  0.00    +0.000 A 
ATOM     21  C   UNL     1      45.485   4.344   8.264  0.00  0.00    +0.000 A 
ATOM     22  C   UNL     1      46.302   3.405   7.640  0.00  0.00    +0.000 A 
ATOM     23  C   UNL     1      46.172   2.077   8.004  0.00  0.00    +0.000 A 
ATOM     24  N   UNL     1      45.287   1.635   8.940  0.00  0.00    +0.000 NA
ATOM     25  C   UNL     1      44.511   2.587   9.522  0.00  0.00    +0.000 A 
BRANCH  23  26
ATOM     26  C   UNL     1      47.066   1.052   7.377  0.00  0.00    +0.000 C 
ATOM     27  N   UNL     1      46.797  -0.244   7.715  0.00  0.00    +0.000 N 
ATOM     28  O   UNL     1      47.981   1.346   6.620  0.00  0.00    +0.000 OA
ATOM     29  H   UNL     1      46.044  -0.440   8.371  0.00  0.00    +0.000 HD
ATOM     30  H   UNL     1      47.381  -0.986   7.363  0.00  0.00    +0.000 HD
ENDBRANCH  23  26
ENDBRANCH  18  20
ENDBRANCH  17  18
ENDBRANCH  16  17
ENDBRANCH   5  16
TORSDOF 7
ENDMDL
MODEL 2
REMARK VINA RESULT:    -7.828      1.193      2.058
REMARK INTER + INTRA:         -11.867
REMARK INTER:                 -11.030
REMARK INTRA:                  -0.837
REMARK UNBOUND:                -1.065
REMARK  Name = 
REMARK  8 active torsions:
REMARK  status: ('A' for Active; 'I' for Inactive)
REMARK    1  A    between atoms: C_1  and  C_2
REMARK    2  A    between atoms: C_2  and  C_3
REMARK    3  A    between atoms: C_7  and  C_8
REMARK    4  A    between atoms: C_8  and  C_9
REMARK    5  A    between atoms: C_9  and  N_10
REMARK    6  A    between atoms: N_10  and  C_11
REMARK    7  A    between atoms: C_14  and  C_15
REMARK    8  A    between atoms: C_23  and  O_24
REMARK                            x       y       z     vdW  Elec       q    Type
REMARK                         _______ _______ _______ _____ _____    ______ ____
ROOT
ATOM      1  C   UNL     1      47.664   8.564  12.174  0.00  0.00    +0.000 A 
ATOM      2  C   UNL     1      46.608   9.436  12.478  0.00  0.00    +0.000 A 
ATOM      3  C   UNL     1      45.281   8.992  12.482  0.00  0.00    +0.000 A 
ATOM      4  C   UNL     1      44.975   7.666  12.168  0.00  0.00    +0.000 A 
ATOM      5  C   UNL     1      45.996   6.763  11.866  0.00  0.00    +0.000 A 
ATOM      6  C   UNL     1      47.324   7.231  11.900  0.00  0.00    +0.000 A 
ENDROOT
BRANCH   1   8
ATOM      7  C   UNL     1      49.092  10.271  11.074  0.00  0.00    +0.000 C 
ATOM      8  C   UNL     1      49.123   9.067  12.048  0.00  0.00    +0.000 C 
ATOM      9  C   UNL     1      49.659   9.497  13.440  0.00  0.00    +0.000 C 
ATOM     10  C   UNL     1      51.140   9.895  13.442  0.00  0.00    +0.000 C 
ATOM     11  C   UNL     1      52.052   8.834  12.832  0.00  0.00    +0.000 C 
ATOM     12  C   UNL     1      51.568   8.391  11.456  0.00  0.00    +0.000 C 
ATOM     13  C   UNL     1      50.093   7.988  11.468  0.00  0.00    +0.000 C 
BRANCH  11  14
ATOM     14  O   UNL     1      52.149   7.706  13.699  0.00  0.00    +0.000 OA
ATOM     15  H   UNL     1      51.273   7.296  13.786  0.00  0.00    +0.000 HD
ENDBRANCH  11  14
ENDBRANCH   1   8
BRANCH   5  16
ATOM     16  C   UNL     1      45.656   5.335  11.463  0.00  0.00    +0.000 C 
BRANCH  16  17
ATOM     17  C   UNL     1      44.156   5.116  11.216  0.00  0.00    +0.000 C 
BRANCH  17  18
ATOM     18  N   UNL     1      43.801   4.942   9.808  0.00  0.00    +0.000 N 
ATOM     19  H   UNL     1      43.764   5.829   9.309  0.00  0.00    +0.000 HD
BRANCH  18  20
ATOM     20  C   UNL     1      44.596   4.000   9.115  0.00  0.00    +0.000 A 
ATOM     21  C   UNL     1      45.597   4.364   8.204  0.00  0.00    +0.000 A 
ATOM     22  C   UNL     1      46.405   3.401   7.606  0.00  0.00    +0.000 A 
ATOM     23  C   UNL     1      46.218   2.076   7.959  0.00  0.00    +0.000 A 
ATOM     24  N   UNL     1      45.285   1.661   8.860  0.00  0.00    +0.000 NA
ATOM     25  C   UNL     1      44.520   2.636   9.418  0.00  0.00    +0.000 A 
BRANCH  23  26
ATOM     26  C   UNL     1      47.100   1.025   7.360  0.00  0.00    +0.000 C 
ATOM     27  N   UNL     1      46.771  -0.263   7.675  0.00  0.00    +0.000 N 
ATOM     28  O   UNL     1      48.056   1.291   6.644  0.00  0.00    +0.000 OA
ATOM     29  H   UNL     1      45.984  -0.437   8.297  0.00  0.00    +0.000 HD
ATOM     30  H   UNL     1      47.341  -1.023   7.341  0.00  0.00    +0.000 HD
ENDBRANCH  23  26
ENDBRANCH  18  20
ENDBRANCH  17  18
ENDBRANCH  16  17
ENDBRANCH   5  16
TORSDOF 7
ENDMDL
MODEL 3
REMARK VINA RESULT:    -7.429      2.498      3.432
REMARK INTER + INTRA:         -11.316
REMARK INTER:                 -10.331
REMARK INTRA:                  -0.986
REMARK UNBOUND:                -1.065
REMARK  Name = 
REMARK  8 active torsions:
REMARK  status: ('A' for Active; 'I' for Inactive)
REMARK    1  A    between atoms: C_1  and  C_2
REMARK    2  A    between atoms: C_2  and  C_3
REMARK    3  A    between atoms: C_7  and  C_8
REMARK    4  A    between atoms: C_8  and  C_9
REMARK    5  A    between atoms: C_9  and  N_10
REMARK    6  A    between atoms: N_10  and  C_11
REMARK    7  A    between atoms: C_14  and  C_15
REMARK    8  A    between atoms: C_23  and  O_24
REMARK                            x       y       z     vdW  Elec       q    Type
REMARK                         _______ _______ _______ _____ _____    ______ ____
ROOT
ATOM      1  C   UNL     1      48.239   7.100  13.950  0.00  0.00    +0.000 A 
ATOM      2  C   UNL     1      48.793   7.682  12.799  0.00  0.00    +0.000 A 
ATOM      3  C   UNL     1      48.214   7.486  11.540  0.00  0.00    +0.000 A 
ATOM      4  C   UNL     1      47.074   6.693  11.398  0.00  0.00    +0.000 A 
ATOM      5  C   UNL     1      46.488   6.101  12.518  0.00  0.00    +0.000 A 
ATOM      6  C   UNL     1      47.074   6.341  13.776  0.00  0.00    +0.000 A 
ENDROOT
BRANCH   1   8
ATOM      7  C   UNL     1      50.457   7.276  15.051  0.00  0.00    +0.000 C 
ATOM      8  C   UNL     1      48.935   7.208  15.329  0.00  0.00    +0.000 C 
ATOM      9  C   UNL     1      48.452   8.484  16.070  0.00  0.00    +0.000 C 
ATOM     10  C   UNL     1      48.990   8.616  17.499  0.00  0.00    +0.000 C 
ATOM     11  C   UNL     1      48.734   7.380  18.359  0.00  0.00    +0.000 C 
ATOM     12  C   UNL     1      49.206   6.103  17.673  0.00  0.00    +0.000 C 
ATOM     13  C   UNL     1      48.656   5.978  16.251  0.00  0.00    +0.000 C 
BRANCH  11  14
ATOM     14  O   UNL     1      47.347   7.277  18.677  0.00  0.00    +0.000 OA
ATOM     15  H   UNL     1      46.911   8.121  18.475  0.00  0.00    +0.000 HD
ENDBRANCH  11  14
ENDBRANCH   1   8
BRANCH   5  16
ATOM     16  C   UNL     1      45.282   5.185  12.352  0.00  0.00    +0.000 C 
BRANCH  16  17
ATOM     17  C   UNL     1      44.420   5.533  11.130  0.00  0.00    +0.000 C 
BRANCH  17  18
ATOM     18  N   UNL     1      43.930   4.369  10.393  0.00  0.00    +0.000 N 
ATOM     19  H   UNL     1      43.037   4.551   9.937  0.00  0.00    +0.000 HD
BRANCH  18  20
ATOM     20  C   UNL     1      44.862   3.815   9.485  0.00  0.00    +0.000 A 
ATOM     21  C   UNL     1      45.032   2.435   9.309  0.00  0.00    +0.000 A 
ATOM     22  C   UNL     1      45.907   1.939   8.346  0.00  0.00    +0.000 A 
ATOM     23  C   UNL     1      46.580   2.843   7.543  0.00  0.00    +0.000 A 
ATOM     24  N   UNL     1      46.434   4.193   7.643  0.00  0.00    +0.000 NA
ATOM     25  C   UNL     1      45.570   4.631   8.596  0.00  0.00    +0.000 A 
BRANCH  23  26
ATOM     26  C   UNL     1      47.496   2.335   6.473  0.00  0.00    +0.000 C 
ATOM     27  N   UNL     1      47.442   3.012   5.288  0.00  0.00    +0.000 N 
ATOM     28  O   UNL     1      48.239   1.377   6.637  0.00  0.00    +0.000 OA
ATOM     29  H   UNL     1      46.788   3.785   5.186  0.00  0.00    +0.000 HD
ATOM     30  H   UNL     1      48.002   2.704   4.509  0.00  0.00    +0.000 HD
ENDBRANCH  23  26
ENDBRANCH  18  20
ENDBRANCH  17  18
ENDBRANCH  16  17
ENDBRANCH   5  16
TORSDOF 7
ENDMDL
MODEL 4
REMARK VINA RESULT:    -7.420      1.500      2.409
REMARK INTER + INTRA:         -11.304
REMARK INTER:                 -10.653
REMARK INTRA:                  -0.651
REMARK UNBOUND:                -1.065
REMARK  Name = 
REMARK  8 active torsions:
REMARK  status: ('A' for Active; 'I' for Inactive)
REMARK    1  A    between atoms: C_1  and  C_2
REMARK    2  A    between atoms: C_2  and  C_3
REMARK    3  A    between atoms: C_7  and  C_8
REMARK    4  A    between atoms: C_8  and  C_9
REMARK    5  A    between atoms: C_9  and  N_10
REMARK    6  A    between atoms: N_10  and  C_11
REMARK    7  A    between atoms: C_14  and  C_15
REMARK    8  A    between atoms: C_23  and  O_24
REMARK                            x       y       z     vdW  Elec       q    Type
REMARK                         _______ _______ _______ _____ _____    ______ ____
ROOT
ATOM      1  C   UNL     1      46.021   6.892  12.507  0.00  0.00    +0.000 A 
ATOM      2  C   UNL     1      45.230   7.784  11.768  0.00  0.00    +0.000 A 
ATOM      3  C   UNL     1      43.922   7.453  11.396  0.00  0.00    +0.000 A 
ATOM      4  C   UNL     1      43.377   6.215  11.743  0.00  0.00    +0.000 A 
ATOM      5  C   UNL     1      44.128   5.300  12.483  0.00  0.00    +0.000 A 
ATOM      6  C   UNL     1      45.430   5.674  12.870  0.00  0.00    +0.000 A 
ENDROOT
BRANCH   1   8
ATOM      7  C   UNL     1      48.094   5.909  13.454  0.00  0.00    +0.000 C 
ATOM      8  C   UNL     1      47.507   7.195  12.822  0.00  0.00    +0.000 C 
ATOM      9  C   UNL     1      48.262   7.562  11.517  0.00  0.00    +0.000 C 
ATOM     10  C   UNL     1      49.715   8.000  11.739  0.00  0.00    +0.000 C 
ATOM     11  C   UNL     1      49.858   9.123  12.764  0.00  0.00    +0.000 C 
ATOM     12  C   UNL     1      49.139   8.797  14.069  0.00  0.00    +0.000 C 
ATOM     13  C   UNL     1      47.689   8.370  13.834  0.00  0.00    +0.000 C 
BRANCH  11  14
ATOM     14  O   UNL     1      49.361  10.348  12.229  0.00  0.00    +0.000 OA
ATOM     15  H   UNL     1      48.681  10.702  12.824  0.00  0.00    +0.000 HD
ENDBRANCH  11  14
ENDBRANCH   1   8
BRANCH   5  16
ATOM     16  C   UNL     1      43.555   3.927  12.807  0.00  0.00    +0.000 C 
BRANCH  16  17
ATOM     17  C   UNL     1      43.548   2.975  11.602  0.00  0.00    +0.000 C 
BRANCH  17  18
ATOM     18  N   UNL     1      43.503   3.652  10.306  0.00  0.00    +0.000 N 
ATOM     19  H   UNL     1      43.413   4.662  10.403  0.00  0.00    +0.000 HD
BRANCH  18  20
ATOM     20  C   UNL     1      44.562   3.316   9.432  0.00  0.00    +0.000 A 
ATOM     21  C   UNL     1      45.032   2.007   9.263  0.00  0.00    +0.000 A 
ATOM     22  C   UNL     1      46.026   1.717   8.332  0.00  0.00    +0.000 A 
ATOM     23  C   UNL     1      46.515   2.750   7.552  0.00  0.00    +0.000 A 
ATOM     24  N   UNL     1      46.078   4.036   7.644  0.00  0.00    +0.000 NA
ATOM     25  C   UNL     1      45.108   4.271   8.567  0.00  0.00    +0.000 A 
BRANCH  23  26
ATOM     26  C   UNL     1      47.555   2.458   6.515  0.00  0.00    +0.000 C 
ATOM     27  N   UNL     1      47.471   3.207   5.375  0.00  0.00    +0.000 N 
ATOM     28  O   UNL     1      48.419   1.605   6.666  0.00  0.00    +0.000 OA
ATOM     29  H   UNL     1      46.718   3.885   5.281  0.00  0.00    +0.000 HD
ATOM     30  H   UNL     1      48.112   3.040   4.617  0.00  0.00    +0.000 HD
ENDBRANCH  23  26
ENDBRANCH  18  20
ENDBRANCH  17  18
ENDBRANCH  16  17
ENDBRANCH   5  16
TORSDOF 7
ENDMDL
MODEL 5
REMARK VINA RESULT:    -7.391      1.335      2.016
REMARK INTER + INTRA:         -11.264
REMARK INTER:                 -10.347
REMARK INTRA:                  -0.917
REMARK UNBOUND:                -1.065
REMARK  Name = 
REMARK  8 active torsions:
REMARK  status: ('A' for Active; 'I' for Inactive)
REMARK    1  A    between atoms: C_1  and  C_2
REMARK    2  A    between atoms: C_2  and  C_3
REMARK    3  A    between atoms: C_7  and  C_8
REMARK    4  A    between atoms: C_8  and  C_9
REMARK    5  A    between atoms: C_9  and  N_10
REMARK    6  A    between atoms: N_10  and  C_11
REMARK    7  A    between atoms: C_14  and  C_15
REMARK    8  A    between atoms: C_23  and  O_24
REMARK                            x       y       z     vdW  Elec       q    Type
REMARK                         _______ _______ _______ _____ _____    ______ ____
ROOT
ATOM      1  C   UNL     1      48.494   7.490  12.845  0.00  0.00    +0.000 A 
ATOM      2  C   UNL     1      48.485   6.522  13.861  0.00  0.00    +0.000 A 
ATOM      3  C   UNL     1      47.466   5.566  13.940  0.00  0.00    +0.000 A 
ATOM      4  C   UNL     1      46.421   5.563  13.013  0.00  0.00    +0.000 A 
ATOM      5  C   UNL     1      46.395   6.505  11.983  0.00  0.00    +0.000 A 
ATOM      6  C   UNL     1      47.451   7.434  11.910  0.00  0.00    +0.000 A 
ENDROOT
BRANCH   1   8
ATOM      7  C   UNL     1      50.339   8.528  14.143  0.00  0.00    +0.000 C 
ATOM      8  C   UNL     1      49.548   8.625  12.815  0.00  0.00    +0.000 C 
ATOM      9  C   UNL     1      50.491   8.442  11.596  0.00  0.00    +0.000 C 
ATOM     10  C   UNL     1      51.493   9.586  11.406  0.00  0.00    +0.000 C 
ATOM     11  C   UNL     1      50.837  10.965  11.362  0.00  0.00    +0.000 C 
ATOM     12  C   UNL     1      49.909  11.191  12.550  0.00  0.00    +0.000 C 
ATOM     13  C   UNL     1      48.908  10.047  12.724  0.00  0.00    +0.000 C 
BRANCH  11  14
ATOM     14  O   UNL     1      50.114  11.129  10.143  0.00  0.00    +0.000 OA
ATOM     15  H   UNL     1      50.439  10.486   9.491  0.00  0.00    +0.000 HD
ENDBRANCH  11  14
ENDBRANCH   1   8
BRANCH   5  16
ATOM     16  C   UNL     1      45.224   6.540  11.011  0.00  0.00    +0.000 C 
BRANCH  16  17
ATOM     17  C   UNL     1      44.309   5.311  11.121  0.00  0.00    +0.000 C 
BRANCH  17  18
ATOM     18  N   UNL     1      43.755   4.863   9.844  0.00  0.00    +0.000 N 
ATOM     19  H   UNL     1      43.499   5.643   9.241  0.00  0.00    +0.000 HD
BRANCH  18  20
ATOM     20  C   UNL     1      44.558   3.927   9.152  0.00  0.00    +0.000 A 
ATOM     21  C   UNL     1      45.506   4.296   8.187  0.00  0.00    +0.000 A 
ATOM     22  C   UNL     1      46.327   3.344   7.590  0.00  0.00    +0.000 A 
ATOM     23  C   UNL     1      46.208   2.027   7.997  0.00  0.00    +0.000 A 
ATOM     24  N   UNL     1      45.330   1.609   8.951  0.00  0.00    +0.000 NA
ATOM     25  C   UNL     1      44.550   2.573   9.505  0.00  0.00    +0.000 A 
BRANCH  23  26
ATOM     26  C   UNL     1      47.107   0.988   7.400  0.00  0.00    +0.000 C 
ATOM     27  N   UNL     1      46.747  -0.307   7.643  0.00  0.00    +0.000 N 
ATOM     28  O   UNL     1      48.102   1.271   6.746  0.00  0.00    +0.000 OA
ATOM     29  H   UNL     1      45.928  -0.495   8.217  0.00  0.00    +0.000 HD
ATOM     30  H   UNL     1      47.324  -1.060   7.306  0.00  0.00    +0.000 HD
ENDBRANCH  23  26
ENDBRANCH  18  20
ENDBRANCH  17  18
ENDBRANCH  16  17
ENDBRANCH   5  16
TORSDOF 7
ENDMDL
MODEL 6
REMARK VINA RESULT:    -7.150      4.490      7.637
REMARK INTER + INTRA:         -10.932
REMARK INTER:                  -9.354
REMARK INTRA:                  -1.578
REMARK UNBOUND:                -1.065
REMARK  Name = 
REMARK  8 active torsions:
REMARK  status: ('A' for Active; 'I' for Inactive)
REMARK    1  A    between atoms: C_1  and  C_2
REMARK    2  A    between atoms: C_2  and  C_3
REMARK    3  A    between atoms: C_7  and  C_8
REMARK    4  A    between atoms: C_8  and  C_9
REMARK    5  A    between atoms: C_9  and  N_10
REMARK    6  A    between atoms: N_10  and  C_11
REMARK    7  A    between atoms: C_14  and  C_15
REMARK    8  A    between atoms: C_23  and  O_24
REMARK                            x       y       z     vdW  Elec       q    Type
REMARK                         _______ _______ _______ _____ _____    ______ ____
ROOT
ATOM      1  C   UNL     1      45.984   7.046  11.630  0.00  0.00    +0.000 A 
ATOM      2  C   UNL     1      45.237   8.201  11.906  0.00  0.00    +0.000 A 
ATOM      3  C   UNL     1      45.862   9.393  12.290  0.00  0.00    +0.000 A 
ATOM      4  C   UNL     1      47.250   9.456  12.421  0.00  0.00    +0.000 A 
ATOM      5  C   UNL     1      48.033   8.332  12.150  0.00  0.00    +0.000 A 
ATOM      6  C   UNL     1      47.378   7.156  11.735  0.00  0.00    +0.000 A 
ENDROOT
BRANCH   1   8
ATOM      7  C   UNL     1      45.641   5.351   9.849  0.00  0.00    +0.000 C 
ATOM      8  C   UNL     1      45.301   5.691  11.321  0.00  0.00    +0.000 C 
ATOM      9  C   UNL     1      45.840   4.595  12.279  0.00  0.00    +0.000 C 
ATOM     10  C   UNL     1      45.134   3.241  12.137  0.00  0.00    +0.000 C 
ATOM     11  C   UNL     1      43.614   3.336  12.248  0.00  0.00    +0.000 C 
ATOM     12  C   UNL     1      43.041   4.395  11.313  0.00  0.00    +0.000 C 
ATOM     13  C   UNL     1      43.747   5.743  11.470  0.00  0.00    +0.000 C 
BRANCH  11  14
ATOM     14  O   UNL     1      43.233   3.618  13.593  0.00  0.00    +0.000 OA
ATOM     15  H   UNL     1      42.274   3.499  13.683  0.00  0.00    +0.000 HD
ENDBRANCH  11  14
ENDBRANCH   1   8
BRANCH   5  16
ATOM     16  C   UNL     1      49.541   8.385  12.354  0.00  0.00    +0.000 C 
BRANCH  16  17
ATOM     17  C   UNL     1      50.004   7.678  13.635  0.00  0.00    +0.000 C 
BRANCH  17  18
ATOM     18  N   UNL     1      49.224   8.024  14.823  0.00  0.00    +0.000 N 
ATOM     19  H   UNL     1      48.485   8.694  14.616  0.00  0.00    +0.000 HD
BRANCH  18  20
ATOM     20  C   UNL     1      48.718   6.912  15.537  0.00  0.00    +0.000 A 
ATOM     21  C   UNL     1      47.984   5.883  14.933  0.00  0.00    +0.000 A 
ATOM     22  C   UNL     1      47.575   4.771  15.664  0.00  0.00    +0.000 A 
ATOM     23  C   UNL     1      47.941   4.691  16.996  0.00  0.00    +0.000 A 
ATOM     24  N   UNL     1      48.680   5.641  17.633  0.00  0.00    +0.000 NA
ATOM     25  C   UNL     1      49.056   6.708  16.879  0.00  0.00    +0.000 A 
BRANCH  23  26
ATOM     26  C   UNL     1      47.548   3.487  17.794  0.00  0.00    +0.000 C 
ATOM     27  N   UNL     1      48.356   3.202  18.859  0.00  0.00    +0.000 N 
ATOM     28  O   UNL     1      46.578   2.795  17.516  0.00  0.00    +0.000 OA
ATOM     29  H   UNL     1      49.169   3.788  19.036  0.00  0.00    +0.000 HD
ATOM     30  H   UNL     1      48.178   2.385  19.420  0.00  0.00    +0.000 HD
ENDBRANCH  23  26
ENDBRANCH  18  20
ENDBRANCH  17  18
ENDBRANCH  16  17
ENDBRANCH   5  16
TORSDOF 7
ENDMDL
MODEL 7
REMARK VINA RESULT:    -6.935      5.297      8.118
REMARK INTER + INTRA:         -10.635
REMARK INTER:                  -9.730
REMARK INTRA:                  -0.905
REMARK UNBOUND:                -1.065
REMARK  Name = 
REMARK  8 active torsions:
REMARK  status: ('A' for Active; 'I' for Inactive)
REMARK    1  A    between atoms: C_1  and  C_2
REMARK    2  A    between atoms: C_2  and  C_3
REMARK    3  A    between atoms: C_7  and  C_8
REMARK    4  A    between atoms: C_8  and  C_9
REMARK    5  A    between atoms: C_9  and  N_10
REMARK    6  A    between atoms: N_10  and  C_11
REMARK    7  A    between atoms: C_14  and  C_15
REMARK    8  A    between atoms: C_23  and  O_24
REMARK                            x       y       z     vdW  Elec       q    Type
REMARK                         _______ _______ _______ _____ _____    ______ ____
ROOT
ATOM      1  C   UNL     1      46.965   6.113  12.515  0.00  0.00    +0.000 A 
ATOM      2  C   UNL     1      47.481   7.001  11.559  0.00  0.00    +0.000 A 
ATOM      3  C   UNL     1      48.597   7.797  11.839  0.00  0.00    +0.000 A 
ATOM      4  C   UNL     1      49.218   7.737  13.088  0.00  0.00    +0.000 A 
ATOM      5  C   UNL     1      48.740   6.863  14.067  0.00  0.00    +0.000 A 
ATOM      6  C   UNL     1      47.635   6.050  13.746  0.00  0.00    +0.000 A 
ENDROOT
BRANCH   1   8
ATOM      7  C   UNL     1      45.974   3.840  12.616  0.00  0.00    +0.000 C 
ATOM      8  C   UNL     1      45.662   5.315  12.264  0.00  0.00    +0.000 C 
ATOM      9  C   UNL     1      44.520   5.867  13.158  0.00  0.00    +0.000 C 
ATOM     10  C   UNL     1      43.154   5.223  12.893  0.00  0.00    +0.000 C 
ATOM     11  C   UNL     1      42.740   5.267  11.424  0.00  0.00    +0.000 C 
ATOM     12  C   UNL     1      43.831   4.722  10.509  0.00  0.00    +0.000 C 
ATOM     13  C   UNL     1      45.186   5.378  10.777  0.00  0.00    +0.000 C 
BRANCH  11  14
ATOM     14  O   UNL     1      42.408   6.601  11.043  0.00  0.00    +0.000 OA
ATOM     15  H   UNL     1      41.624   6.888  11.539  0.00  0.00    +0.000 HD
ENDBRANCH  11  14
ENDBRANCH   1   8
BRANCH   5  16
ATOM     16  C   UNL     1      49.379   6.843  15.449  0.00  0.00    +0.000 C 
BRANCH  16  17
ATOM     17  C   UNL     1      48.523   6.125  16.502  0.00  0.00    +0.000 C 
BRANCH  17  18
ATOM     18  N   UNL     1      49.243   5.791  17.731  0.00  0.00    +0.000 N 
ATOM     19  H   UNL     1      48.622   5.738  18.537  0.00  0.00    +0.000 HD
BRANCH  18  20
ATOM     20  C   UNL     1      50.058   4.640  17.638  0.00  0.00    +0.000 A 
ATOM     21  C   UNL     1      51.419   4.635  17.974  0.00  0.00    +0.000 A 
ATOM     22  C   UNL     1      52.161   3.458  17.941  0.00  0.00    +0.000 A 
ATOM     23  C   UNL     1      51.512   2.284  17.600  0.00  0.00    +0.000 A 
ATOM     24  N   UNL     1      50.187   2.216  17.295  0.00  0.00    +0.000 NA
ATOM     25  C   UNL     1      49.504   3.390  17.341  0.00  0.00    +0.000 A 
BRANCH  23  26
ATOM     26  C   UNL     1      52.278   0.996  17.596  0.00  0.00    +0.000 C 
ATOM     27  N   UNL     1      51.668  -0.048  18.231  0.00  0.00    +0.000 N 
ATOM     28  O   UNL     1      53.376   0.881  17.070  0.00  0.00    +0.000 OA
ATOM     29  H   UNL     1      50.767   0.100  18.679  0.00  0.00    +0.000 HD
ATOM     30  H   UNL     1      52.139  -0.936  18.302  0.00  0.00    +0.000 HD
ENDBRANCH  23  26
ENDBRANCH  18  20
ENDBRANCH  17  18
ENDBRANCH  16  17
ENDBRANCH   5  16
TORSDOF 7
ENDMDL
MODEL 8
REMARK VINA RESULT:    -6.652      3.576      6.023
REMARK INTER + INTRA:         -10.244
REMARK INTER:                  -8.804
REMARK INTRA:                  -1.440
REMARK UNBOUND:                -1.065
REMARK  Name = 
REMARK  8 active torsions:
REMARK  status: ('A' for Active; 'I' for Inactive)
REMARK    1  A    between atoms: C_1  and  C_2
REMARK    2  A    between atoms: C_2  and  C_3
REMARK    3  A    between atoms: C_7  and  C_8
REMARK    4  A    between atoms: C_8  and  C_9
REMARK    5  A    between atoms: C_9  and  N_10
REMARK    6  A    between atoms: N_10  and  C_11
REMARK    7  A    between atoms: C_14  and  C_15
REMARK    8  A    between atoms: C_23  and  O_24
REMARK                            x       y       z     vdW  Elec       q    Type
REMARK                         _______ _______ _______ _____ _____    ______ ____
ROOT
ATOM      1  C   UNL     1      49.730   6.670  16.227  0.00  0.00    +0.000 A 
ATOM      2  C   UNL     1      51.101   6.931  16.081  0.00  0.00    +0.000 A 
ATOM      3  C   UNL     1      51.555   7.976  15.269  0.00  0.00    +0.000 A 
ATOM      4  C   UNL     1      50.650   8.779  14.571  0.00  0.00    +0.000 A 
ATOM      5  C   UNL     1      49.277   8.557  14.693  0.00  0.00    +0.000 A 
ATOM      6  C   UNL     1      48.848   7.519  15.542  0.00  0.00    +0.000 A 
ENDROOT
BRANCH   1   8
ATOM      7  C   UNL     1      48.777   5.975  18.412  0.00  0.00    +0.000 C 
ATOM      8  C   UNL     1      49.217   5.445  17.025  0.00  0.00    +0.000 C 
ATOM      9  C   UNL     1      48.023   4.790  16.281  0.00  0.00    +0.000 C 
ATOM     10  C   UNL     1      47.521   3.493  16.928  0.00  0.00    +0.000 C 
ATOM     11  C   UNL     1      48.627   2.465  17.157  0.00  0.00    +0.000 C 
ATOM     12  C   UNL     1      49.817   3.066  17.897  0.00  0.00    +0.000 C 
ATOM     13  C   UNL     1      50.313   4.354  17.238  0.00  0.00    +0.000 C 
BRANCH  11  14
ATOM     14  O   UNL     1      49.056   1.914  15.914  0.00  0.00    +0.000 OA
ATOM     15  H   UNL     1      48.935   2.576  15.214  0.00  0.00    +0.000 HD
ENDBRANCH  11  14
ENDBRANCH   1   8
BRANCH   5  16
ATOM     16  C   UNL     1      48.295   9.393  13.883  0.00  0.00    +0.000 C 
BRANCH  16  17
ATOM     17  C   UNL     1      47.129   8.573  13.314  0.00  0.00    +0.000 C 
BRANCH  17  18
ATOM     18  N   UNL     1      47.501   7.695  12.205  0.00  0.00    +0.000 N 
ATOM     19  H   UNL     1      48.503   7.514  12.178  0.00  0.00    +0.000 HD
BRANCH  18  20
ATOM     20  C   UNL     1      46.764   6.490  12.138  0.00  0.00    +0.000 A 
ATOM     21  C   UNL     1      46.751   5.541  13.169  0.00  0.00    +0.000 A 
ATOM     22  C   UNL     1      45.948   4.407  13.089  0.00  0.00    +0.000 A 
ATOM     23  C   UNL     1      45.135   4.256  11.978  0.00  0.00    +0.000 A 
ATOM     24  N   UNL     1      45.078   5.157  10.958  0.00  0.00    +0.000 NA
ATOM     25  C   UNL     1      45.880   6.247  11.081  0.00  0.00    +0.000 A 
BRANCH  23  26
ATOM     26  C   UNL     1      44.232   3.065  11.885  0.00  0.00    +0.000 C 
ATOM     27  N   UNL     1      44.149   2.490  10.649  0.00  0.00    +0.000 N 
ATOM     28  O   UNL     1      43.601   2.636  12.841  0.00  0.00    +0.000 OA
ATOM     29  H   UNL     1      44.669   2.898   9.875  0.00  0.00    +0.000 HD
ATOM     30  H   UNL     1      43.532   1.708  10.500  0.00  0.00    +0.000 HD
ENDBRANCH  23  26
ENDBRANCH  18  20
ENDBRANCH  17  18
ENDBRANCH  16  17
ENDBRANCH   5  16
TORSDOF 7
ENDMDL
MODEL 9
REMARK VINA RESULT:    -6.189      4.419      7.719
REMARK INTER + INTRA:          -9.605
REMARK INTER:                  -8.074
REMARK INTRA:                  -1.531
REMARK UNBOUND:                -1.065
REMARK  Name = 
REMARK  8 active torsions:
REMARK  status: ('A' for Active; 'I' for Inactive)
REMARK    1  A    between atoms: C_1  and  C_2
REMARK    2  A    between atoms: C_2  and  C_3
REMARK    3  A    between atoms: C_7  and  C_8
REMARK    4  A    between atoms: C_8  and  C_9
REMARK    5  A    between atoms: C_9  and  N_10
REMARK    6  A    between atoms: N_10  and  C_11
REMARK    7  A    between atoms: C_14  and  C_15
REMARK    8  A    between atoms: C_23  and  O_24
REMARK                            x       y       z     vdW  Elec       q    Type
REMARK                         _______ _______ _______ _____ _____    ______ ____
ROOT
ATOM      1  C   UNL     1      48.093   7.231  12.444  0.00  0.00    +0.000 A 
ATOM      2  C   UNL     1      48.505   7.970  11.324  0.00  0.00    +0.000 A 
ATOM      3  C   UNL     1      49.746   8.616  11.301  0.00  0.00    +0.000 A 
ATOM      4  C   UNL     1      50.601   8.552  12.403  0.00  0.00    +0.000 A 
ATOM      5  C   UNL     1      50.233   7.822  13.535  0.00  0.00    +0.000 A 
ATOM      6  C   UNL     1      48.992   7.156  13.517  0.00  0.00    +0.000 A 
ENDROOT
BRANCH   1   8
ATOM      7  C   UNL     1      45.723   7.753  12.966  0.00  0.00    +0.000 C 
ATOM      8  C   UNL     1      46.676   6.612  12.532  0.00  0.00    +0.000 C 
ATOM      9  C   UNL     1      46.259   6.040  11.150  0.00  0.00    +0.000 C 
ATOM     10  C   UNL     1      44.920   5.293  11.163  0.00  0.00    +0.000 C 
ATOM     11  C   UNL     1      44.846   4.202  12.229  0.00  0.00    +0.000 C 
ATOM     12  C   UNL     1      45.237   4.725  13.606  0.00  0.00    +0.000 C 
ATOM     13  C   UNL     1      46.578   5.460  13.582  0.00  0.00    +0.000 C 
BRANCH  11  14
ATOM     14  O   UNL     1      45.683   3.104  11.871  0.00  0.00    +0.000 OA
ATOM     15  H   UNL     1      45.348   2.702  11.053  0.00  0.00    +0.000 HD
ENDBRANCH  11  14
ENDBRANCH   1   8
BRANCH   5  16
ATOM     16  C   UNL     1      51.139   7.805  14.758  0.00  0.00    +0.000 C 
BRANCH  16  17
ATOM     17  C   UNL     1      50.581   8.615  15.937  0.00  0.00    +0.000 C 
BRANCH  17  18
ATOM     18  N   UNL     1      50.617   7.909  17.217  0.00  0.00    +0.000 N 
ATOM     19  H   UNL     1      50.263   8.482  17.982  0.00  0.00    +0.000 HD
BRANCH  18  20
ATOM     20  C   UNL     1      49.997   6.638  17.205  0.00  0.00    +0.000 A 
ATOM     21  C   UNL     1      48.621   6.458  17.010  0.00  0.00    +0.000 A 
ATOM     22  C   UNL     1      48.070   5.182  16.928  0.00  0.00    +0.000 A 
ATOM     23  C   UNL     1      48.921   4.094  17.009  0.00  0.00    +0.000 A 
ATOM     24  N   UNL     1      50.269   4.202  17.166  0.00  0.00    +0.000 NA
ATOM     25  C   UNL     1      50.761   5.466  17.241  0.00  0.00    +0.000 A 
BRANCH  23  26
ATOM     26  C   UNL     1      48.359   2.711  16.884  0.00  0.00    +0.000 C 
ATOM     27  N   UNL     1      47.219   2.476  17.599  0.00  0.00    +0.000 N 
ATOM     28  O   UNL     1      48.883   1.844  16.198  0.00  0.00    +0.000 OA
ATOM     29  H   UNL     1      46.834   3.219  18.179  0.00  0.00    +0.000 HD
ATOM     30  H   UNL     1      46.805   1.558  17.595  0.00  0.00    +0.000 HD
ENDBRANCH  23  26
ENDBRANCH  18  20
ENDBRANCH  17  18
ENDBRANCH  16  17
ENDBRANCH   5  16
TORSDOF 7
ENDMDL
