MODEL 1
REMARK VINA RESULT:    -7.743      0.000      0.000
REMARK INTER + INTRA:          -9.462
REMARK INTER:                  -9.101
REMARK INTRA:                  -0.361
REMARK UNBOUND:                -0.361
REMARK  Name = 
REMARK  3 active torsions:
REMARK  status: ('A' for Active; 'I' for Inactive)
REMARK    1  A    between atoms: C_2  and  C_4
REMARK    2  A    between atoms: N_8  and  C_9
REMARK    3  A    between atoms: C_9  and  C_10
REMARK                            x       y       z     vdW  Elec       q    Type
REMARK                         _______ _______ _______ _____ _____    ______ ____
ROOT
ATOM      1  C   UNL     1      46.477   4.972  13.392  0.00  0.00    +0.000 A 
ATOM      2  C   UNL     1      46.822   6.031  12.559  0.00  0.00    +0.000 A 
ATOM      3  C   UNL     1      46.263   6.094  11.284  0.00  0.00    +0.000 A 
ATOM      4  C   UNL     1      45.404   5.084  10.850  0.00  0.00    +0.000 A 
ATOM      5  N   UNL     1      44.933   5.175   9.544  0.00  0.00    +0.000 N 
ATOM      6  N   UNL     1      45.080   4.043  11.637  0.00  0.00    +0.000 NA
ATOM      7  C   UNL     1      45.618   4.006  12.887  0.00  0.00    +0.000 A 
ATOM      8  H   UNL     1      44.391   6.024   9.414  0.00  0.00    +0.000 HD
ENDROOT
BRANCH   1  10
ATOM      9  N   UNL     1      47.821   5.816  15.232  0.00  0.00    +0.000 N 
ATOM     10  C   UNL     1      47.009   4.823  14.764  0.00  0.00    +0.000 C 
ATOM     11  O   UNL     1      46.715   3.862  15.460  0.00  0.00    +0.000 OA
ATOM     12  H   UNL     1      48.107   5.747  16.202  0.00  0.00    +0.000 HD
ATOM     13  H   UNL     1      47.903   6.717  14.785  0.00  0.00    +0.000 HD
ENDBRANCH   1  10
BRANCH   5  14
ATOM     14  C   UNL     1      44.284   4.002   8.981  0.00  0.00    +0.000 C 
BRANCH  14  15
ATOM     15  C   UNL     1      45.361   3.150   8.360  0.00  0.00    +0.000 A 
ATOM     16  C   UNL     1      46.237   3.681   7.405  0.00  0.00    +0.000 A 
ATOM     17  C   UNL     1      47.195   2.870   6.809  0.00  0.00    +0.000 A 
ATOM     18  C   UNL     1      47.256   1.544   7.200  0.00  0.00    +0.000 A 
ATOM     19  N   UNL     1      46.445   0.996   8.133  0.00  0.00    +0.000 NA
ATOM     20  C   UNL     1      45.520   1.810   8.693  0.00  0.00    +0.000 A 
ENDBRANCH  14  15
ENDBRANCH   5  14
TORSDOF 3
ENDMDL
MODEL 2
REMARK VINA RESULT:    -7.661      2.696      6.173
REMARK INTER + INTRA:          -9.365
REMARK INTER:                  -9.042
REMARK INTRA:                  -0.323
REMARK UNBOUND:                -0.361
REMARK  Name = 
REMARK  3 active torsions:
REMARK  status: ('A' for Active; 'I' for Inactive)
REMARK    1  A    between atoms: C_2  and  C_4
REMARK    2  A    between atoms: N_8  and  C_9
REMARK    3  A    between atoms: C_9  and  C_10
REMARK                            x       y       z     vdW  Elec       q    Type
REMARK                         _______ _______ _______ _____ _____    ______ ____
ROOT
ATOM      1  C   UNL     1      46.528   2.605   7.408  0.00  0.00    +0.000 A 
ATOM      2  C   UNL     1      45.907   1.629   8.180  0.00  0.00    +0.000 A 
ATOM      3  C   UNL     1      44.979   2.023   9.143  0.00  0.00    +0.000 A 
ATOM      4  C   UNL     1      44.714   3.377   9.341  0.00  0.00    +0.000 A 
ATOM      5  N   UNL     1      43.826   3.704  10.361  0.00  0.00    +0.000 N 
ATOM      6  N   UNL     1      45.324   4.332   8.616  0.00  0.00    +0.000 NA
ATOM      7  C   UNL     1      46.213   3.931   7.668  0.00  0.00    +0.000 A 
ATOM      8  H   UNL     1      42.909   3.304  10.182  0.00  0.00    +0.000 HD
ENDROOT
BRANCH   1  10
ATOM      9  N   UNL     1      47.534   3.083   5.248  0.00  0.00    +0.000 N 
ATOM     10  C   UNL     1      47.519   2.286   6.357  0.00  0.00    +0.000 C 
ATOM     11  O   UNL     1      48.310   1.363   6.487  0.00  0.00    +0.000 OA
ATOM     12  H   UNL     1      48.273   2.910   4.577  0.00  0.00    +0.000 HD
ATOM     13  H   UNL     1      47.062   3.974   5.203  0.00  0.00    +0.000 HD
ENDBRANCH   1  10
BRANCH   5  14
ATOM     14  C   UNL     1      43.760   5.096  10.775  0.00  0.00    +0.000 C 
BRANCH  14  15
ATOM     15  C   UNL     1      44.839   5.306  11.808  0.00  0.00    +0.000 A 
ATOM     16  C   UNL     1      45.802   6.311  11.647  0.00  0.00    +0.000 A 
ATOM     17  C   UNL     1      46.816   6.461  12.585  0.00  0.00    +0.000 A 
ATOM     18  C   UNL     1      46.828   5.604  13.671  0.00  0.00    +0.000 A 
ATOM     19  N   UNL     1      45.907   4.635  13.875  0.00  0.00    +0.000 NA
ATOM     20  C   UNL     1      44.933   4.510  12.943  0.00  0.00    +0.000 A 
ENDBRANCH  14  15
ENDBRANCH   5  14
TORSDOF 3
ENDMDL
MODEL 3
REMARK VINA RESULT:    -6.497      1.615      2.237
REMARK INTER + INTRA:          -7.998
REMARK INTER:                  -7.753
REMARK INTRA:                  -0.245
REMARK UNBOUND:                -0.361
REMARK  Name = 
REMARK  3 active torsions:
REMARK  status: ('A' for Active; 'I' for Inactive)
REMARK    1  A    between atoms: C_2  and  C_4
REMARK    2  A    between atoms: N_8  and  C_9
REMARK    3  A    between atoms: C_9  and  C_10
REMARK                            x       y       z     vdW  Elec       q    Type
REMARK                         _______ _______ _______ _____ _____    ______ ____
ROOT
ATOM      1  C   UNL     1      47.054   5.715  13.435  0.00  0.00    +0.000 A 
ATOM      2  C   UNL     1      46.778   4.480  14.013  0.00  0.00    +0.000 A 
ATOM      3  C   UNL     1      46.073   3.533  13.273  0.00  0.00    +0.000 A 
ATOM      4  C   UNL     1      45.626   3.845  11.989  0.00  0.00    +0.000 A 
ATOM      5  N   UNL     1      44.873   2.878  11.331  0.00  0.00    +0.000 N 
ATOM      6  N   UNL     1      45.866   5.043  11.427  0.00  0.00    +0.000 NA
ATOM      7  C   UNL     1      46.573   5.950  12.155  0.00  0.00    +0.000 A 
ATOM      8  H   UNL     1      45.414   2.029  11.197  0.00  0.00    +0.000 HD
ENDROOT
BRANCH   1  10
ATOM      9  N   UNL     1      47.280   8.042  14.097  0.00  0.00    +0.000 N 
ATOM     10  C   UNL     1      47.802   6.780  14.136  0.00  0.00    +0.000 C 
ATOM     11  O   UNL     1      48.833   6.538  14.746  0.00  0.00    +0.000 OA
ATOM     12  H   UNL     1      47.753   8.744  14.654  0.00  0.00    +0.000 HD
ATOM     13  H   UNL     1      46.334   8.238  13.804  0.00  0.00    +0.000 HD
ENDBRANCH   1  10
BRANCH   5  14
ATOM     14  C   UNL     1      44.158   3.283  10.132  0.00  0.00    +0.000 C 
BRANCH  14  15
ATOM     15  C   UNL     1      45.066   3.016   8.958  0.00  0.00    +0.000 A 
ATOM     16  C   UNL     1      45.644   1.754   8.769  0.00  0.00    +0.000 A 
ATOM     17  C   UNL     1      46.514   1.537   7.708  0.00  0.00    +0.000 A 
ATOM     18  C   UNL     1      46.772   2.595   6.854  0.00  0.00    +0.000 A 
ATOM     19  N   UNL     1      46.220   3.822   6.987  0.00  0.00    +0.000 NA
ATOM     20  C   UNL     1      45.379   4.004   8.032  0.00  0.00    +0.000 A 
ENDBRANCH  14  15
ENDBRANCH   5  14
TORSDOF 3
ENDMDL
MODEL 4
REMARK VINA RESULT:    -6.312      2.989      6.946
REMARK INTER + INTRA:          -7.781
REMARK INTER:                  -7.459
REMARK INTRA:                  -0.321
REMARK UNBOUND:                -0.361
REMARK  Name = 
REMARK  3 active torsions:
REMARK  status: ('A' for Active; 'I' for Inactive)
REMARK    1  A    between atoms: C_2  and  C_4
REMARK    2  A    between atoms: N_8  and  C_9
REMARK    3  A    between atoms: C_9  and  C_10
REMARK                            x       y       z     vdW  Elec       q    Type
REMARK                         _______ _______ _______ _____ _____    ______ ____
ROOT
ATOM      1  C   UNL     1      45.407   4.746  11.583  0.00  0.00    +0.000 A 
ATOM      2  C   UNL     1      46.129   5.906  11.846  0.00  0.00    +0.000 A 
ATOM      3  C   UNL     1      46.810   6.013  13.057  0.00  0.00    +0.000 A 
ATOM      4  C   UNL     1      46.731   4.984  13.994  0.00  0.00    +0.000 A 
ATOM      5  N   UNL     1      47.382   5.183  15.208  0.00  0.00    +0.000 N 
ATOM      6  N   UNL     1      46.018   3.867  13.762  0.00  0.00    +0.000 NA
ATOM      7  C   UNL     1      45.374   3.768  12.567  0.00  0.00    +0.000 A 
ATOM      8  H   UNL     1      48.381   5.302  15.066  0.00  0.00    +0.000 HD
ENDROOT
BRANCH   1  10
ATOM      9  N   UNL     1      45.177   5.086   9.188  0.00  0.00    +0.000 N 
ATOM     10  C   UNL     1      44.659   4.535  10.324  0.00  0.00    +0.000 C 
ATOM     11  O   UNL     1      43.632   3.873  10.299  0.00  0.00    +0.000 OA
ATOM     12  H   UNL     1      44.704   4.860   8.320  0.00  0.00    +0.000 HD
ATOM     13  H   UNL     1      46.121   5.439   9.127  0.00  0.00    +0.000 HD
ENDBRANCH   1  10
BRANCH   5  14
ATOM     14  C   UNL     1      47.074   4.268  16.294  0.00  0.00    +0.000 C 
BRANCH  14  15
ATOM     15  C   UNL     1      48.363   3.595  16.692  0.00  0.00    +0.000 A 
ATOM     16  C   UNL     1      49.293   4.250  17.511  0.00  0.00    +0.000 A 
ATOM     17  C   UNL     1      50.496   3.633  17.830  0.00  0.00    +0.000 A 
ATOM     18  C   UNL     1      50.730   2.365  17.327  0.00  0.00    +0.000 A 
ATOM     19  N   UNL     1      49.851   1.690  16.552  0.00  0.00    +0.000 NA
ATOM     20  C   UNL     1      48.689   2.318  16.255  0.00  0.00    +0.000 A 
ENDBRANCH  14  15
ENDBRANCH   5  14
TORSDOF 3
ENDMDL
MODEL 5
REMARK VINA RESULT:    -5.690      3.720      5.723
REMARK INTER + INTRA:          -7.049
REMARK INTER:                  -6.791
REMARK INTRA:                  -0.259
REMARK UNBOUND:                -0.361
REMARK  Name = 
REMARK  3 active torsions:
REMARK  status: ('A' for Active; 'I' for Inactive)
REMARK    1  A    between atoms: C_2  and  C_4
REMARK    2  A    between atoms: N_8  and  C_9
REMARK    3  A    between atoms: C_9  and  C_10
REMARK                            x       y       z     vdW  Elec       q    Type
REMARK                         _______ _______ _______ _____ _____    ______ ____
ROOT
ATOM      1  C   UNL     1      48.558   4.460  18.268  0.00  0.00    +0.000 A 
ATOM      2  C   UNL     1      47.924   3.247  18.020  0.00  0.00    +0.000 A 
ATOM      3  C   UNL     1      47.406   3.006  16.749  0.00  0.00    +0.000 A 
ATOM      4  C   UNL     1      47.496   3.988  15.763  0.00  0.00    +0.000 A 
ATOM      5  N   UNL     1      46.903   3.708  14.536  0.00  0.00    +0.000 N 
ATOM      6  N   UNL     1      48.087   5.175  15.996  0.00  0.00    +0.000 NA
ATOM      7  C   UNL     1      48.605   5.387  17.236  0.00  0.00    +0.000 A 
ATOM      8  H   UNL     1      47.332   2.894  14.105  0.00  0.00    +0.000 HD
ENDROOT
BRANCH   1  10
ATOM      9  N   UNL     1      48.819   4.010  20.642  0.00  0.00    +0.000 N 
ATOM     10  C   UNL     1      49.146   4.805  19.581  0.00  0.00    +0.000 C 
ATOM     11  O   UNL     1      49.913   5.748  19.706  0.00  0.00    +0.000 OA
ATOM     12  H   UNL     1      49.297   4.202  21.514  0.00  0.00    +0.000 HD
ATOM     13  H   UNL     1      48.380   3.107  20.539  0.00  0.00    +0.000 HD
ENDBRANCH   1  10
BRANCH   5  14
ATOM     14  C   UNL     1      46.729   4.811  13.606  0.00  0.00    +0.000 C 
BRANCH  14  15
ATOM     15  C   UNL     1      45.400   4.613  12.921  0.00  0.00    +0.000 A 
ATOM     16  C   UNL     1      45.107   3.417  12.252  0.00  0.00    +0.000 A 
ATOM     17  C   UNL     1      43.896   3.269  11.588  0.00  0.00    +0.000 A 
ATOM     18  C   UNL     1      43.002   4.324  11.625  0.00  0.00    +0.000 A 
ATOM     19  N   UNL     1      43.235   5.486  12.276  0.00  0.00    +0.000 NA
ATOM     20  C   UNL     1      44.425   5.603  12.910  0.00  0.00    +0.000 A 
ENDBRANCH  14  15
ENDBRANCH   5  14
TORSDOF 3
ENDMDL
MODEL 6
REMARK VINA RESULT:    -5.367      3.250      6.213
REMARK INTER + INTRA:          -6.670
REMARK INTER:                  -6.378
REMARK INTRA:                  -0.291
REMARK UNBOUND:                -0.361
REMARK  Name = 
REMARK  3 active torsions:
REMARK  status: ('A' for Active; 'I' for Inactive)
REMARK    1  A    between atoms: C_2  and  C_4
REMARK    2  A    between atoms: N_8  and  C_9
REMARK    3  A    between atoms: C_9  and  C_10
REMARK                            x       y       z     vdW  Elec       q    Type
REMARK                         _______ _______ _______ _____ _____    ______ ____
ROOT
ATOM      1  C   UNL     1      44.829   4.071  11.748  0.00  0.00    +0.000 A 
ATOM      2  C   UNL     1      45.622   3.891  12.875  0.00  0.00    +0.000 A 
ATOM      3  C   UNL     1      46.224   5.004  13.459  0.00  0.00    +0.000 A 
ATOM      4  C   UNL     1      46.054   6.266  12.890  0.00  0.00    +0.000 A 
ATOM      5  N   UNL     1      46.733   7.324  13.485  0.00  0.00    +0.000 N 
ATOM      6  N   UNL     1      45.307   6.451  11.786  0.00  0.00    +0.000 NA
ATOM      7  C   UNL     1      44.711   5.357  11.239  0.00  0.00    +0.000 A 
ATOM      8  H   UNL     1      46.431   7.451  14.447  0.00  0.00    +0.000 HD
ENDROOT
BRANCH   1  10
ATOM      9  N   UNL     1      44.821   2.323  10.058  0.00  0.00    +0.000 N 
ATOM     10  C   UNL     1      44.142   2.954  11.062  0.00  0.00    +0.000 C 
ATOM     11  O   UNL     1      43.023   2.593  11.397  0.00  0.00    +0.000 OA
ATOM     12  H   UNL     1      44.377   1.506   9.658  0.00  0.00    +0.000 HD
ATOM     13  H   UNL     1      45.812   2.438   9.907  0.00  0.00    +0.000 HD
ENDBRANCH   1  10
BRANCH   5  14
ATOM     14  C   UNL     1      46.807   8.575  12.749  0.00  0.00    +0.000 C 
BRANCH  14  15
ATOM     15  C   UNL     1      48.243   8.761  12.328  0.00  0.00    +0.000 A 
ATOM     16  C   UNL     1      48.939   7.737  11.674  0.00  0.00    +0.000 A 
ATOM     17  C   UNL     1      50.275   7.908  11.334  0.00  0.00    +0.000 A 
ATOM     18  C   UNL     1      50.875   9.115  11.648  0.00  0.00    +0.000 A 
ATOM     19  N   UNL     1      50.235  10.137  12.259  0.00  0.00    +0.000 NA
ATOM     20  C   UNL     1      48.935   9.939  12.582  0.00  0.00    +0.000 A 
ENDBRANCH  14  15
ENDBRANCH   5  14
TORSDOF 3
ENDMDL
MODEL 7
REMARK VINA RESULT:    -5.324      2.845      6.556
REMARK INTER + INTRA:          -6.619
REMARK INTER:                  -6.301
REMARK INTRA:                  -0.318
REMARK UNBOUND:                -0.361
REMARK  Name = 
REMARK  3 active torsions:
REMARK  status: ('A' for Active; 'I' for Inactive)
REMARK    1  A    between atoms: C_2  and  C_4
REMARK    2  A    between atoms: N_8  and  C_9
REMARK    3  A    between atoms: C_9  and  C_10
REMARK                            x       y       z     vdW  Elec       q    Type
REMARK                         _______ _______ _______ _____ _____    ______ ____
ROOT
ATOM      1  C   UNL     1      45.066   3.828  10.172  0.00  0.00    +0.000 A 
ATOM      2  C   UNL     1      44.911   3.408  11.490  0.00  0.00    +0.000 A 
ATOM      3  C   UNL     1      45.136   4.323  12.517  0.00  0.00    +0.000 A 
ATOM      4  C   UNL     1      45.545   5.621  12.216  0.00  0.00    +0.000 A 
ATOM      5  N   UNL     1      45.814   6.463  13.291  0.00  0.00    +0.000 N 
ATOM      6  N   UNL     1      45.721   6.033  10.948  0.00  0.00    +0.000 NA
ATOM      7  C   UNL     1      45.478   5.135   9.955  0.00  0.00    +0.000 A 
ATOM      8  H   UNL     1      44.984   6.599  13.860  0.00  0.00    +0.000 HD
ENDROOT
BRANCH   1  10
ATOM      9  N   UNL     1      44.260   3.481   7.906  0.00  0.00    +0.000 N 
ATOM     10  C   UNL     1      44.842   2.935   9.014  0.00  0.00    +0.000 C 
ATOM     11  O   UNL     1      45.186   1.763   9.039  0.00  0.00    +0.000 OA
ATOM     12  H   UNL     1      44.193   2.884   7.090  0.00  0.00    +0.000 HD
ATOM     13  H   UNL     1      44.171   4.477   7.764  0.00  0.00    +0.000 HD
ENDBRANCH   1  10
BRANCH   5  14
ATOM     14  C   UNL     1      46.513   7.707  13.012  0.00  0.00    +0.000 C 
BRANCH  14  15
ATOM     15  C   UNL     1      47.855   7.628  13.693  0.00  0.00    +0.000 A 
ATOM     16  C   UNL     1      48.829   8.613  13.480  0.00  0.00    +0.000 A 
ATOM     17  C   UNL     1      50.077   8.501  14.080  0.00  0.00    +0.000 A 
ATOM     18  C   UNL     1      50.311   7.406  14.893  0.00  0.00    +0.000 A 
ATOM     19  N   UNL     1      49.393   6.444  15.142  0.00  0.00    +0.000 NA
ATOM     20  C   UNL     1      48.188   6.578  14.540  0.00  0.00    +0.000 A 
ENDBRANCH  14  15
ENDBRANCH   5  14
TORSDOF 3
ENDMDL
MODEL 8
REMARK VINA RESULT:    -5.108      4.307      7.109
REMARK INTER + INTRA:          -6.366
REMARK INTER:                  -6.021
REMARK INTRA:                  -0.344
REMARK UNBOUND:                -0.361
REMARK  Name = 
REMARK  3 active torsions:
REMARK  status: ('A' for Active; 'I' for Inactive)
REMARK    1  A    between atoms: C_2  and  C_4
REMARK    2  A    between atoms: N_8  and  C_9
REMARK    3  A    between atoms: C_9  and  C_10
REMARK                            x       y       z     vdW  Elec       q    Type
REMARK                         _______ _______ _______ _____ _____    ______ ____
ROOT
ATOM      1  C   UNL     1      51.482   2.508  17.630  0.00  0.00    +0.000 A 
ATOM      2  C   UNL     1      51.553   3.892  17.751  0.00  0.00    +0.000 A 
ATOM      3  C   UNL     1      50.429   4.653  17.433  0.00  0.00    +0.000 A 
ATOM      4  C   UNL     1      49.273   4.027  16.968  0.00  0.00    +0.000 A 
ATOM      5  N   UNL     1      48.210   4.850  16.609  0.00  0.00    +0.000 N 
ATOM      6  N   UNL     1      49.199   2.691  16.825  0.00  0.00    +0.000 NA
ATOM      7  C   UNL     1      50.297   1.960  17.158  0.00  0.00    +0.000 A 
ATOM      8  H   UNL     1      47.887   5.390  17.406  0.00  0.00    +0.000 HD
ENDROOT
BRANCH   1  10
ATOM      9  N   UNL     1      52.330   0.307  18.214  0.00  0.00    +0.000 N 
ATOM     10  C   UNL     1      52.617   1.615  17.951  0.00  0.00    +0.000 C 
ATOM     11  O   UNL     1      53.768   2.027  17.955  0.00  0.00    +0.000 OA
ATOM     12  H   UNL     1      53.121  -0.312  18.345  0.00  0.00    +0.000 HD
ATOM     13  H   UNL     1      51.437  -0.115  18.002  0.00  0.00    +0.000 HD
ENDBRANCH   1  10
BRANCH   5  14
ATOM     14  C   UNL     1      47.120   4.250  15.857  0.00  0.00    +0.000 C 
BRANCH  14  15
ATOM     15  C   UNL     1      47.044   4.967  14.533  0.00  0.00    +0.000 A 
ATOM     16  C   UNL     1      47.883   6.053  14.254  0.00  0.00    +0.000 A 
ATOM     17  C   UNL     1      47.768   6.731  13.046  0.00  0.00    +0.000 A 
ATOM     18  C   UNL     1      46.819   6.290  12.142  0.00  0.00    +0.000 A 
ATOM     19  N   UNL     1      46.004   5.233  12.362  0.00  0.00    +0.000 NA
ATOM     20  C   UNL     1      46.136   4.595  13.549  0.00  0.00    +0.000 A 
ENDBRANCH  14  15
ENDBRANCH   5  14
TORSDOF 3
ENDMDL
MODEL 9
REMARK VINA RESULT:    -5.067      3.689      5.082
REMARK INTER + INTRA:          -6.317
REMARK INTER:                  -6.009
REMARK INTRA:                  -0.308
REMARK UNBOUND:                -0.361
REMARK  Name = 
REMARK  3 active torsions:
REMARK  status: ('A' for Active; 'I' for Inactive)
REMARK    1  A    between atoms: C_2  and  C_4
REMARK    2  A    between atoms: N_8  and  C_9
REMARK    3  A    between atoms: C_9  and  C_10
REMARK                            x       y       z     vdW  Elec       q    Type
REMARK                         _______ _______ _______ _____ _____    ______ ____
ROOT
ATOM      1  C   UNL     1      49.997   7.895  12.490  0.00  0.00    +0.000 A 
ATOM      2  C   UNL     1      49.735   7.446  13.781  0.00  0.00    +0.000 A 
ATOM      3  C   UNL     1      48.476   6.923  14.068  0.00  0.00    +0.000 A 
ATOM      4  C   UNL     1      47.494   6.890  13.079  0.00  0.00    +0.000 A 
ATOM      5  N   UNL     1      46.240   6.414  13.450  0.00  0.00    +0.000 N 
ATOM      6  N   UNL     1      47.727   7.342  11.833  0.00  0.00    +0.000 NA
ATOM      7  C   UNL     1      48.967   7.832  11.563  0.00  0.00    +0.000 A 
ATOM      8  H   UNL     1      46.298   5.449  13.762  0.00  0.00    +0.000 HD
ENDROOT
BRANCH   1  10
ATOM      9  N   UNL     1      52.400   8.075  12.804  0.00  0.00    +0.000 N 
ATOM     10  C   UNL     1      51.304   8.459  12.086  0.00  0.00    +0.000 C 
ATOM     11  O   UNL     1      51.402   9.218  11.134  0.00  0.00    +0.000 OA
ATOM     12  H   UNL     1      53.298   8.396  12.463  0.00  0.00    +0.000 HD
ATOM     13  H   UNL     1      52.396   7.290  13.439  0.00  0.00    +0.000 HD
ENDBRANCH   1  10
BRANCH   5  14
ATOM     14  C   UNL     1      45.136   6.641  12.531  0.00  0.00    +0.000 C 
BRANCH  14  15
ATOM     15  C   UNL     1      44.599   5.290  12.135  0.00  0.00    +0.000 A 
ATOM     16  C   UNL     1      44.524   4.913  10.787  0.00  0.00    +0.000 A 
ATOM     17  C   UNL     1      43.984   3.682  10.436  0.00  0.00    +0.000 A 
ATOM     18  C   UNL     1      43.545   2.853  11.453  0.00  0.00    +0.000 A 
ATOM     19  N   UNL     1      43.618   3.168  12.766  0.00  0.00    +0.000 NA
ATOM     20  C   UNL     1      44.145   4.375  13.077  0.00  0.00    +0.000 A 
ENDBRANCH  14  15
ENDBRANCH   5  14
TORSDOF 3
ENDMDL
