MODEL 1
REMARK VINA RESULT:    -8.241      0.000      0.000
REMARK INTER + INTRA:         -10.585
REMARK INTER:                 -10.168
REMARK INTRA:                  -0.416
REMARK UNBOUND:                -0.416
REMARK  Name = 
REMARK  4 active torsions:
REMARK  status: ('A' for Active; 'I' for Inactive)
REMARK    1  A    between atoms: C_2  and  C_3
REMARK    2  A    between atoms: C_6  and  C_7
REMARK    3  A    between atoms: C_7  and  N_8
REMARK    4  A    between atoms: C_12  and  C_13
REMARK                            x       y       z     vdW  Elec       q    Type
REMARK                         _______ _______ _______ _____ _____    ______ ____
ROOT
ATOM      1  N   UNL     1      44.009   3.866  10.458  0.00  0.00    +0.000 N 
ATOM      2  C   UNL     1      44.982   3.598   9.501  0.00  0.00    +0.000 A 
ATOM      3  N   UNL     1      45.216   2.286   9.320  0.00  0.00    +0.000 NA
ATOM      4  C   UNL     1      46.031   1.930   8.304  0.00  0.00    +0.000 A 
ATOM      5  C   UNL     1      46.601   2.834   7.439  0.00  0.00    +0.000 A 
ATOM      6  C   UNL     1      46.340   4.153   7.731  0.00  0.00    +0.000 A 
ATOM      7  N   UNL     1      45.543   4.561   8.751  0.00  0.00    +0.000 NA
ATOM      8  H   UNL     1      43.807   2.983  10.917  0.00  0.00    +0.000 HD
ENDROOT
BRANCH   5   9
ATOM      9  C   UNL     1      47.412   2.349   6.314  0.00  0.00    +0.000 C 
ATOM     10  N   UNL     1      47.271   2.975   5.104  0.00  0.00    +0.000 N 
ATOM     11  O   UNL     1      48.148   1.383   6.437  0.00  0.00    +0.000 OA
ATOM     12  H   UNL     1      46.510   3.601   4.882  0.00  0.00    +0.000 HD
ATOM     13  H   UNL     1      47.738   2.528   4.324  0.00  0.00    +0.000 HD
ENDBRANCH   5   9
BRANCH   1  14
ATOM     14  C   UNL     1      43.937   5.078  11.275  0.00  0.00    +0.000 C 
ATOM     15  C   UNL     1      42.843   6.115  11.113  0.00  0.00    +0.000 C 
ATOM     16  C   UNL     1      42.729   5.114  12.213  0.00  0.00    +0.000 C 
BRANCH  14  20
ATOM     17  C   UNL     1      47.641   6.277  13.249  0.00  0.00    +0.000 A 
ATOM     18  C   UNL     1      47.056   7.116  12.295  0.00  0.00    +0.000 A 
ATOM     19  C   UNL     1      45.892   6.718  11.623  0.00  0.00    +0.000 A 
ATOM     20  C   UNL     1      45.269   5.488  11.904  0.00  0.00    +0.000 A 
ATOM     21  C   UNL     1      45.911   4.656  12.838  0.00  0.00    +0.000 A 
ATOM     22  F   UNL     1      45.383   3.453  13.117  0.00  0.00    +0.000 F 
ATOM     23  C   UNL     1      47.075   5.031  13.506  0.00  0.00    +0.000 A 
BRANCH  17  25
ATOM     24  N   UNL     1      49.749   7.033  14.557  0.00  0.00    +0.000 NA
ATOM     25  C   UNL     1      48.801   6.703  13.974  0.00  0.00    +0.000 C 
ENDBRANCH  17  25
ENDBRANCH  14  20
ENDBRANCH   1  14
TORSDOF 4
ENDMDL
MODEL 2
REMARK VINA RESULT:    -7.652      1.211      1.584
REMARK INTER + INTRA:          -9.857
REMARK INTER:                  -9.454
REMARK INTRA:                  -0.403
REMARK UNBOUND:                -0.416
REMARK  Name = 
REMARK  4 active torsions:
REMARK  status: ('A' for Active; 'I' for Inactive)
REMARK    1  A    between atoms: C_2  and  C_3
REMARK    2  A    between atoms: C_6  and  C_7
REMARK    3  A    between atoms: C_7  and  N_8
REMARK    4  A    between atoms: C_12  and  C_13
REMARK                            x       y       z     vdW  Elec       q    Type
REMARK                         _______ _______ _______ _____ _____    ______ ____
ROOT
ATOM      1  N   UNL     1      44.021   3.761  10.703  0.00  0.00    +0.000 N 
ATOM      2  C   UNL     1      44.932   3.591   9.666  0.00  0.00    +0.000 A 
ATOM      3  N   UNL     1      45.345   2.321   9.510  0.00  0.00    +0.000 NA
ATOM      4  C   UNL     1      46.108   2.039   8.432  0.00  0.00    +0.000 A 
ATOM      5  C   UNL     1      46.453   2.972   7.485  0.00  0.00    +0.000 A 
ATOM      6  C   UNL     1      46.023   4.251   7.753  0.00  0.00    +0.000 A 
ATOM      7  N   UNL     1      45.271   4.589   8.831  0.00  0.00    +0.000 NA
ATOM      8  H   UNL     1      43.998   2.881  11.211  0.00  0.00    +0.000 HD
ENDROOT
BRANCH   5   9
ATOM      9  C   UNL     1      47.222   2.557   6.303  0.00  0.00    +0.000 C 
ATOM     10  N   UNL     1      48.433   1.950   6.505  0.00  0.00    +0.000 N 
ATOM     11  O   UNL     1      46.822   2.795   5.175  0.00  0.00    +0.000 OA
ATOM     12  H   UNL     1      48.921   1.955   7.389  0.00  0.00    +0.000 HD
ATOM     13  H   UNL     1      48.993   1.806   5.673  0.00  0.00    +0.000 HD
ENDBRANCH   5   9
BRANCH   1  14
ATOM     14  C   UNL     1      43.842   4.988  11.479  0.00  0.00    +0.000 C 
ATOM     15  C   UNL     1      42.702   5.958  11.233  0.00  0.00    +0.000 C 
ATOM     16  C   UNL     1      42.588   4.981  12.356  0.00  0.00    +0.000 C 
BRANCH  14  20
ATOM     17  C   UNL     1      47.582   6.373  13.252  0.00  0.00    +0.000 A 
ATOM     18  C   UNL     1      46.976   5.206  13.727  0.00  0.00    +0.000 A 
ATOM     19  C   UNL     1      45.753   4.779  13.194  0.00  0.00    +0.000 A 
ATOM     20  C   UNL     1      45.116   5.490  12.161  0.00  0.00    +0.000 A 
ATOM     21  C   UNL     1      45.735   6.681  11.742  0.00  0.00    +0.000 A 
ATOM     22  F   UNL     1      45.153   7.422  10.785  0.00  0.00    +0.000 F 
ATOM     23  C   UNL     1      46.946   7.125  12.268  0.00  0.00    +0.000 A 
BRANCH  17  25
ATOM     24  N   UNL     1      49.886   7.119  14.183  0.00  0.00    +0.000 NA
ATOM     25  C   UNL     1      48.858   6.785  13.758  0.00  0.00    +0.000 C 
ENDBRANCH  17  25
ENDBRANCH  14  20
ENDBRANCH   1  14
TORSDOF 4
ENDMDL
MODEL 3
REMARK VINA RESULT:    -6.610      2.885      6.556
REMARK INTER + INTRA:          -8.572
REMARK INTER:                  -9.067
REMARK INTRA:                   0.495
REMARK UNBOUND:                -0.416
REMARK  Name = 
REMARK  4 active torsions:
REMARK  status: ('A' for Active; 'I' for Inactive)
REMARK    1  A    between atoms: C_2  and  C_3
REMARK    2  A    between atoms: C_6  and  C_7
REMARK    3  A    between atoms: C_7  and  N_8
REMARK    4  A    between atoms: C_12  and  C_13
REMARK                            x       y       z     vdW  Elec       q    Type
REMARK                         _______ _______ _______ _____ _____    ______ ____
ROOT
ATOM      1  N   UNL     1      45.216   3.865  12.389  0.00  0.00    +0.000 N 
ATOM      2  C   UNL     1      46.045   4.703  13.128  0.00  0.00    +0.000 A 
ATOM      3  N   UNL     1      46.269   4.274  14.383  0.00  0.00    +0.000 NA
ATOM      4  C   UNL     1      47.183   4.943  15.119  0.00  0.00    +0.000 A 
ATOM      5  C   UNL     1      47.907   6.008  14.640  0.00  0.00    +0.000 A 
ATOM      6  C   UNL     1      47.577   6.401  13.363  0.00  0.00    +0.000 A 
ATOM      7  N   UNL     1      46.653   5.774  12.591  0.00  0.00    +0.000 NA
ATOM      8  H   UNL     1      44.842   3.183  13.043  0.00  0.00    +0.000 HD
ENDROOT
BRANCH   5   9
ATOM      9  C   UNL     1      48.937   6.625  15.487  0.00  0.00    +0.000 C 
ATOM     10  N   UNL     1      48.540   7.205  16.662  0.00  0.00    +0.000 N 
ATOM     11  O   UNL     1      50.103   6.668  15.130  0.00  0.00    +0.000 OA
ATOM     12  H   UNL     1      47.579   7.420  16.884  0.00  0.00    +0.000 HD
ATOM     13  H   UNL     1      49.251   7.739  17.148  0.00  0.00    +0.000 HD
ENDBRANCH   5   9
BRANCH   1  14
ATOM     14  C   UNL     1      44.348   4.289  11.291  0.00  0.00    +0.000 C 
ATOM     15  C   UNL     1      42.852   4.483  11.453  0.00  0.00    +0.000 C 
ATOM     16  C   UNL     1      43.743   5.680  11.490  0.00  0.00    +0.000 C 
BRANCH  14  20
ATOM     17  C   UNL     1      46.118   3.382   7.406  0.00  0.00    +0.000 A 
ATOM     18  C   UNL     1      46.255   4.661   7.953  0.00  0.00    +0.000 A 
ATOM     19  C   UNL     1      45.652   4.974   9.179  0.00  0.00    +0.000 A 
ATOM     20  C   UNL     1      44.918   4.014   9.899  0.00  0.00    +0.000 A 
ATOM     21  C   UNL     1      44.767   2.753   9.295  0.00  0.00    +0.000 A 
ATOM     22  F   UNL     1      44.044   1.809   9.918  0.00  0.00    +0.000 F 
ATOM     23  C   UNL     1      45.351   2.430   8.072  0.00  0.00    +0.000 A 
BRANCH  17  25
ATOM     24  N   UNL     1      47.317   2.758   5.192  0.00  0.00    +0.000 NA
ATOM     25  C   UNL     1      46.776   3.044   6.179  0.00  0.00    +0.000 C 
ENDBRANCH  17  25
ENDBRANCH  14  20
ENDBRANCH   1  14
TORSDOF 4
ENDMDL
MODEL 4
REMARK VINA RESULT:    -5.613      4.449      6.641
REMARK INTER + INTRA:          -7.342
REMARK INTER:                  -7.531
REMARK INTRA:                   0.189
REMARK UNBOUND:                -0.416
REMARK  Name = 
REMARK  4 active torsions:
REMARK  status: ('A' for Active; 'I' for Inactive)
REMARK    1  A    between atoms: C_2  and  C_3
REMARK    2  A    between atoms: C_6  and  C_7
REMARK    3  A    between atoms: C_7  and  N_8
REMARK    4  A    between atoms: C_12  and  C_13
REMARK                            x       y       z     vdW  Elec       q    Type
REMARK                         _______ _______ _______ _____ _____    ______ ____
ROOT
ATOM      1  N   UNL     1      47.161   4.766  16.191  0.00  0.00    +0.000 N 
ATOM      2  C   UNL     1      46.940   5.004  14.839  0.00  0.00    +0.000 A 
ATOM      3  N   UNL     1      46.186   4.065  14.240  0.00  0.00    +0.000 NA
ATOM      4  C   UNL     1      45.793   4.295  12.968  0.00  0.00    +0.000 A 
ATOM      5  C   UNL     1      46.100   5.443  12.278  0.00  0.00    +0.000 A 
ATOM      6  C   UNL     1      46.911   6.323  12.956  0.00  0.00    +0.000 A 
ATOM      7  N   UNL     1      47.347   6.129  14.226  0.00  0.00    +0.000 NA
ATOM      8  H   UNL     1      46.816   3.829  16.377  0.00  0.00    +0.000 HD
ENDROOT
BRANCH   5   9
ATOM      9  C   UNL     1      45.563   5.641  10.924  0.00  0.00    +0.000 C 
ATOM     10  N   UNL     1      44.213   5.502  10.742  0.00  0.00    +0.000 N 
ATOM     11  O   UNL     1      46.302   5.867   9.980  0.00  0.00    +0.000 OA
ATOM     12  H   UNL     1      43.597   5.076  11.420  0.00  0.00    +0.000 HD
ATOM     13  H   UNL     1      43.899   5.508   9.779  0.00  0.00    +0.000 HD
ENDBRANCH   5   9
BRANCH   1  14
ATOM     14  C   UNL     1      48.331   5.212  16.948  0.00  0.00    +0.000 C 
ATOM     15  C   UNL     1      48.690   6.676  17.119  0.00  0.00    +0.000 C 
ATOM     16  C   UNL     1      47.979   5.973  18.228  0.00  0.00    +0.000 C 
BRANCH  14  20
ATOM     17  C   UNL     1      51.366   2.133  17.545  0.00  0.00    +0.000 A 
ATOM     18  C   UNL     1      51.720   3.484  17.618  0.00  0.00    +0.000 A 
ATOM     19  C   UNL     1      50.761   4.478  17.383  0.00  0.00    +0.000 A 
ATOM     20  C   UNL     1      49.424   4.153  17.094  0.00  0.00    +0.000 A 
ATOM     21  C   UNL     1      49.118   2.784  16.986  0.00  0.00    +0.000 A 
ATOM     22  F   UNL     1      47.866   2.414  16.674  0.00  0.00    +0.000 F 
ATOM     23  C   UNL     1      50.062   1.783  17.206  0.00  0.00    +0.000 A 
BRANCH  17  25
ATOM     24  N   UNL     1      53.124   0.297  18.063  0.00  0.00    +0.000 NA
ATOM     25  C   UNL     1      52.331   1.114  17.835  0.00  0.00    +0.000 C 
ENDBRANCH  17  25
ENDBRANCH  14  20
ENDBRANCH   1  14
TORSDOF 4
ENDMDL
MODEL 5
REMARK VINA RESULT:    -5.502      5.514      7.604
REMARK INTER + INTRA:          -7.205
REMARK INTER:                  -6.695
REMARK INTRA:                  -0.511
REMARK UNBOUND:                -0.416
REMARK  Name = 
REMARK  4 active torsions:
REMARK  status: ('A' for Active; 'I' for Inactive)
REMARK    1  A    between atoms: C_2  and  C_3
REMARK    2  A    between atoms: C_6  and  C_7
REMARK    3  A    between atoms: C_7  and  N_8
REMARK    4  A    between atoms: C_12  and  C_13
REMARK                            x       y       z     vdW  Elec       q    Type
REMARK                         _______ _______ _______ _____ _____    ______ ____
ROOT
ATOM      1  N   UNL     1      47.861   5.894  16.237  0.00  0.00    +0.000 N 
ATOM      2  C   UNL     1      48.594   6.378  15.160  0.00  0.00    +0.000 A 
ATOM      3  N   UNL     1      48.072   6.059  13.962  0.00  0.00    +0.000 NA
ATOM      4  C   UNL     1      48.632   6.617  12.867  0.00  0.00    +0.000 A 
ATOM      5  C   UNL     1      49.678   7.506  12.922  0.00  0.00    +0.000 A 
ATOM      6  C   UNL     1      50.173   7.736  14.185  0.00  0.00    +0.000 A 
ATOM      7  N   UNL     1      49.658   7.186  15.314  0.00  0.00    +0.000 NA
ATOM      8  H   UNL     1      47.163   5.265  15.850  0.00  0.00    +0.000 HD
ENDROOT
BRANCH   5   9
ATOM      9  C   UNL     1      50.172   8.123  11.683  0.00  0.00    +0.000 C 
ATOM     10  N   UNL     1      51.138   7.460  10.975  0.00  0.00    +0.000 N 
ATOM     11  O   UNL     1      49.775   9.220  11.323  0.00  0.00    +0.000 OA
ATOM     12  H   UNL     1      51.675   6.690  11.347  0.00  0.00    +0.000 HD
ATOM     13  H   UNL     1      51.551   7.977  10.208  0.00  0.00    +0.000 HD
ENDBRANCH   5   9
BRANCH   1  14
ATOM     14  C   UNL     1      48.409   5.560  17.552  0.00  0.00    +0.000 C 
ATOM     15  C   UNL     1      48.358   6.513  18.731  0.00  0.00    +0.000 C 
ATOM     16  C   UNL     1      47.344   5.422  18.643  0.00  0.00    +0.000 C 
BRANCH  14  20
ATOM     17  C   UNL     1      51.346   2.333  17.646  0.00  0.00    +0.000 A 
ATOM     18  C   UNL     1      51.733   3.637  17.969  0.00  0.00    +0.000 A 
ATOM     19  C   UNL     1      50.807   4.686  17.897  0.00  0.00    +0.000 A 
ATOM     20  C   UNL     1      49.469   4.459  17.527  0.00  0.00    +0.000 A 
ATOM     21  C   UNL     1      49.130   3.142  17.169  0.00  0.00    +0.000 A 
ATOM     22  F   UNL     1      47.877   2.872  16.770  0.00  0.00    +0.000 F 
ATOM     23  C   UNL     1      50.041   2.089  17.224  0.00  0.00    +0.000 A 
BRANCH  17  25
ATOM     24  N   UNL     1      53.026   0.371  17.882  0.00  0.00    +0.000 NA
ATOM     25  C   UNL     1      52.276   1.249  17.768  0.00  0.00    +0.000 C 
ENDBRANCH  17  25
ENDBRANCH  14  20
ENDBRANCH   1  14
TORSDOF 4
ENDMDL
MODEL 6
REMARK VINA RESULT:    -5.280      3.433      5.140
REMARK INTER + INTRA:          -6.931
REMARK INTER:                  -6.620
REMARK INTRA:                  -0.312
REMARK UNBOUND:                -0.416
REMARK  Name = 
REMARK  4 active torsions:
REMARK  status: ('A' for Active; 'I' for Inactive)
REMARK    1  A    between atoms: C_2  and  C_3
REMARK    2  A    between atoms: C_6  and  C_7
REMARK    3  A    between atoms: C_7  and  N_8
REMARK    4  A    between atoms: C_12  and  C_13
REMARK                            x       y       z     vdW  Elec       q    Type
REMARK                         _______ _______ _______ _____ _____    ______ ____
ROOT
ATOM      1  N   UNL     1      45.937   8.027  13.150  0.00  0.00    +0.000 N 
ATOM      2  C   UNL     1      45.599   6.778  12.642  0.00  0.00    +0.000 A 
ATOM      3  N   UNL     1      44.534   6.218  13.244  0.00  0.00    +0.000 NA
ATOM      4  C   UNL     1      44.042   5.078  12.712  0.00  0.00    +0.000 A 
ATOM      5  C   UNL     1      44.556   4.487  11.583  0.00  0.00    +0.000 A 
ATOM      6  C   UNL     1      45.670   5.106  11.065  0.00  0.00    +0.000 A 
ATOM      7  N   UNL     1      46.213   6.242  11.573  0.00  0.00    +0.000 NA
ATOM      8  H   UNL     1      45.373   8.160  13.985  0.00  0.00    +0.000 HD
ENDROOT
BRANCH   5   9
ATOM      9  C   UNL     1      43.907   3.290  11.031  0.00  0.00    +0.000 C 
ATOM     10  N   UNL     1      43.453   2.343  11.910  0.00  0.00    +0.000 N 
ATOM     11  O   UNL     1      43.824   3.117   9.826  0.00  0.00    +0.000 OA
ATOM     12  H   UNL     1      43.715   2.312  12.885  0.00  0.00    +0.000 HD
ATOM     13  H   UNL     1      43.140   1.474  11.492  0.00  0.00    +0.000 HD
ENDBRANCH   5   9
BRANCH   1  14
ATOM     14  C   UNL     1      47.281   8.605  13.151  0.00  0.00    +0.000 C 
ATOM     15  C   UNL     1      48.006   9.003  11.880  0.00  0.00    +0.000 C 
ATOM     16  C   UNL     1      47.323  10.061  12.681  0.00  0.00    +0.000 C 
BRANCH  14  20
ATOM     17  C   UNL     1      49.469   7.576  16.785  0.00  0.00    +0.000 A 
ATOM     18  C   UNL     1      48.747   8.772  16.721  0.00  0.00    +0.000 A 
ATOM     19  C   UNL     1      48.079   9.131  15.543  0.00  0.00    +0.000 A 
ATOM     20  C   UNL     1      48.094   8.298  14.409  0.00  0.00    +0.000 A 
ATOM     21  C   UNL     1      48.867   7.127  14.499  0.00  0.00    +0.000 A 
ATOM     22  F   UNL     1      48.950   6.312  13.435  0.00  0.00    +0.000 F 
ATOM     23  C   UNL     1      49.546   6.760  15.659  0.00  0.00    +0.000 A 
BRANCH  17  25
ATOM     24  N   UNL     1      50.619   6.848  18.993  0.00  0.00    +0.000 NA
ATOM     25  C   UNL     1      50.110   7.181  18.004  0.00  0.00    +0.000 C 
ENDBRANCH  17  25
ENDBRANCH  14  20
ENDBRANCH   1  14
TORSDOF 4
ENDMDL
