MODEL 1
REMARK VINA RESULT:    -8.042      0.000      0.000
REMARK INTER + INTRA:         -13.274
REMARK INTER:                 -11.568
REMARK INTRA:                  -1.705
REMARK UNBOUND:                -1.705
REMARK  Name = 
REMARK  9 active torsions:
REMARK  status: ('A' for Active; 'I' for Inactive)
REMARK    1  A    between atoms: C_1  and  C_2
REMARK    2  A    between atoms: C_2  and  N_3
REMARK    3  A    between atoms: N_3  and  C_4
REMARK    4  A    between atoms: C_4  and  C_5
REMARK    5  A    between atoms: C_8  and  C_9
REMARK    6  A    between atoms: C_9  and  O_10
REMARK    7  A    between atoms: C_9  and  C_11
REMARK    8  A    between atoms: C_11  and  C_12
REMARK    9  A    between atoms: C_20  and  C_22
REMARK                            x       y       z     vdW  Elec       q    Type
REMARK                         _______ _______ _______ _____ _____    ______ ____
ROOT
ATOM      1  C   UNL     1      47.255   6.903  13.895  0.00  0.00    +0.000 C 
ENDROOT
BRANCH   1   2
ATOM      2  C   UNL     1      46.709   5.858  12.968  0.00  0.00    +0.000 A 
ATOM      3  C   UNL     1      46.503   4.547  13.423  0.00  0.00    +0.000 A 
ATOM      4  C   UNL     1      45.744   3.651  12.671  0.00  0.00    +0.000 A 
ATOM      5  C   UNL     1      45.189   4.048  11.447  0.00  0.00    +0.000 A 
ATOM      6  C   UNL     1      45.469   5.338  10.967  0.00  0.00    +0.000 A 
ATOM      7  C   UNL     1      46.236   6.230  11.711  0.00  0.00    +0.000 A 
BRANCH   5   8
ATOM      8  C   UNL     1      44.206   3.122  10.748  0.00  0.00    +0.000 C 
BRANCH   8   9
ATOM      9  O   UNL     1      42.912   3.389  11.297  0.00  0.00    +0.000 OA
ATOM     10  H   UNL     1      42.891   4.327  11.556  0.00  0.00    +0.000 HD
ENDBRANCH   8   9
BRANCH   8  11
ATOM     11  C   UNL     1      44.184   3.306   9.219  0.00  0.00    +0.000 C 
BRANCH  11  12
ATOM     12  C   UNL     1      45.341   2.750   8.427  0.00  0.00    +0.000 A 
ATOM     13  C   UNL     1      46.081   3.642   7.634  0.00  0.00    +0.000 A 
ATOM     14  C   UNL     1      47.163   3.198   6.877  0.00  0.00    +0.000 A 
ATOM     15  C   UNL     1      47.529   1.857   6.915  0.00  0.00    +0.000 A 
ATOM     16  C   UNL     1      46.816   0.964   7.710  0.00  0.00    +0.000 A 
ATOM     17  C   UNL     1      45.729   1.406   8.468  0.00  0.00    +0.000 A 
ENDBRANCH  11  12
ENDBRANCH   8  11
ENDBRANCH   5   8
ENDBRANCH   1   2
BRANCH   1  18
ATOM     18  N   UNL     1      48.691   7.120  13.982  0.00  0.00    +0.000 N 
ATOM     19  C   UNL     1      49.428   6.810  15.143  0.00  0.00    +0.000 C 
ATOM     20  O   UNL     1      50.652   6.927  15.170  0.00  0.00    +0.000 OA
BRANCH  19  21
ATOM     21  C   UNL     1      48.730   6.306  16.340  0.00  0.00    +0.000 A 
ATOM     22  C   UNL     1      48.435   4.975  16.593  0.00  0.00    +0.000 A 
ATOM     23  S   UNL     1      47.669   4.713  18.096  0.00  0.00    +0.000 S 
ATOM     24  C   UNL     1      47.854   6.345  18.530  0.00  0.00    +0.000 A 
ATOM     25  N   UNL     1      47.511   6.783  19.768  0.00  0.00    +0.000 NA
ATOM     26  C   UNL     1      47.774   8.031  19.977  0.00  0.00    +0.000 A 
ATOM     27  N   UNL     1      48.308   8.886  19.045  0.00  0.00    +0.000 N 
ATOM     28  C   UNL     1      48.535   8.519  17.736  0.00  0.00    +0.000 A 
ATOM     29  O   UNL     1      48.776   9.359  16.873  0.00  0.00    +0.000 OA
ATOM     30  C   UNL     1      48.385   7.096  17.497  0.00  0.00    +0.000 A 
ATOM     31  H   UNL     1      48.421   9.868  19.252  0.00  0.00    +0.000 HD
ENDBRANCH  19  21
BRANCH  18  33
ATOM     32  C   UNL     1      48.924   8.752  12.129  0.00  0.00    +0.000 C 
ATOM     33  C   UNL     1      49.454   7.485  12.785  0.00  0.00    +0.000 C 
ENDBRANCH  18  33
ENDBRANCH   1  18
TORSDOF 8
ENDMDL
MODEL 2
REMARK VINA RESULT:    -8.019      1.371      2.224
REMARK INTER + INTRA:         -13.240
REMARK INTER:                 -11.731
REMARK INTRA:                  -1.509
REMARK UNBOUND:                -1.705
REMARK  Name = 
REMARK  9 active torsions:
REMARK  status: ('A' for Active; 'I' for Inactive)
REMARK    1  A    between atoms: C_1  and  C_2
REMARK    2  A    between atoms: C_2  and  N_3
REMARK    3  A    between atoms: N_3  and  C_4
REMARK    4  A    between atoms: C_4  and  C_5
REMARK    5  A    between atoms: C_8  and  C_9
REMARK    6  A    between atoms: C_9  and  O_10
REMARK    7  A    between atoms: C_9  and  C_11
REMARK    8  A    between atoms: C_11  and  C_12
REMARK    9  A    between atoms: C_20  and  C_22
REMARK                            x       y       z     vdW  Elec       q    Type
REMARK                         _______ _______ _______ _____ _____    ______ ____
ROOT
ATOM      1  C   UNL     1      47.278   7.608  13.719  0.00  0.00    +0.000 C 
ENDROOT
BRANCH   1   2
ATOM      2  C   UNL     1      46.377   6.622  13.034  0.00  0.00    +0.000 A 
ATOM      3  C   UNL     1      45.833   6.916  11.775  0.00  0.00    +0.000 A 
ATOM      4  C   UNL     1      45.237   5.912  11.014  0.00  0.00    +0.000 A 
ATOM      5  C   UNL     1      45.164   4.601  11.504  0.00  0.00    +0.000 A 
ATOM      6  C   UNL     1      45.642   4.338  12.798  0.00  0.00    +0.000 A 
ATOM      7  C   UNL     1      46.228   5.341  13.564  0.00  0.00    +0.000 A 
BRANCH   5   8
ATOM      8  C   UNL     1      44.693   3.492  10.576  0.00  0.00    +0.000 C 
BRANCH   8   9
ATOM      9  O   UNL     1      43.350   3.172  10.951  0.00  0.00    +0.000 OA
ATOM     10  H   UNL     1      42.835   3.061  10.134  0.00  0.00    +0.000 HD
ENDBRANCH   8   9
BRANCH   8  11
ATOM     11  C   UNL     1      44.751   3.883   9.088  0.00  0.00    +0.000 C 
BRANCH  11  12
ATOM     12  C   UNL     1      45.668   3.093   8.188  0.00  0.00    +0.000 A 
ATOM     13  C   UNL     1      45.877   1.738   8.492  0.00  0.00    +0.000 A 
ATOM     14  C   UNL     1      46.710   0.947   7.704  0.00  0.00    +0.000 A 
ATOM     15  C   UNL     1      47.334   1.498   6.590  0.00  0.00    +0.000 A 
ATOM     16  C   UNL     1      47.123   2.835   6.266  0.00  0.00    +0.000 A 
ATOM     17  C   UNL     1      46.290   3.631   7.056  0.00  0.00    +0.000 A 
ENDBRANCH  11  12
ENDBRANCH   8  11
ENDBRANCH   5   8
ENDBRANCH   1   2
BRANCH   1  18
ATOM     18  N   UNL     1      48.721   7.486  13.590  0.00  0.00    +0.000 N 
ATOM     19  C   UNL     1      49.592   7.680  14.682  0.00  0.00    +0.000 C 
ATOM     20  O   UNL     1      50.803   7.495  14.572  0.00  0.00    +0.000 OA
BRANCH  19  21
ATOM     21  C   UNL     1      49.045   8.081  15.992  0.00  0.00    +0.000 A 
ATOM     22  C   UNL     1      48.739   9.381  16.366  0.00  0.00    +0.000 A 
ATOM     23  S   UNL     1      48.067   9.506  17.931  0.00  0.00    +0.000 S 
ATOM     24  C   UNL     1      48.009   7.816  18.094  0.00  0.00    +0.000 A 
ATOM     25  N   UNL     1      47.424   7.237  19.174  0.00  0.00    +0.000 NA
ATOM     26  C   UNL     1      47.392   5.946  19.126  0.00  0.00    +0.000 A 
ATOM     27  N   UNL     1      47.931   5.184  18.118  0.00  0.00    +0.000 N 
ATOM     28  C   UNL     1      48.661   5.725  17.080  0.00  0.00    +0.000 A 
ATOM     29  O   UNL     1      49.334   5.015  16.340  0.00  0.00    +0.000 OA
ATOM     30  C   UNL     1      48.601   7.174  17.022  0.00  0.00    +0.000 A 
ATOM     31  H   UNL     1      47.935   4.177  18.180  0.00  0.00    +0.000 HD
ENDBRANCH  19  21
BRANCH  18  33
ATOM     32  C   UNL     1      49.619   8.056  11.350  0.00  0.00    +0.000 C 
ATOM     33  C   UNL     1      49.307   6.957  12.356  0.00  0.00    +0.000 C 
ENDBRANCH  18  33
ENDBRANCH   1  18
TORSDOF 8
ENDMDL
MODEL 3
REMARK VINA RESULT:    -7.817      3.724      8.302
REMARK INTER + INTRA:         -12.950
REMARK INTER:                 -11.568
REMARK INTRA:                  -1.383
REMARK UNBOUND:                -1.705
REMARK  Name = 
REMARK  9 active torsions:
REMARK  status: ('A' for Active; 'I' for Inactive)
REMARK    1  A    between atoms: C_1  and  C_2
REMARK    2  A    between atoms: C_2  and  N_3
REMARK    3  A    between atoms: N_3  and  C_4
REMARK    4  A    between atoms: C_4  and  C_5
REMARK    5  A    between atoms: C_8  and  C_9
REMARK    6  A    between atoms: C_9  and  O_10
REMARK    7  A    between atoms: C_9  and  C_11
REMARK    8  A    between atoms: C_11  and  C_12
REMARK    9  A    between atoms: C_20  and  C_22
REMARK                            x       y       z     vdW  Elec       q    Type
REMARK                         _______ _______ _______ _____ _____    ______ ____
ROOT
ATOM      1  C   UNL     1      47.236   6.200  12.259  0.00  0.00    +0.000 C 
ENDROOT
BRANCH   1   2
ATOM      2  C   UNL     1      47.207   5.608  13.638  0.00  0.00    +0.000 A 
ATOM      3  C   UNL     1      46.615   4.356  13.858  0.00  0.00    +0.000 A 
ATOM      4  C   UNL     1      46.827   3.677  15.056  0.00  0.00    +0.000 A 
ATOM      5  C   UNL     1      47.625   4.244  16.059  0.00  0.00    +0.000 A 
ATOM      6  C   UNL     1      48.147   5.532  15.856  0.00  0.00    +0.000 A 
ATOM      7  C   UNL     1      47.927   6.216  14.665  0.00  0.00    +0.000 A 
BRANCH   5   8
ATOM      8  C   UNL     1      48.002   3.400  17.267  0.00  0.00    +0.000 C 
BRANCH   8   9
ATOM      9  O   UNL     1      46.792   2.843  17.785  0.00  0.00    +0.000 OA
ATOM     10  H   UNL     1      46.156   2.787  17.051  0.00  0.00    +0.000 HD
ENDBRANCH   8   9
BRANCH   8  11
ATOM     11  C   UNL     1      49.005   2.280  16.933  0.00  0.00    +0.000 C 
BRANCH  11  12
ATOM     12  C   UNL     1      50.443   2.479  17.341  0.00  0.00    +0.000 A 
ATOM     13  C   UNL     1      51.282   1.352  17.353  0.00  0.00    +0.000 A 
ATOM     14  C   UNL     1      52.622   1.462  17.718  0.00  0.00    +0.000 A 
ATOM     15  C   UNL     1      53.146   2.704  18.061  0.00  0.00    +0.000 A 
ATOM     16  C   UNL     1      52.331   3.832  18.037  0.00  0.00    +0.000 A 
ATOM     17  C   UNL     1      50.986   3.724  17.674  0.00  0.00    +0.000 A 
ENDBRANCH  11  12
ENDBRANCH   8  11
ENDBRANCH   5   8
ENDBRANCH   1   2
BRANCH   1  18
ATOM     18  N   UNL     1      46.262   7.211  11.881  0.00  0.00    +0.000 N 
ATOM     19  C   UNL     1      44.943   6.881  11.505  0.00  0.00    +0.000 C 
ATOM     20  O   UNL     1      44.112   7.755  11.265  0.00  0.00    +0.000 OA
BRANCH  19  21
ATOM     21  C   UNL     1      44.538   5.465  11.428  0.00  0.00    +0.000 A 
ATOM     22  C   UNL     1      43.740   4.810  12.354  0.00  0.00    +0.000 A 
ATOM     23  S   UNL     1      43.406   3.186  11.947  0.00  0.00    +0.000 S 
ATOM     24  C   UNL     1      44.176   3.353  10.442  0.00  0.00    +0.000 A 
ATOM     25  N   UNL     1      44.151   2.350   9.528  0.00  0.00    +0.000 NA
ATOM     26  C   UNL     1      44.717   2.647   8.405  0.00  0.00    +0.000 A 
ATOM     27  N   UNL     1      45.342   3.839   8.132  0.00  0.00    +0.000 N 
ATOM     28  C   UNL     1      45.518   4.825   9.080  0.00  0.00    +0.000 A 
ATOM     29  O   UNL     1      46.286   5.762   8.886  0.00  0.00    +0.000 OA
ATOM     30  C   UNL     1      44.779   4.591  10.306  0.00  0.00    +0.000 A 
ATOM     31  H   UNL     1      45.828   3.977   7.259  0.00  0.00    +0.000 HD
ENDBRANCH  19  21
BRANCH  18  33
ATOM     32  C   UNL     1      48.061   8.908  12.064  0.00  0.00    +0.000 C 
ATOM     33  C   UNL     1      46.564   8.632  12.072  0.00  0.00    +0.000 C 
ENDBRANCH  18  33
ENDBRANCH   1  18
TORSDOF 8
ENDMDL
MODEL 4
REMARK VINA RESULT:    -7.795      1.851      2.678
REMARK INTER + INTRA:         -12.918
REMARK INTER:                 -11.543
REMARK INTRA:                  -1.375
REMARK UNBOUND:                -1.705
REMARK  Name = 
REMARK  9 active torsions:
REMARK  status: ('A' for Active; 'I' for Inactive)
REMARK    1  A    between atoms: C_1  and  C_2
REMARK    2  A    between atoms: C_2  and  N_3
REMARK    3  A    between atoms: N_3  and  C_4
REMARK    4  A    between atoms: C_4  and  C_5
REMARK    5  A    between atoms: C_8  and  C_9
REMARK    6  A    between atoms: C_9  and  O_10
REMARK    7  A    between atoms: C_9  and  C_11
REMARK    8  A    between atoms: C_11  and  C_12
REMARK    9  A    between atoms: C_20  and  C_22
REMARK                            x       y       z     vdW  Elec       q    Type
REMARK                         _______ _______ _______ _____ _____    ______ ____
ROOT
ATOM      1  C   UNL     1      48.376   6.100  13.773  0.00  0.00    +0.000 C 
ENDROOT
BRANCH   1   2
ATOM      2  C   UNL     1      47.102   5.536  13.217  0.00  0.00    +0.000 A 
ATOM      3  C   UNL     1      46.412   6.213  12.201  0.00  0.00    +0.000 A 
ATOM      4  C   UNL     1      45.399   5.572  11.489  0.00  0.00    +0.000 A 
ATOM      5  C   UNL     1      45.052   4.248  11.790  0.00  0.00    +0.000 A 
ATOM      6  C   UNL     1      45.697   3.610  12.862  0.00  0.00    +0.000 A 
ATOM      7  C   UNL     1      46.700   4.251  13.581  0.00  0.00    +0.000 A 
BRANCH   5   8
ATOM      8  C   UNL     1      44.088   3.512  10.872  0.00  0.00    +0.000 C 
BRANCH   8   9
ATOM      9  O   UNL     1      42.765   3.790  11.340  0.00  0.00    +0.000 OA
ATOM     10  H   UNL     1      42.644   4.755  11.321  0.00  0.00    +0.000 HD
ENDBRANCH   8   9
BRANCH   8  11
ATOM     11  C   UNL     1      44.229   3.922   9.395  0.00  0.00    +0.000 C 
BRANCH  11  12
ATOM     12  C   UNL     1      45.299   3.245   8.575  0.00  0.00    +0.000 A 
ATOM     13  C   UNL     1      45.471   1.860   8.738  0.00  0.00    +0.000 A 
ATOM     14  C   UNL     1      46.440   1.170   8.013  0.00  0.00    +0.000 A 
ATOM     15  C   UNL     1      47.239   1.852   7.103  0.00  0.00    +0.000 A 
ATOM     16  C   UNL     1      47.068   3.221   6.918  0.00  0.00    +0.000 A 
ATOM     17  C   UNL     1      46.100   3.917   7.646  0.00  0.00    +0.000 A 
ENDBRANCH  11  12
ENDBRANCH   8  11
ENDBRANCH   5   8
ENDBRANCH   1   2
BRANCH   1  18
ATOM     18  N   UNL     1      48.334   7.238  14.678  0.00  0.00    +0.000 N 
ATOM     19  C   UNL     1      48.465   7.092  16.075  0.00  0.00    +0.000 C 
ATOM     20  O   UNL     1      48.506   8.072  16.816  0.00  0.00    +0.000 OA
BRANCH  19  21
ATOM     21  C   UNL     1      48.588   5.744  16.661  0.00  0.00    +0.000 A 
ATOM     22  C   UNL     1      47.559   4.819  16.759  0.00  0.00    +0.000 A 
ATOM     23  S   UNL     1      48.039   3.327  17.437  0.00  0.00    +0.000 S 
ATOM     24  C   UNL     1      49.668   3.810  17.470  0.00  0.00    +0.000 A 
ATOM     25  N   UNL     1      50.647   2.944  17.837  0.00  0.00    +0.000 NA
ATOM     26  C   UNL     1      51.841   3.431  17.746  0.00  0.00    +0.000 A 
ATOM     27  N   UNL     1      52.137   4.716  17.363  0.00  0.00    +0.000 N 
ATOM     28  C   UNL     1      51.169   5.668  17.124  0.00  0.00    +0.000 A 
ATOM     29  O   UNL     1      51.457   6.857  17.029  0.00  0.00    +0.000 OA
ATOM     30  C   UNL     1      49.823   5.128  17.080  0.00  0.00    +0.000 A 
ATOM     31  H   UNL     1      53.088   5.052  17.384  0.00  0.00    +0.000 HD
ENDBRANCH  19  21
BRANCH  18  33
ATOM     32  C   UNL     1      49.073   8.687  12.806  0.00  0.00    +0.000 C 
ATOM     33  C   UNL     1      48.355   8.603  14.145  0.00  0.00    +0.000 C 
ENDBRANCH  18  33
ENDBRANCH   1  18
TORSDOF 8
ENDMDL
MODEL 5
REMARK VINA RESULT:    -7.688      1.908      2.747
REMARK INTER + INTRA:         -12.765
REMARK INTER:                 -11.417
REMARK INTRA:                  -1.348
REMARK UNBOUND:                -1.705
REMARK  Name = 
REMARK  9 active torsions:
REMARK  status: ('A' for Active; 'I' for Inactive)
REMARK    1  A    between atoms: C_1  and  C_2
REMARK    2  A    between atoms: C_2  and  N_3
REMARK    3  A    between atoms: N_3  and  C_4
REMARK    4  A    between atoms: C_4  and  C_5
REMARK    5  A    between atoms: C_8  and  C_9
REMARK    6  A    between atoms: C_9  and  O_10
REMARK    7  A    between atoms: C_9  and  C_11
REMARK    8  A    between atoms: C_11  and  C_12
REMARK    9  A    between atoms: C_20  and  C_22
REMARK                            x       y       z     vdW  Elec       q    Type
REMARK                         _______ _______ _______ _____ _____    ______ ____
ROOT
ATOM      1  C   UNL     1      48.110   6.791  13.206  0.00  0.00    +0.000 C 
ENDROOT
BRANCH   1   2
ATOM      2  C   UNL     1      46.936   6.004  12.701  0.00  0.00    +0.000 A 
ATOM      3  C   UNL     1      46.390   6.280  11.439  0.00  0.00    +0.000 A 
ATOM      4  C   UNL     1      45.498   5.387  10.847  0.00  0.00    +0.000 A 
ATOM      5  C   UNL     1      45.130   4.210  11.512  0.00  0.00    +0.000 A 
ATOM      6  C   UNL     1      45.624   3.985  12.808  0.00  0.00    +0.000 A 
ATOM      7  C   UNL     1      46.505   4.881  13.405  0.00  0.00    +0.000 A 
BRANCH   5   8
ATOM      8  C   UNL     1      44.318   3.164  10.764  0.00  0.00    +0.000 C 
BRANCH   8   9
ATOM      9  O   UNL     1      42.990   3.205  11.291  0.00  0.00    +0.000 OA
ATOM     10  H   UNL     1      42.867   2.413  11.843  0.00  0.00    +0.000 HD
ENDBRANCH   8   9
BRANCH   8  11
ATOM     11  C   UNL     1      44.294   3.392   9.241  0.00  0.00    +0.000 C 
BRANCH  11  12
ATOM     12  C   UNL     1      45.400   2.777   8.420  0.00  0.00    +0.000 A 
ATOM     13  C   UNL     1      46.133   3.621   7.570  0.00  0.00    +0.000 A 
ATOM     14  C   UNL     1      47.168   3.121   6.784  0.00  0.00    +0.000 A 
ATOM     15  C   UNL     1      47.495   1.771   6.848  0.00  0.00    +0.000 A 
ATOM     16  C   UNL     1      46.789   0.925   7.699  0.00  0.00    +0.000 A 
ATOM     17  C   UNL     1      45.748   1.423   8.486  0.00  0.00    +0.000 A 
ENDBRANCH  11  12
ENDBRANCH   8  11
ENDBRANCH   5   8
ENDBRANCH   1   2
BRANCH   1  18
ATOM     18  N   UNL     1      47.910   8.121  13.761  0.00  0.00    +0.000 N 
ATOM     19  C   UNL     1      48.453   8.505  15.005  0.00  0.00    +0.000 C 
ATOM     20  O   UNL     1      48.339   9.657  15.420  0.00  0.00    +0.000 OA
BRANCH  19  21
ATOM     21  C   UNL     1      49.200   7.522  15.812  0.00  0.00    +0.000 A 
ATOM     22  C   UNL     1      48.627   6.525  16.587  0.00  0.00    +0.000 A 
ATOM     23  S   UNL     1      49.767   5.513  17.356  0.00  0.00    +0.000 S 
ATOM     24  C   UNL     1      51.057   6.270  16.550  0.00  0.00    +0.000 A 
ATOM     25  N   UNL     1      52.326   5.804  16.669  0.00  0.00    +0.000 NA
ATOM     26  C   UNL     1      53.189   6.436  15.944  0.00  0.00    +0.000 A 
ATOM     27  N   UNL     1      52.902   7.517  15.147  0.00  0.00    +0.000 N 
ATOM     28  C   UNL     1      51.658   8.110  15.110  0.00  0.00    +0.000 A 
ATOM     29  O   UNL     1      51.494   9.210  14.589  0.00  0.00    +0.000 OA
ATOM     30  C   UNL     1      50.632   7.351  15.799  0.00  0.00    +0.000 A 
ATOM     31  H   UNL     1      53.638   8.009  14.662  0.00  0.00    +0.000 HD
ENDBRANCH  19  21
BRANCH  18  33
ATOM     32  C   UNL     1      48.233   9.666  11.849  0.00  0.00    +0.000 C 
ATOM     33  C   UNL     1      47.299   9.174  12.946  0.00  0.00    +0.000 C 
ENDBRANCH  18  33
ENDBRANCH   1  18
TORSDOF 8
ENDMDL
MODEL 6
REMARK VINA RESULT:    -7.470      1.851      2.924
REMARK INTER + INTRA:         -12.451
REMARK INTER:                 -11.031
REMARK INTRA:                  -1.420
REMARK UNBOUND:                -1.705
REMARK  Name = 
REMARK  9 active torsions:
REMARK  status: ('A' for Active; 'I' for Inactive)
REMARK    1  A    between atoms: C_1  and  C_2
REMARK    2  A    between atoms: C_2  and  N_3
REMARK    3  A    between atoms: N_3  and  C_4
REMARK    4  A    between atoms: C_4  and  C_5
REMARK    5  A    between atoms: C_8  and  C_9
REMARK    6  A    between atoms: C_9  and  O_10
REMARK    7  A    between atoms: C_9  and  C_11
REMARK    8  A    between atoms: C_11  and  C_12
REMARK    9  A    between atoms: C_20  and  C_22
REMARK                            x       y       z     vdW  Elec       q    Type
REMARK                         _______ _______ _______ _____ _____    ______ ____
ROOT
ATOM      1  C   UNL     1      46.796   5.140  15.194  0.00  0.00    +0.000 C 
ENDROOT
BRANCH   1   2
ATOM      2  C   UNL     1      46.460   4.876  13.755  0.00  0.00    +0.000 A 
ATOM      3  C   UNL     1      46.048   3.598  13.348  0.00  0.00    +0.000 A 
ATOM      4  C   UNL     1      45.470   3.412  12.093  0.00  0.00    +0.000 A 
ATOM      5  C   UNL     1      45.304   4.497  11.222  0.00  0.00    +0.000 A 
ATOM      6  C   UNL     1      45.794   5.755  11.612  0.00  0.00    +0.000 A 
ATOM      7  C   UNL     1      46.381   5.940  12.859  0.00  0.00    +0.000 A 
BRANCH   5   8
ATOM      8  C   UNL     1      44.494   4.304   9.950  0.00  0.00    +0.000 C 
BRANCH   8   9
ATOM      9  O   UNL     1      43.384   5.203  10.017  0.00  0.00    +0.000 OA
ATOM     10  H   UNL     1      43.633   5.933  10.610  0.00  0.00    +0.000 HD
ENDBRANCH   8   9
BRANCH   8  11
ATOM     11  C   UNL     1      45.310   4.560   8.669  0.00  0.00    +0.000 C 
BRANCH  11  12
ATOM     12  C   UNL     1      46.010   3.384   8.035  0.00  0.00    +0.000 A 
ATOM     13  C   UNL     1      45.735   2.104   8.544  0.00  0.00    +0.000 A 
ATOM     14  C   UNL     1      46.346   0.973   8.006  0.00  0.00    +0.000 A 
ATOM     15  C   UNL     1      47.229   1.106   6.940  0.00  0.00    +0.000 A 
ATOM     16  C   UNL     1      47.498   2.366   6.413  0.00  0.00    +0.000 A 
ATOM     17  C   UNL     1      46.890   3.502   6.952  0.00  0.00    +0.000 A 
ENDBRANCH  11  12
ENDBRANCH   8  11
ENDBRANCH   5   8
ENDBRANCH   1   2
BRANCH   1  18
ATOM     18  N   UNL     1      47.972   4.526  15.790  0.00  0.00    +0.000 N 
ATOM     19  C   UNL     1      49.103   5.279  16.168  0.00  0.00    +0.000 C 
ATOM     20  O   UNL     1      50.055   4.754  16.742  0.00  0.00    +0.000 OA
BRANCH  19  21
ATOM     21  C   UNL     1      49.139   6.729  15.900  0.00  0.00    +0.000 A 
ATOM     22  C   UNL     1      49.451   7.309  14.680  0.00  0.00    +0.000 A 
ATOM     23  S   UNL     1      49.347   9.013  14.683  0.00  0.00    +0.000 S 
ATOM     24  C   UNL     1      48.725   9.022  16.263  0.00  0.00    +0.000 A 
ATOM     25  N   UNL     1      48.302  10.175  16.843  0.00  0.00    +0.000 NA
ATOM     26  C   UNL     1      47.788  10.016  18.018  0.00  0.00    +0.000 A 
ATOM     27  N   UNL     1      47.700   8.816  18.680  0.00  0.00    +0.000 N 
ATOM     28  C   UNL     1      48.248   7.649  18.190  0.00  0.00    +0.000 A 
ATOM     29  O   UNL     1      48.373   6.658  18.903  0.00  0.00    +0.000 OA
ATOM     30  C   UNL     1      48.708   7.755  16.818  0.00  0.00    +0.000 A 
ATOM     31  H   UNL     1      47.353   8.775  19.626  0.00  0.00    +0.000 HD
ENDBRANCH  19  21
BRANCH  18  33
ATOM     32  C   UNL     1      47.252   2.933  17.550  0.00  0.00    +0.000 C 
ATOM     33  C   UNL     1      47.938   3.120  16.204  0.00  0.00    +0.000 C 
ENDBRANCH  18  33
ENDBRANCH   1  18
TORSDOF 8
ENDMDL
MODEL 7
REMARK VINA RESULT:    -7.279      3.631      8.034
REMARK INTER + INTRA:         -12.176
REMARK INTER:                 -10.458
REMARK INTRA:                  -1.718
REMARK UNBOUND:                -1.705
REMARK  Name = 
REMARK  9 active torsions:
REMARK  status: ('A' for Active; 'I' for Inactive)
REMARK    1  A    between atoms: C_1  and  C_2
REMARK    2  A    between atoms: C_2  and  N_3
REMARK    3  A    between atoms: N_3  and  C_4
REMARK    4  A    between atoms: C_4  and  C_5
REMARK    5  A    between atoms: C_8  and  C_9
REMARK    6  A    between atoms: C_9  and  O_10
REMARK    7  A    between atoms: C_9  and  C_11
REMARK    8  A    between atoms: C_11  and  C_12
REMARK    9  A    between atoms: C_20  and  C_22
REMARK                            x       y       z     vdW  Elec       q    Type
REMARK                         _______ _______ _______ _____ _____    ______ ____
ROOT
ATOM      1  C   UNL     1      47.388   6.214  12.435  0.00  0.00    +0.000 C 
ENDROOT
BRANCH   1   2
ATOM      2  C   UNL     1      47.715   5.753  13.825  0.00  0.00    +0.000 A 
ATOM      3  C   UNL     1      48.520   6.541  14.660  0.00  0.00    +0.000 A 
ATOM      4  C   UNL     1      48.597   6.270  16.025  0.00  0.00    +0.000 A 
ATOM      5  C   UNL     1      47.879   5.199  16.575  0.00  0.00    +0.000 A 
ATOM      6  C   UNL     1      47.139   4.372  15.714  0.00  0.00    +0.000 A 
ATOM      7  C   UNL     1      47.070   4.635  14.350  0.00  0.00    +0.000 A 
BRANCH   5   8
ATOM      8  C   UNL     1      47.823   5.049  18.087  0.00  0.00    +0.000 C 
BRANCH   8   9
ATOM      9  O   UNL     1      46.466   5.273  18.482  0.00  0.00    +0.000 OA
ATOM     10  H   UNL     1      46.101   4.420  18.775  0.00  0.00    +0.000 HD
ENDBRANCH   8   9
BRANCH   8  11
ATOM     11  C   UNL     1      48.299   3.668  18.576  0.00  0.00    +0.000 C 
BRANCH  11  12
ATOM     12  C   UNL     1      49.693   3.232  18.201  0.00  0.00    +0.000 A 
ATOM     13  C   UNL     1      50.768   4.012  18.657  0.00  0.00    +0.000 A 
ATOM     14  C   UNL     1      52.083   3.668  18.350  0.00  0.00    +0.000 A 
ATOM     15  C   UNL     1      52.341   2.528  17.595  0.00  0.00    +0.000 A 
ATOM     16  C   UNL     1      51.286   1.736  17.152  0.00  0.00    +0.000 A 
ATOM     17  C   UNL     1      49.967   2.080  17.455  0.00  0.00    +0.000 A 
ENDBRANCH  11  12
ENDBRANCH   8  11
ENDBRANCH   5   8
ENDBRANCH   1   2
BRANCH   1  18
ATOM     18  N   UNL     1      46.461   7.316  12.232  0.00  0.00    +0.000 N 
ATOM     19  C   UNL     1      45.299   7.186  11.444  0.00  0.00    +0.000 C 
ATOM     20  O   UNL     1      44.488   8.106  11.349  0.00  0.00    +0.000 OA
BRANCH  19  21
ATOM     21  C   UNL     1      45.030   5.917  10.743  0.00  0.00    +0.000 A 
ATOM     22  C   UNL     1      45.510   5.580   9.487  0.00  0.00    +0.000 A 
ATOM     23  S   UNL     1      45.065   4.013   8.978  0.00  0.00    +0.000 S 
ATOM     24  C   UNL     1      44.355   3.672  10.483  0.00  0.00    +0.000 A 
ATOM     25  N   UNL     1      43.876   2.434  10.767  0.00  0.00    +0.000 NA
ATOM     26  C   UNL     1      43.431   2.306  11.974  0.00  0.00    +0.000 A 
ATOM     27  N   UNL     1      43.384   3.314  12.904  0.00  0.00    +0.000 N 
ATOM     28  C   UNL     1      43.723   4.619  12.611  0.00  0.00    +0.000 A 
ATOM     29  O   UNL     1      43.439   5.536  13.376  0.00  0.00    +0.000 OA
ATOM     30  C   UNL     1      44.357   4.777  11.315  0.00  0.00    +0.000 A 
ATOM     31  H   UNL     1      42.956   3.164  13.805  0.00  0.00    +0.000 HD
ENDBRANCH  19  21
BRANCH  18  33
ATOM     32  C   UNL     1      47.557   9.538  12.354  0.00  0.00    +0.000 C 
ATOM     33  C   UNL     1      46.604   8.549  13.012  0.00  0.00    +0.000 C 
ENDBRANCH  18  33
ENDBRANCH   1  18
TORSDOF 8
ENDMDL
MODEL 8
REMARK VINA RESULT:    -6.992      3.273      9.024
REMARK INTER + INTRA:         -11.763
REMARK INTER:                 -10.104
REMARK INTRA:                  -1.660
REMARK UNBOUND:                -1.705
REMARK  Name = 
REMARK  9 active torsions:
REMARK  status: ('A' for Active; 'I' for Inactive)
REMARK    1  A    between atoms: C_1  and  C_2
REMARK    2  A    between atoms: C_2  and  N_3
REMARK    3  A    between atoms: N_3  and  C_4
REMARK    4  A    between atoms: C_4  and  C_5
REMARK    5  A    between atoms: C_8  and  C_9
REMARK    6  A    between atoms: C_9  and  O_10
REMARK    7  A    between atoms: C_9  and  C_11
REMARK    8  A    between atoms: C_11  and  C_12
REMARK    9  A    between atoms: C_20  and  C_22
REMARK                            x       y       z     vdW  Elec       q    Type
REMARK                         _______ _______ _______ _____ _____    ______ ____
ROOT
ATOM      1  C   UNL     1      47.290   6.050  12.503  0.00  0.00    +0.000 C 
ENDROOT
BRANCH   1   2
ATOM      2  C   UNL     1      47.433   5.689  13.952  0.00  0.00    +0.000 A 
ATOM      3  C   UNL     1      46.820   4.533  14.456  0.00  0.00    +0.000 A 
ATOM      4  C   UNL     1      47.172   4.039  15.712  0.00  0.00    +0.000 A 
ATOM      5  C   UNL     1      48.134   4.700  16.488  0.00  0.00    +0.000 A 
ATOM      6  C   UNL     1      48.681   5.900  16.003  0.00  0.00    +0.000 A 
ATOM      7  C   UNL     1      48.323   6.400  14.755  0.00  0.00    +0.000 A 
BRANCH   5   8
ATOM      8  C   UNL     1      48.641   4.035  17.757  0.00  0.00    +0.000 C 
BRANCH   8   9
ATOM      9  O   UNL     1      49.359   2.863  17.361  0.00  0.00    +0.000 OA
ATOM     10  H   UNL     1      50.005   3.129  16.683  0.00  0.00    +0.000 HD
ENDBRANCH   8   9
BRANCH   8  11
ATOM     11  C   UNL     1      49.544   4.953  18.601  0.00  0.00    +0.000 C 
BRANCH  11  12
ATOM     12  C   UNL     1      48.880   6.022  19.433  0.00  0.00    +0.000 A 
ATOM     13  C   UNL     1      49.234   7.359  19.186  0.00  0.00    +0.000 A 
ATOM     14  C   UNL     1      48.660   8.398  19.915  0.00  0.00    +0.000 A 
ATOM     15  C   UNL     1      47.711   8.114  20.892  0.00  0.00    +0.000 A 
ATOM     16  C   UNL     1      47.337   6.796  21.135  0.00  0.00    +0.000 A 
ATOM     17  C   UNL     1      47.914   5.752  20.408  0.00  0.00    +0.000 A 
ENDBRANCH  11  12
ENDBRANCH   8  11
ENDBRANCH   5   8
ENDBRANCH   1   2
BRANCH   1  18
ATOM     18  N   UNL     1      46.340   7.074  12.099  0.00  0.00    +0.000 N 
ATOM     19  C   UNL     1      45.038   6.759  11.657  0.00  0.00    +0.000 C 
ATOM     20  O   UNL     1      44.223   7.642  11.395  0.00  0.00    +0.000 OA
BRANCH  19  21
ATOM     21  C   UNL     1      44.629   5.347  11.535  0.00  0.00    +0.000 A 
ATOM     22  C   UNL     1      43.856   4.657  12.456  0.00  0.00    +0.000 A 
ATOM     23  S   UNL     1      43.509   3.050  11.994  0.00  0.00    +0.000 S 
ATOM     24  C   UNL     1      44.240   3.276  10.477  0.00  0.00    +0.000 A 
ATOM     25  N   UNL     1      44.189   2.309   9.525  0.00  0.00    +0.000 NA
ATOM     26  C   UNL     1      44.726   2.650   8.400  0.00  0.00    +0.000 A 
ATOM     27  N   UNL     1      45.344   3.851   8.158  0.00  0.00    +0.000 N 
ATOM     28  C   UNL     1      45.546   4.800   9.138  0.00  0.00    +0.000 A 
ATOM     29  O   UNL     1      46.310   5.744   8.961  0.00  0.00    +0.000 OA
ATOM     30  C   UNL     1      44.839   4.517  10.374  0.00  0.00    +0.000 A 
ATOM     31  H   UNL     1      45.807   4.024   7.278  0.00  0.00    +0.000 HD
ENDBRANCH  19  21
BRANCH  18  33
ATOM     32  C   UNL     1      48.073   8.842  11.954  0.00  0.00    +0.000 C 
ATOM     33  C   UNL     1      46.641   8.490  12.330  0.00  0.00    +0.000 C 
ENDBRANCH  18  33
ENDBRANCH   1  18
TORSDOF 8
ENDMDL
MODEL 9
REMARK VINA RESULT:    -6.929      2.631      4.870
REMARK INTER + INTRA:         -11.673
REMARK INTER:                 -10.531
REMARK INTRA:                  -1.142
REMARK UNBOUND:                -1.705
REMARK  Name = 
REMARK  9 active torsions:
REMARK  status: ('A' for Active; 'I' for Inactive)
REMARK    1  A    between atoms: C_1  and  C_2
REMARK    2  A    between atoms: C_2  and  N_3
REMARK    3  A    between atoms: N_3  and  C_4
REMARK    4  A    between atoms: C_4  and  C_5
REMARK    5  A    between atoms: C_8  and  C_9
REMARK    6  A    between atoms: C_9  and  O_10
REMARK    7  A    between atoms: C_9  and  C_11
REMARK    8  A    between atoms: C_11  and  C_12
REMARK    9  A    between atoms: C_20  and  C_22
REMARK                            x       y       z     vdW  Elec       q    Type
REMARK                         _______ _______ _______ _____ _____    ______ ____
ROOT
ATOM      1  C   UNL     1      48.510   6.626  13.208  0.00  0.00    +0.000 C 
ENDROOT
BRANCH   1   2
ATOM      2  C   UNL     1      47.150   6.140  12.801  0.00  0.00    +0.000 A 
ATOM      3  C   UNL     1      46.403   6.845  11.847  0.00  0.00    +0.000 A 
ATOM      4  C   UNL     1      45.281   6.262  11.259  0.00  0.00    +0.000 A 
ATOM      5  C   UNL     1      44.882   4.969  11.624  0.00  0.00    +0.000 A 
ATOM      6  C   UNL     1      45.594   4.306  12.638  0.00  0.00    +0.000 A 
ATOM      7  C   UNL     1      46.707   4.891  13.233  0.00  0.00    +0.000 A 
BRANCH   5   8
ATOM      8  C   UNL     1      43.782   4.285  10.828  0.00  0.00    +0.000 C 
BRANCH   8   9
ATOM      9  O   UNL     1      43.409   5.175   9.773  0.00  0.00    +0.000 OA
ATOM     10  H   UNL     1      42.618   4.807   9.343  0.00  0.00    +0.000 HD
ENDBRANCH   8   9
BRANCH   8  11
ATOM     11  C   UNL     1      44.212   2.924  10.250  0.00  0.00    +0.000 C 
BRANCH  11  12
ATOM     12  C   UNL     1      45.200   2.924   9.111  0.00  0.00    +0.000 A 
ATOM     13  C   UNL     1      45.733   1.689   8.705  0.00  0.00    +0.000 A 
ATOM     14  C   UNL     1      46.650   1.613   7.659  0.00  0.00    +0.000 A 
ATOM     15  C   UNL     1      47.036   2.772   6.994  0.00  0.00    +0.000 A 
ATOM     16  C   UNL     1      46.503   4.001   7.373  0.00  0.00    +0.000 A 
ATOM     17  C   UNL     1      45.586   4.080   8.423  0.00  0.00    +0.000 A 
ENDBRANCH  11  12
ENDBRANCH   8  11
ENDBRANCH   5   8
ENDBRANCH   1   2
BRANCH   1  18
ATOM     18  N   UNL     1      48.669   7.404  14.427  0.00  0.00    +0.000 N 
ATOM     19  C   UNL     1      48.718   8.813  14.418  0.00  0.00    +0.000 C 
ATOM     20  O   UNL     1      48.774   9.455  15.466  0.00  0.00    +0.000 OA
BRANCH  19  21
ATOM     21  C   UNL     1      48.669   9.539  13.136  0.00  0.00    +0.000 A 
ATOM     22  C   UNL     1      47.558  10.197  12.631  0.00  0.00    +0.000 A 
ATOM     23  S   UNL     1      47.843  10.990  11.146  0.00  0.00    +0.000 S 
ATOM     24  C   UNL     1      49.500  10.618  11.210  0.00  0.00    +0.000 A 
ATOM     25  N   UNL     1      50.364  11.110  10.285  0.00  0.00    +0.000 NA
ATOM     26  C   UNL     1      51.599  10.801  10.503  0.00  0.00    +0.000 A 
ATOM     27  N   UNL     1      52.041  10.012  11.536  0.00  0.00    +0.000 N 
ATOM     28  C   UNL     1      51.185   9.375  12.409  0.00  0.00    +0.000 A 
ATOM     29  O   UNL     1      51.585   8.489  13.158  0.00  0.00    +0.000 OA
ATOM     30  C   UNL     1      49.804   9.804  12.286  0.00  0.00    +0.000 A 
ATOM     31  H   UNL     1      53.013   9.751  11.605  0.00  0.00    +0.000 HD
ENDBRANCH  19  21
BRANCH  18  33
ATOM     32  C   UNL     1      49.947   6.312  16.251  0.00  0.00    +0.000 C 
ATOM     33  C   UNL     1      48.583   6.748  15.735  0.00  0.00    +0.000 C 
ENDBRANCH  18  33
ENDBRANCH   1  18
TORSDOF 8
ENDMDL
