MODEL 1
REMARK VINA RESULT:    -7.504      0.000      0.000
REMARK INTER + INTRA:         -10.625
REMARK INTER:                  -9.917
REMARK INTRA:                  -0.707
REMARK UNBOUND:                -0.707
REMARK  Name = 
REMARK  6 active torsions:
REMARK  status: ('A' for Active; 'I' for Inactive)
REMARK    1  A    between atoms: C_2  and  C_18
REMARK    2  A    between atoms: N_3  and  C_4
REMARK    3  A    between atoms: C_4  and  C_5
REMARK    4  A    between atoms: C_8  and  C_9
REMARK    5  A    between atoms: C_9  and  N_10
REMARK    6  A    between atoms: C_13  and  O_14
REMARK                            x       y       z     vdW  Elec       q    Type
REMARK                         _______ _______ _______ _____ _____    ______ ____
ROOT
ATOM      1  O   UNL     1      46.464   4.047  14.233  0.00  0.00    +0.000 OA
ATOM      2  C   UNL     1      46.569   5.266  14.112  0.00  0.00    +0.000 C 
ATOM      3  N   UNL     1      45.540   6.037  13.639  0.00  0.00    +0.000 N 
ATOM      4  H   UNL     1      45.724   6.995  13.356  0.00  0.00    +0.000 HD
ENDROOT
BRANCH   2   5
ATOM      5  C   UNL     1      47.790   5.978  14.508  0.00  0.00    +0.000 A 
ATOM      6  C   UNL     1      48.285   5.851  15.799  0.00  0.00    +0.000 A 
ATOM      7  S   UNL     1      49.698   6.765  16.083  0.00  0.00    +0.000 S 
ATOM      8  C   UNL     1      49.727   7.324  14.475  0.00  0.00    +0.000 A 
ATOM      9  N   UNL     1      50.721   8.140  14.033  0.00  0.00    +0.000 NA
ATOM     10  C   UNL     1      50.644   8.448  12.781  0.00  0.00    +0.000 A 
ATOM     11  N   UNL     1      49.653   8.023  11.934  0.00  0.00    +0.000 N 
ATOM     12  C   UNL     1      48.589   7.267  12.355  0.00  0.00    +0.000 A 
ATOM     13  O   UNL     1      47.652   7.014  11.605  0.00  0.00    +0.000 OA
ATOM     14  C   UNL     1      48.656   6.846  13.743  0.00  0.00    +0.000 A 
ATOM     15  H   UNL     1      49.631   8.322  10.970  0.00  0.00    +0.000 HD
ENDBRANCH   2   5
BRANCH   3  16
ATOM     16  C   UNL     1      44.301   5.475  13.149  0.00  0.00    +0.000 C 
BRANCH  16  17
ATOM     17  C   UNL     1      44.497   4.652  11.903  0.00  0.00    +0.000 A 
ATOM     18  C   UNL     1      45.111   5.203  10.786  0.00  0.00    +0.000 A 
ATOM     19  N   UNL     1      45.318   4.509   9.641  0.00  0.00    +0.000 NA
ATOM     20  C   UNL     1      44.862   3.227   9.629  0.00  0.00    +0.000 A 
ATOM     21  C   UNL     1      44.224   2.683  10.738  0.00  0.00    +0.000 A 
ATOM     22  N   UNL     1      44.038   3.370  11.893  0.00  0.00    +0.000 NA
BRANCH  20  23
ATOM     23  C   UNL     1      45.069   2.417   8.368  0.00  0.00    +0.000 C 
BRANCH  23  24
ATOM     24  N   UNL     1      46.344   2.673   7.663  0.00  0.00    +0.000 NA
ATOM     25  C   UNL     1      46.111   3.424   6.416  0.00  0.00    +0.000 C 
ATOM     26  C   UNL     1      46.950   2.767   5.323  0.00  0.00    +0.000 C 
ATOM     27  C   UNL     1      47.840   1.782   6.057  0.00  0.00    +0.000 C 
ATOM     28  C   UNL     1      47.017   1.411   7.286  0.00  0.00    +0.000 C 
BRANCH  27  29
ATOM     29  O   UNL     1      49.058   2.422   6.428  0.00  0.00    +0.000 OA
ATOM     30  H   UNL     1      48.949   2.692   7.358  0.00  0.00    +0.000 HD
ENDBRANCH  27  29
ENDBRANCH  23  24
ENDBRANCH  20  23
ENDBRANCH  16  17
ENDBRANCH   3  16
TORSDOF 6
ENDMDL
MODEL 2
REMARK VINA RESULT:    -7.387      1.842      3.006
REMARK INTER + INTRA:         -10.469
REMARK INTER:                  -9.691
REMARK INTRA:                  -0.778
REMARK UNBOUND:                -0.707
REMARK  Name = 
REMARK  6 active torsions:
REMARK  status: ('A' for Active; 'I' for Inactive)
REMARK    1  A    between atoms: C_2  and  C_18
REMARK    2  A    between atoms: N_3  and  C_4
REMARK    3  A    between atoms: C_4  and  C_5
REMARK    4  A    between atoms: C_8  and  C_9
REMARK    5  A    between atoms: C_9  and  N_10
REMARK    6  A    between atoms: C_13  and  O_14
REMARK                            x       y       z     vdW  Elec       q    Type
REMARK                         _______ _______ _______ _____ _____    ______ ____
ROOT
ATOM      1  O   UNL     1      48.256   7.258  12.692  0.00  0.00    +0.000 OA
ATOM      2  C   UNL     1      47.621   6.906  13.684  0.00  0.00    +0.000 C 
ATOM      3  N   UNL     1      46.253   6.833  13.679  0.00  0.00    +0.000 N 
ATOM      4  H   UNL     1      45.754   6.745  14.560  0.00  0.00    +0.000 HD
ENDROOT
BRANCH   2   5
ATOM      5  C   UNL     1      48.292   6.502  14.926  0.00  0.00    +0.000 A 
ATOM      6  C   UNL     1      49.287   7.301  15.474  0.00  0.00    +0.000 A 
ATOM      7  S   UNL     1      49.966   6.663  16.903  0.00  0.00    +0.000 S 
ATOM      8  C   UNL     1      48.920   5.321  16.869  0.00  0.00    +0.000 A 
ATOM      9  N   UNL     1      48.954   4.378  17.849  0.00  0.00    +0.000 NA
ATOM     10  C   UNL     1      48.074   3.441  17.721  0.00  0.00    +0.000 A 
ATOM     11  N   UNL     1      47.171   3.356  16.693  0.00  0.00    +0.000 N 
ATOM     12  C   UNL     1      47.155   4.238  15.643  0.00  0.00    +0.000 A 
ATOM     13  O   UNL     1      46.424   4.059  14.674  0.00  0.00    +0.000 OA
ATOM     14  C   UNL     1      48.088   5.343  15.765  0.00  0.00    +0.000 A 
ATOM     15  H   UNL     1      46.525   2.582  16.633  0.00  0.00    +0.000 HD
ENDBRANCH   2   5
BRANCH   3  16
ATOM     16  C   UNL     1      45.449   7.260  12.555  0.00  0.00    +0.000 C 
BRANCH  16  17
ATOM     17  C   UNL     1      45.330   6.194  11.497  0.00  0.00    +0.000 A 
ATOM     18  C   UNL     1      46.005   6.324  10.290  0.00  0.00    +0.000 A 
ATOM     19  N   UNL     1      45.939   5.396   9.306  0.00  0.00    +0.000 NA
ATOM     20  C   UNL     1      45.142   4.320   9.552  0.00  0.00    +0.000 A 
ATOM     21  C   UNL     1      44.446   4.203  10.749  0.00  0.00    +0.000 A 
ATOM     22  N   UNL     1      44.530   5.121  11.744  0.00  0.00    +0.000 NA
BRANCH  20  23
ATOM     23  C   UNL     1      45.036   3.262   8.476  0.00  0.00    +0.000 C 
BRANCH  23  24
ATOM     24  N   UNL     1      46.290   2.990   7.741  0.00  0.00    +0.000 NA
ATOM     25  C   UNL     1      46.217   3.517   6.366  0.00  0.00    +0.000 C 
ATOM     26  C   UNL     1      46.770   2.443   5.434  0.00  0.00    +0.000 C 
ATOM     27  C   UNL     1      47.377   1.404   6.356  0.00  0.00    +0.000 C 
ATOM     28  C   UNL     1      46.550   1.538   7.631  0.00  0.00    +0.000 C 
BRANCH  27  29
ATOM     29  O   UNL     1      48.746   1.718   6.596  0.00  0.00    +0.000 OA
ATOM     30  H   UNL     1      49.206   1.591   5.746  0.00  0.00    +0.000 HD
ENDBRANCH  27  29
ENDBRANCH  23  24
ENDBRANCH  20  23
ENDBRANCH  16  17
ENDBRANCH   3  16
TORSDOF 6
ENDMDL
MODEL 3
REMARK VINA RESULT:    -7.114      4.620      6.993
REMARK INTER + INTRA:         -10.109
REMARK INTER:                  -9.206
REMARK INTRA:                  -0.904
REMARK UNBOUND:                -0.707
REMARK  Name = 
REMARK  6 active torsions:
REMARK  status: ('A' for Active; 'I' for Inactive)
REMARK    1  A    between atoms: C_2  and  C_18
REMARK    2  A    between atoms: N_3  and  C_4
REMARK    3  A    between atoms: C_4  and  C_5
REMARK    4  A    between atoms: C_8  and  C_9
REMARK    5  A    between atoms: C_9  and  N_10
REMARK    6  A    between atoms: C_13  and  O_14
REMARK                            x       y       z     vdW  Elec       q    Type
REMARK                         _______ _______ _______ _____ _____    ______ ____
ROOT
ATOM      1  O   UNL     1      51.806   6.190  16.618  0.00  0.00    +0.000 OA
ATOM      2  C   UNL     1      51.470   5.285  17.380  0.00  0.00    +0.000 C 
ATOM      3  N   UNL     1      50.173   5.134  17.795  0.00  0.00    +0.000 N 
ATOM      4  H   UNL     1      49.968   4.517  18.575  0.00  0.00    +0.000 HD
ENDROOT
BRANCH   2   5
ATOM      5  C   UNL     1      52.431   4.284  17.860  0.00  0.00    +0.000 A 
ATOM      6  C   UNL     1      53.627   4.687  18.439  0.00  0.00    +0.000 A 
ATOM      7  S   UNL     1      54.626   3.389  18.917  0.00  0.00    +0.000 S 
ATOM      8  C   UNL     1      53.474   2.242  18.413  0.00  0.00    +0.000 A 
ATOM      9  N   UNL     1      53.692   0.909  18.572  0.00  0.00    +0.000 NA
ATOM     10  C   UNL     1      52.714   0.157  18.189  0.00  0.00    +0.000 A 
ATOM     11  N   UNL     1      51.542   0.618  17.648  0.00  0.00    +0.000 N 
ATOM     12  C   UNL     1      51.313   1.947  17.395  0.00  0.00    +0.000 A 
ATOM     13  O   UNL     1      50.311   2.314  16.789  0.00  0.00    +0.000 OA
ATOM     14  C   UNL     1      52.357   2.841  17.858  0.00  0.00    +0.000 A 
ATOM     15  H   UNL     1      50.825  -0.022  17.340  0.00  0.00    +0.000 HD
ENDBRANCH   2   5
BRANCH   3  16
ATOM     16  C   UNL     1      49.128   6.076  17.460  0.00  0.00    +0.000 C 
BRANCH  16  17
ATOM     17  C   UNL     1      48.301   5.622  16.286  0.00  0.00    +0.000 A 
ATOM     18  C   UNL     1      47.479   4.508  16.394  0.00  0.00    +0.000 A 
ATOM     19  N   UNL     1      46.710   4.058  15.374  0.00  0.00    +0.000 NA
ATOM     20  C   UNL     1      46.804   4.749  14.205  0.00  0.00    +0.000 A 
ATOM     21  C   UNL     1      47.647   5.848  14.089  0.00  0.00    +0.000 A 
ATOM     22  N   UNL     1      48.399   6.313  15.117  0.00  0.00    +0.000 NA
BRANCH  20  23
ATOM     23  C   UNL     1      45.966   4.277  13.038  0.00  0.00    +0.000 C 
BRANCH  23  24
ATOM     24  N   UNL     1      44.892   5.206  12.624  0.00  0.00    +0.000 NA
ATOM     25  C   UNL     1      43.571   4.699  13.039  0.00  0.00    +0.000 C 
ATOM     26  C   UNL     1      42.622   4.873  11.857  0.00  0.00    +0.000 C 
ATOM     27  C   UNL     1      43.394   5.716  10.860  0.00  0.00    +0.000 C 
ATOM     28  C   UNL     1      44.849   5.364  11.153  0.00  0.00    +0.000 C 
BRANCH  27  29
ATOM     29  O   UNL     1      43.140   7.097  11.102  0.00  0.00    +0.000 OA
ATOM     30  H   UNL     1      42.368   7.129  11.697  0.00  0.00    +0.000 HD
ENDBRANCH  27  29
ENDBRANCH  23  24
ENDBRANCH  20  23
ENDBRANCH  16  17
ENDBRANCH   3  16
TORSDOF 6
ENDMDL
MODEL 4
REMARK VINA RESULT:    -7.111      5.056      9.022
REMARK INTER + INTRA:         -10.104
REMARK INTER:                  -9.546
REMARK INTRA:                  -0.559
REMARK UNBOUND:                -0.707
REMARK  Name = 
REMARK  6 active torsions:
REMARK  status: ('A' for Active; 'I' for Inactive)
REMARK    1  A    between atoms: C_2  and  C_18
REMARK    2  A    between atoms: N_3  and  C_4
REMARK    3  A    between atoms: C_4  and  C_5
REMARK    4  A    between atoms: C_8  and  C_9
REMARK    5  A    between atoms: C_9  and  N_10
REMARK    6  A    between atoms: C_13  and  O_14
REMARK                            x       y       z     vdW  Elec       q    Type
REMARK                         _______ _______ _______ _____ _____    ______ ____
ROOT
ATOM      1  O   UNL     1      47.308   3.095  14.079  0.00  0.00    +0.000 OA
ATOM      2  C   UNL     1      46.868   4.151  14.530  0.00  0.00    +0.000 C 
ATOM      3  N   UNL     1      46.803   4.390  15.877  0.00  0.00    +0.000 N 
ATOM      4  H   UNL     1      46.249   5.170  16.219  0.00  0.00    +0.000 HD
ENDROOT
BRANCH   2   5
ATOM      5  C   UNL     1      46.423   5.239  13.650  0.00  0.00    +0.000 A 
ATOM      6  C   UNL     1      47.261   6.315  13.392  0.00  0.00    +0.000 A 
ATOM      7  S   UNL     1      46.569   7.491  12.368  0.00  0.00    +0.000 S 
ATOM      8  C   UNL     1      45.142   6.579  12.192  0.00  0.00    +0.000 A 
ATOM      9  N   UNL     1      44.126   7.011  11.398  0.00  0.00    +0.000 NA
ATOM     10  C   UNL     1      43.125   6.198  11.320  0.00  0.00    +0.000 A 
ATOM     11  N   UNL     1      43.044   4.997  11.976  0.00  0.00    +0.000 N 
ATOM     12  C   UNL     1      44.008   4.561  12.848  0.00  0.00    +0.000 A 
ATOM     13  O   UNL     1      43.846   3.547  13.520  0.00  0.00    +0.000 OA
ATOM     14  C   UNL     1      45.182   5.411  12.930  0.00  0.00    +0.000 A 
ATOM     15  H   UNL     1      42.222   4.417  11.898  0.00  0.00    +0.000 HD
ENDBRANCH   2   5
BRANCH   3  16
ATOM     16  C   UNL     1      47.142   3.393  16.868  0.00  0.00    +0.000 C 
BRANCH  16  17
ATOM     17  C   UNL     1      48.625   3.320  17.124  0.00  0.00    +0.000 A 
ATOM     18  C   UNL     1      49.298   4.407  17.667  0.00  0.00    +0.000 A 
ATOM     19  N   UNL     1      50.628   4.396  17.923  0.00  0.00    +0.000 NA
ATOM     20  C   UNL     1      51.291   3.255  17.591  0.00  0.00    +0.000 A 
ATOM     21  C   UNL     1      50.622   2.177  17.023  0.00  0.00    +0.000 A 
ATOM     22  N   UNL     1      49.286   2.178  16.789  0.00  0.00    +0.000 NA
BRANCH  20  23
ATOM     23  C   UNL     1      52.780   3.203  17.856  0.00  0.00    +0.000 C 
BRANCH  23  24
ATOM     24  N   UNL     1      53.235   2.029  18.632  0.00  0.00    +0.000 NA
ATOM     25  C   UNL     1      54.247   2.421  19.629  0.00  0.00    +0.000 C 
ATOM     26  C   UNL     1      55.374   1.394  19.567  0.00  0.00    +0.000 C 
ATOM     27  C   UNL     1      54.841   0.286  18.678  0.00  0.00    +0.000 C 
ATOM     28  C   UNL     1      53.864   1.013  17.759  0.00  0.00    +0.000 C 
BRANCH  27  29
ATOM     29  O   UNL     1      54.171  -0.687  19.474  0.00  0.00    +0.000 OA
ATOM     30  H   UNL     1      54.706  -1.500  19.413  0.00  0.00    +0.000 HD
ENDBRANCH  27  29
ENDBRANCH  23  24
ENDBRANCH  20  23
ENDBRANCH  16  17
ENDBRANCH   3  16
TORSDOF 6
ENDMDL
MODEL 5
REMARK VINA RESULT:    -6.924      2.247      3.021
REMARK INTER + INTRA:          -9.857
REMARK INTER:                  -9.340
REMARK INTRA:                  -0.517
REMARK UNBOUND:                -0.707
REMARK  Name = 
REMARK  6 active torsions:
REMARK  status: ('A' for Active; 'I' for Inactive)
REMARK    1  A    between atoms: C_2  and  C_18
REMARK    2  A    between atoms: N_3  and  C_4
REMARK    3  A    between atoms: C_4  and  C_5
REMARK    4  A    between atoms: C_8  and  C_9
REMARK    5  A    between atoms: C_9  and  N_10
REMARK    6  A    between atoms: C_13  and  O_14
REMARK                            x       y       z     vdW  Elec       q    Type
REMARK                         _______ _______ _______ _____ _____    ______ ____
ROOT
ATOM      1  O   UNL     1      47.928   5.791  13.440  0.00  0.00    +0.000 OA
ATOM      2  C   UNL     1      47.198   5.365  14.333  0.00  0.00    +0.000 C 
ATOM      3  N   UNL     1      45.833   5.387  14.223  0.00  0.00    +0.000 N 
ATOM      4  H   UNL     1      45.263   5.227  15.048  0.00  0.00    +0.000 HD
ENDROOT
BRANCH   2   5
ATOM      5  C   UNL     1      47.746   4.768  15.557  0.00  0.00    +0.000 A 
ATOM      6  C   UNL     1      47.541   3.422  15.829  0.00  0.00    +0.000 A 
ATOM      7  S   UNL     1      48.230   2.909  17.303  0.00  0.00    +0.000 S 
ATOM      8  C   UNL     1      48.871   4.457  17.607  0.00  0.00    +0.000 A 
ATOM      9  N   UNL     1      49.619   4.703  18.716  0.00  0.00    +0.000 NA
ATOM     10  C   UNL     1      50.079   5.907  18.795  0.00  0.00    +0.000 A 
ATOM     11  N   UNL     1      49.847   6.892  17.870  0.00  0.00    +0.000 N 
ATOM     12  C   UNL     1      49.034   6.711  16.781  0.00  0.00    +0.000 A 
ATOM     13  O   UNL     1      48.740   7.648  16.045  0.00  0.00    +0.000 OA
ATOM     14  C   UNL     1      48.535   5.358  16.614  0.00  0.00    +0.000 A 
ATOM     15  H   UNL     1      50.211   7.824  18.002  0.00  0.00    +0.000 HD
ENDBRANCH   2   5
BRANCH   3  16
ATOM     16  C   UNL     1      45.146   6.001  13.108  0.00  0.00    +0.000 C 
BRANCH  16  17
ATOM     17  C   UNL     1      45.160   5.133  11.877  0.00  0.00    +0.000 A 
ATOM     18  C   UNL     1      44.903   3.772  11.974  0.00  0.00    +0.000 A 
ATOM     19  N   UNL     1      44.897   2.945  10.901  0.00  0.00    +0.000 NA
ATOM     20  C   UNL     1      45.187   3.520   9.702  0.00  0.00    +0.000 A 
ATOM     21  C   UNL     1      45.470   4.877   9.609  0.00  0.00    +0.000 A 
ATOM     22  N   UNL     1      45.453   5.710  10.679  0.00  0.00    +0.000 NA
BRANCH  20  23
ATOM     23  C   UNL     1      45.196   2.631   8.478  0.00  0.00    +0.000 C 
BRANCH  23  24
ATOM     24  N   UNL     1      46.439   2.684   7.677  0.00  0.00    +0.000 NA
ATOM     25  C   UNL     1      46.229   3.453   6.437  0.00  0.00    +0.000 C 
ATOM     26  C   UNL     1      46.874   2.668   5.298  0.00  0.00    +0.000 C 
ATOM     27  C   UNL     1      47.658   1.565   5.982  0.00  0.00    +0.000 C 
ATOM     28  C   UNL     1      46.883   1.332   7.275  0.00  0.00    +0.000 C 
BRANCH  27  29
ATOM     29  O   UNL     1      48.983   2.014   6.250  0.00  0.00    +0.000 OA
ATOM     30  H   UNL     1      49.578   1.340   5.873  0.00  0.00    +0.000 HD
ENDBRANCH  27  29
ENDBRANCH  23  24
ENDBRANCH  20  23
ENDBRANCH  16  17
ENDBRANCH   3  16
TORSDOF 6
ENDMDL
MODEL 6
REMARK VINA RESULT:    -6.858      1.504      2.202
REMARK INTER + INTRA:          -9.770
REMARK INTER:                  -9.394
REMARK INTRA:                  -0.376
REMARK UNBOUND:                -0.707
REMARK  Name = 
REMARK  6 active torsions:
REMARK  status: ('A' for Active; 'I' for Inactive)
REMARK    1  A    between atoms: C_2  and  C_18
REMARK    2  A    between atoms: N_3  and  C_4
REMARK    3  A    between atoms: C_4  and  C_5
REMARK    4  A    between atoms: C_8  and  C_9
REMARK    5  A    between atoms: C_9  and  N_10
REMARK    6  A    between atoms: C_13  and  O_14
REMARK                            x       y       z     vdW  Elec       q    Type
REMARK                         _______ _______ _______ _____ _____    ______ ____
ROOT
ATOM      1  O   UNL     1      47.483   4.858  13.946  0.00  0.00    +0.000 OA
ATOM      2  C   UNL     1      47.441   6.062  13.700  0.00  0.00    +0.000 C 
ATOM      3  N   UNL     1      46.267   6.696  13.391  0.00  0.00    +0.000 N 
ATOM      4  H   UNL     1      46.295   7.631  12.994  0.00  0.00    +0.000 HD
ENDROOT
BRANCH   2   5
ATOM      5  C   UNL     1      48.642   6.904  13.764  0.00  0.00    +0.000 A 
ATOM      6  C   UNL     1      49.097   7.557  12.626  0.00  0.00    +0.000 A 
ATOM      7  S   UNL     1      50.514   8.471  12.884  0.00  0.00    +0.000 S 
ATOM      8  C   UNL     1      50.542   8.068  14.537  0.00  0.00    +0.000 A 
ATOM      9  N   UNL     1      51.503   8.561  15.365  0.00  0.00    +0.000 NA
ATOM     10  C   UNL     1      51.374   8.210  16.602  0.00  0.00    +0.000 A 
ATOM     11  N   UNL     1      50.378   7.399  17.083  0.00  0.00    +0.000 N 
ATOM     12  C   UNL     1      49.439   6.816  16.272  0.00  0.00    +0.000 A 
ATOM     13  O   UNL     1      48.644   5.992  16.711  0.00  0.00    +0.000 OA
ATOM     14  C   UNL     1      49.504   7.221  14.880  0.00  0.00    +0.000 A 
ATOM     15  H   UNL     1      50.348   7.137  18.057  0.00  0.00    +0.000 HD
ENDBRANCH   2   5
BRANCH   3  16
ATOM     16  C   UNL     1      45.015   5.992  13.227  0.00  0.00    +0.000 C 
BRANCH  16  17
ATOM     17  C   UNL     1      45.033   5.057  12.046  0.00  0.00    +0.000 A 
ATOM     18  C   UNL     1      45.242   5.549  10.763  0.00  0.00    +0.000 A 
ATOM     19  N   UNL     1      45.274   4.755   9.666  0.00  0.00    +0.000 NA
ATOM     20  C   UNL     1      45.060   3.429   9.882  0.00  0.00    +0.000 A 
ATOM     21  C   UNL     1      44.825   2.940  11.162  0.00  0.00    +0.000 A 
ATOM     22  N   UNL     1      44.816   3.731  12.264  0.00  0.00    +0.000 NA
BRANCH  20  23
ATOM     23  C   UNL     1      45.082   2.507   8.683  0.00  0.00    +0.000 C 
BRANCH  23  24
ATOM     24  N   UNL     1      46.320   2.561   7.876  0.00  0.00    +0.000 NA
ATOM     25  C   UNL     1      46.137   3.421   6.692  0.00  0.00    +0.000 C 
ATOM     26  C   UNL     1      46.739   2.688   5.497  0.00  0.00    +0.000 C 
ATOM     27  C   UNL     1      47.479   1.508   6.097  0.00  0.00    +0.000 C 
ATOM     28  C   UNL     1      46.703   1.221   7.379  0.00  0.00    +0.000 C 
BRANCH  27  29
ATOM     29  O   UNL     1      48.824   1.880   6.383  0.00  0.00    +0.000 OA
ATOM     30  H   UNL     1      49.356   1.577   5.624  0.00  0.00    +0.000 HD
ENDBRANCH  27  29
ENDBRANCH  23  24
ENDBRANCH  20  23
ENDBRANCH  16  17
ENDBRANCH   3  16
TORSDOF 6
ENDMDL
MODEL 7
REMARK VINA RESULT:    -6.764      3.498      8.958
REMARK INTER + INTRA:          -9.646
REMARK INTER:                  -8.876
REMARK INTRA:                  -0.769
REMARK UNBOUND:                -0.707
REMARK  Name = 
REMARK  6 active torsions:
REMARK  status: ('A' for Active; 'I' for Inactive)
REMARK    1  A    between atoms: C_2  and  C_18
REMARK    2  A    between atoms: N_3  and  C_4
REMARK    3  A    between atoms: C_4  and  C_5
REMARK    4  A    between atoms: C_8  and  C_9
REMARK    5  A    between atoms: C_9  and  N_10
REMARK    6  A    between atoms: C_13  and  O_14
REMARK                            x       y       z     vdW  Elec       q    Type
REMARK                         _______ _______ _______ _____ _____    ______ ____
ROOT
ATOM      1  O   UNL     1      45.533   7.961  11.667  0.00  0.00    +0.000 OA
ATOM      2  C   UNL     1      46.196   6.947  11.459  0.00  0.00    +0.000 C 
ATOM      3  N   UNL     1      47.504   6.845  11.852  0.00  0.00    +0.000 N 
ATOM      4  H   UNL     1      48.078   6.091  11.486  0.00  0.00    +0.000 HD
ENDROOT
BRANCH   2   5
ATOM      5  C   UNL     1      45.613   5.764  10.813  0.00  0.00    +0.000 A 
ATOM      6  C   UNL     1      45.847   5.518   9.467  0.00  0.00    +0.000 A 
ATOM      7  S   UNL     1      45.075   4.112   8.884  0.00  0.00    +0.000 S 
ATOM      8  C   UNL     1      44.441   3.754  10.423  0.00  0.00    +0.000 A 
ATOM      9  N   UNL     1      43.694   2.637  10.633  0.00  0.00    +0.000 NA
ATOM     10  C   UNL     1      43.318   2.467  11.857  0.00  0.00    +0.000 A 
ATOM     11  N   UNL     1      43.613   3.321  12.889  0.00  0.00    +0.000 N 
ATOM     12  C   UNL     1      44.294   4.498  12.707  0.00  0.00    +0.000 A 
ATOM     13  O   UNL     1      44.426   5.303  13.623  0.00  0.00    +0.000 OA
ATOM     14  C   UNL     1      44.787   4.712  11.359  0.00  0.00    +0.000 A 
ATOM     15  H   UNL     1      43.266   3.149  13.821  0.00  0.00    +0.000 HD
ENDBRANCH   2   5
BRANCH   3  16
ATOM     16  C   UNL     1      48.234   7.947  12.440  0.00  0.00    +0.000 C 
BRANCH  16  17
ATOM     17  C   UNL     1      48.478   7.752  13.913  0.00  0.00    +0.000 A 
ATOM     18  C   UNL     1      48.535   8.846  14.767  0.00  0.00    +0.000 A 
ATOM     19  N   UNL     1      48.747   8.730  16.099  0.00  0.00    +0.000 NA
ATOM     20  C   UNL     1      48.930   7.465  16.568  0.00  0.00    +0.000 A 
ATOM     21  C   UNL     1      48.900   6.373  15.709  0.00  0.00    +0.000 A 
ATOM     22  N   UNL     1      48.665   6.486  14.378  0.00  0.00    +0.000 NA
BRANCH  20  23
ATOM     23  C   UNL     1      49.175   7.291  18.050  0.00  0.00    +0.000 C 
BRANCH  23  24
ATOM     24  N   UNL     1      48.631   6.045  18.631  0.00  0.00    +0.000 NA
ATOM     25  C   UNL     1      47.491   6.335  19.519  0.00  0.00    +0.000 C 
ATOM     26  C   UNL     1      47.675   5.505  20.786  0.00  0.00    +0.000 C 
ATOM     27  C   UNL     1      48.820   4.563  20.470  0.00  0.00    +0.000 C 
ATOM     28  C   UNL     1      49.643   5.340  19.448  0.00  0.00    +0.000 C 
BRANCH  27  29
ATOM     29  O   UNL     1      48.308   3.357  19.908  0.00  0.00    +0.000 OA
ATOM     30  H   UNL     1      47.341   3.393  20.029  0.00  0.00    +0.000 HD
ENDBRANCH  27  29
ENDBRANCH  23  24
ENDBRANCH  20  23
ENDBRANCH  16  17
ENDBRANCH   3  16
TORSDOF 6
ENDMDL
MODEL 8
REMARK VINA RESULT:    -6.745      3.968      8.426
REMARK INTER + INTRA:          -9.621
REMARK INTER:                  -8.813
REMARK INTRA:                  -0.808
REMARK UNBOUND:                -0.707
REMARK  Name = 
REMARK  6 active torsions:
REMARK  status: ('A' for Active; 'I' for Inactive)
REMARK    1  A    between atoms: C_2  and  C_18
REMARK    2  A    between atoms: N_3  and  C_4
REMARK    3  A    between atoms: C_4  and  C_5
REMARK    4  A    between atoms: C_8  and  C_9
REMARK    5  A    between atoms: C_9  and  N_10
REMARK    6  A    between atoms: C_13  and  O_14
REMARK                            x       y       z     vdW  Elec       q    Type
REMARK                         _______ _______ _______ _____ _____    ______ ____
ROOT
ATOM      1  O   UNL     1      47.950   7.021  11.882  0.00  0.00    +0.000 OA
ATOM      2  C   UNL     1      47.013   6.904  12.669  0.00  0.00    +0.000 C 
ATOM      3  N   UNL     1      47.127   7.258  13.987  0.00  0.00    +0.000 N 
ATOM      4  H   UNL     1      46.416   6.959  14.648  0.00  0.00    +0.000 HD
ENDROOT
BRANCH   2   5
ATOM      5  C   UNL     1      45.698   6.416  12.235  0.00  0.00    +0.000 A 
ATOM      6  C   UNL     1      44.790   7.286  11.647  0.00  0.00    +0.000 A 
ATOM      7  S   UNL     1      43.309   6.549  11.227  0.00  0.00    +0.000 S 
ATOM      8  C   UNL     1      43.848   5.028  11.771  0.00  0.00    +0.000 A 
ATOM      9  N   UNL     1      43.059   3.925  11.667  0.00  0.00    +0.000 NA
ATOM     10  C   UNL     1      43.612   2.831  12.074  0.00  0.00    +0.000 A 
ATOM     11  N   UNL     1      44.880   2.744  12.590  0.00  0.00    +0.000 N 
ATOM     12  C   UNL     1      45.678   3.842  12.788  0.00  0.00    +0.000 A 
ATOM     13  O   UNL     1      46.753   3.749  13.372  0.00  0.00    +0.000 OA
ATOM     14  C   UNL     1      45.126   5.090  12.295  0.00  0.00    +0.000 A 
ATOM     15  H   UNL     1      45.247   1.864  12.919  0.00  0.00    +0.000 HD
ENDBRANCH   2   5
BRANCH   3  16
ATOM     16  C   UNL     1      48.374   7.693  14.577  0.00  0.00    +0.000 C 
BRANCH  16  17
ATOM     17  C   UNL     1      48.946   6.673  15.527  0.00  0.00    +0.000 A 
ATOM     18  C   UNL     1      50.229   6.829  16.037  0.00  0.00    +0.000 A 
ATOM     19  N   UNL     1      50.791   5.948  16.898  0.00  0.00    +0.000 NA
ATOM     20  C   UNL     1      50.032   4.867  17.226  0.00  0.00    +0.000 A 
ATOM     21  C   UNL     1      48.759   4.697  16.696  0.00  0.00    +0.000 A 
ATOM     22  N   UNL     1      48.186   5.592  15.852  0.00  0.00    +0.000 NA
BRANCH  20  23
ATOM     23  C   UNL     1      50.625   3.854  18.182  0.00  0.00    +0.000 C 
BRANCH  23  24
ATOM     24  N   UNL     1      51.734   3.047  17.628  0.00  0.00    +0.000 NA
ATOM     25  C   UNL     1      51.286   1.674  17.334  0.00  0.00    +0.000 C 
ATOM     26  C   UNL     1      52.359   0.721  17.853  0.00  0.00    +0.000 C 
ATOM     27  C   UNL     1      53.526   1.616  18.223  0.00  0.00    +0.000 C 
ATOM     28  C   UNL     1      52.856   2.937  18.586  0.00  0.00    +0.000 C 
BRANCH  27  29
ATOM     29  O   UNL     1      54.388   1.769  17.098  0.00  0.00    +0.000 OA
ATOM     30  H   UNL     1      54.874   0.927  17.014  0.00  0.00    +0.000 HD
ENDBRANCH  27  29
ENDBRANCH  23  24
ENDBRANCH  20  23
ENDBRANCH  16  17
ENDBRANCH   3  16
TORSDOF 6
ENDMDL
MODEL 9
REMARK VINA RESULT:    -6.688      3.432      8.987
REMARK INTER + INTRA:          -9.545
REMARK INTER:                  -8.675
REMARK INTRA:                  -0.871
REMARK UNBOUND:                -0.707
REMARK  Name = 
REMARK  6 active torsions:
REMARK  status: ('A' for Active; 'I' for Inactive)
REMARK    1  A    between atoms: C_2  and  C_18
REMARK    2  A    between atoms: N_3  and  C_4
REMARK    3  A    between atoms: C_4  and  C_5
REMARK    4  A    between atoms: C_8  and  C_9
REMARK    5  A    between atoms: C_9  and  N_10
REMARK    6  A    between atoms: C_13  and  O_14
REMARK                            x       y       z     vdW  Elec       q    Type
REMARK                         _______ _______ _______ _____ _____    ______ ____
ROOT
ATOM      1  O   UNL     1      44.719   7.158  12.610  0.00  0.00    +0.000 OA
ATOM      2  C   UNL     1      45.423   6.233  12.212  0.00  0.00    +0.000 C 
ATOM      3  N   UNL     1      46.790   6.284  12.277  0.00  0.00    +0.000 N 
ATOM      4  H   UNL     1      47.340   5.607  11.757  0.00  0.00    +0.000 HD
ENDROOT
BRANCH   2   5
ATOM      5  C   UNL     1      44.840   4.994  11.679  0.00  0.00    +0.000 A 
ATOM      6  C   UNL     1      44.028   4.204  12.482  0.00  0.00    +0.000 A 
ATOM      7  S   UNL     1      43.459   2.797  11.702  0.00  0.00    +0.000 S 
ATOM      8  C   UNL     1      44.237   3.219  10.248  0.00  0.00    +0.000 A 
ATOM      9  N   UNL     1      44.125   2.439   9.139  0.00  0.00    +0.000 NA
ATOM     10  C   UNL     1      44.727   2.905   8.095  0.00  0.00    +0.000 A 
ATOM     11  N   UNL     1      45.442   4.074   8.065  0.00  0.00    +0.000 N 
ATOM     12  C   UNL     1      45.648   4.848   9.178  0.00  0.00    +0.000 A 
ATOM     13  O   UNL     1      46.402   5.816   9.148  0.00  0.00    +0.000 OA
ATOM     14  C   UNL     1      44.947   4.400  10.366  0.00  0.00    +0.000 A 
ATOM     15  H   UNL     1      45.916   4.371   7.224  0.00  0.00    +0.000 HD
ENDBRANCH   2   5
BRANCH   3  16
ATOM     16  C   UNL     1      47.510   7.459  12.715  0.00  0.00    +0.000 C 
BRANCH  16  17
ATOM     17  C   UNL     1      48.004   7.334  14.133  0.00  0.00    +0.000 A 
ATOM     18  C   UNL     1      48.120   8.460  14.938  0.00  0.00    +0.000 A 
ATOM     19  N   UNL     1      48.554   8.407  16.220  0.00  0.00    +0.000 NA
ATOM     20  C   UNL     1      48.902   7.175  16.682  0.00  0.00    +0.000 A 
ATOM     21  C   UNL     1      48.812   6.053  15.868  0.00  0.00    +0.000 A 
ATOM     22  N   UNL     1      48.356   6.102  14.591  0.00  0.00    +0.000 NA
BRANCH  20  23
ATOM     23  C   UNL     1      49.397   7.071  18.108  0.00  0.00    +0.000 C 
BRANCH  23  24
ATOM     24  N   UNL     1      48.777   5.993  18.907  0.00  0.00    +0.000 NA
ATOM     25  C   UNL     1      47.532   6.462  19.543  0.00  0.00    +0.000 C 
ATOM     26  C   UNL     1      47.545   5.978  20.990  0.00  0.00    +0.000 C 
ATOM     27  C   UNL     1      48.718   5.020  21.067  0.00  0.00    +0.000 C 
ATOM     28  C   UNL     1      49.671   5.542  19.996  0.00  0.00    +0.000 C 
BRANCH  27  29
ATOM     29  O   UNL     1      48.279   3.699  20.764  0.00  0.00    +0.000 OA
ATOM     30  H   UNL     1      48.909   3.097  21.204  0.00  0.00    +0.000 HD
ENDBRANCH  27  29
ENDBRANCH  23  24
ENDBRANCH  20  23
ENDBRANCH  16  17
ENDBRANCH   3  16
TORSDOF 6
ENDMDL
