MODEL 1
REMARK VINA RESULT:    -8.351      0.000      0.000
REMARK INTER + INTRA:         -13.480
REMARK INTER:                 -12.501
REMARK INTRA:                  -0.979
REMARK UNBOUND:                -0.979
REMARK  Name = 
REMARK  9 active torsions:
REMARK  status: ('A' for Active; 'I' for Inactive)
REMARK    1  A    between atoms: N_1  and  C_2
REMARK    2  A    between atoms: C_2  and  C_3
REMARK    3  A    between atoms: C_3  and  N_4
REMARK    4  A    between atoms: C_3  and  C_20
REMARK    5  A    between atoms: N_4  and  C_5
REMARK    6  A    between atoms: C_5  and  C_6
REMARK    7  A    between atoms: C_9  and  C_10
REMARK    8  A    between atoms: C_10  and  C_11
REMARK    9  A    between atoms: C_11  and  N_12
REMARK                            x       y       z     vdW  Elec       q    Type
REMARK                         _______ _______ _______ _____ _____    ______ ____
ROOT
ATOM      1  N   UNL     1      48.072   5.991  16.090  0.00  0.00    +0.000 NA
ATOM      2  H   UNL     1      48.636   6.634  16.644  0.00  0.00    +0.000 HD
ENDROOT
BRANCH   1   3
ATOM      3  C   UNL     1      48.214   4.650  16.687  0.00  0.00    +0.000 C 
BRANCH   3   4
ATOM      4  C   UNL     1      49.592   4.581  17.339  0.00  0.00    +0.000 A 
ATOM      5  C   UNL     1      50.211   5.618  18.025  0.00  0.00    +0.000 A 
ATOM      6  S   UNL     1      51.740   5.198  18.654  0.00  0.00    +0.000 S 
ATOM      7  C   UNL     1      51.610   3.608  18.068  0.00  0.00    +0.000 A 
ATOM      8  N   UNL     1      52.588   2.687  18.288  0.00  0.00    +0.000 NA
ATOM      9  C   UNL     1      52.334   1.514  17.806  0.00  0.00    +0.000 A 
ATOM     10  N   UNL     1      51.198   1.183  17.108  0.00  0.00    +0.000 N 
ATOM     11  C   UNL     1      50.183   2.077  16.856  0.00  0.00    +0.000 A 
ATOM     12  O   UNL     1      49.174   1.750  16.239  0.00  0.00    +0.000 OA
ATOM     13  C   UNL     1      50.424   3.405  17.387  0.00  0.00    +0.000 A 
ATOM     14  H   UNL     1      51.062   0.244  16.763  0.00  0.00    +0.000 HD
ENDBRANCH   3   4
BRANCH   3  15
ATOM     15  C   UNL     1      47.095   4.302  17.719  0.00  0.00    +0.000 C 
BRANCH  15  16
ATOM     16  N   UNL     1      46.700   2.886  17.714  0.00  0.00    +0.000 NA
ATOM     17  H   UNL     1      45.967   2.729  17.028  0.00  0.00    +0.000 HD
ATOM     18  H   UNL     1      46.325   2.658  18.637  0.00  0.00    +0.000 HD
ENDBRANCH  15  16
ENDBRANCH   3  15
ENDBRANCH   1   3
BRANCH   1  19
ATOM     19  C   UNL     1      48.536   6.060  14.705  0.00  0.00    +0.000 C 
BRANCH  19  20
ATOM     20  C   UNL     1      47.368   5.923  13.758  0.00  0.00    +0.000 A 
ATOM     21  C   UNL     1      47.102   6.927  12.820  0.00  0.00    +0.000 A 
ATOM     22  C   UNL     1      45.996   6.836  11.978  0.00  0.00    +0.000 A 
ATOM     23  C   UNL     1      45.144   5.721  12.018  0.00  0.00    +0.000 A 
ATOM     24  C   UNL     1      45.410   4.718  12.958  0.00  0.00    +0.000 A 
ATOM     25  C   UNL     1      46.510   4.818  13.819  0.00  0.00    +0.000 A 
BRANCH  23  26
ATOM     26  C   UNL     1      43.935   5.596  11.111  0.00  0.00    +0.000 C 
BRANCH  26  27
ATOM     27  C   UNL     1      43.896   4.275  10.344  0.00  0.00    +0.000 C 
BRANCH  27  28
ATOM     28  N   UNL     1      44.209   4.437   8.932  0.00  0.00    +0.000 N 
ATOM     29  C   UNL     1      45.144   3.654   8.346  0.00  0.00    +0.000 C 
ATOM     30  N   UNL     1      45.931   4.042   7.388  0.00  0.00    +0.000 NA
ATOM     31  C   UNL     1      46.735   2.828   7.071  0.00  0.00    +0.000 C 
ATOM     32  C   UNL     1      46.309   1.733   8.053  0.00  0.00    +0.000 C 
ATOM     33  N   UNL     1      45.281   2.391   8.822  0.00  0.00    +0.000 N 
ATOM     34  H   UNL     1      44.339   5.404   8.644  0.00  0.00    +0.000 HD
ATOM     35  H   UNL     1      44.400   1.897   8.895  0.00  0.00    +0.000 HD
ENDBRANCH  27  28
ENDBRANCH  26  27
ENDBRANCH  23  26
ENDBRANCH  19  20
ENDBRANCH   1  19
TORSDOF 9
ENDMDL
MODEL 2
REMARK VINA RESULT:    -7.470      1.784      2.371
REMARK INTER + INTRA:         -12.161
REMARK INTER:                 -11.123
REMARK INTRA:                  -1.038
REMARK UNBOUND:                -0.979
REMARK  Name = 
REMARK  9 active torsions:
REMARK  status: ('A' for Active; 'I' for Inactive)
REMARK    1  A    between atoms: N_1  and  C_2
REMARK    2  A    between atoms: C_2  and  C_3
REMARK    3  A    between atoms: C_3  and  N_4
REMARK    4  A    between atoms: C_3  and  C_20
REMARK    5  A    between atoms: N_4  and  C_5
REMARK    6  A    between atoms: C_5  and  C_6
REMARK    7  A    between atoms: C_9  and  C_10
REMARK    8  A    between atoms: C_10  and  C_11
REMARK    9  A    between atoms: C_11  and  N_12
REMARK                            x       y       z     vdW  Elec       q    Type
REMARK                         _______ _______ _______ _____ _____    ______ ____
ROOT
ATOM      1  N   UNL     1      47.506   5.341  15.963  0.00  0.00    +0.000 NA
ATOM      2  H   UNL     1      47.355   6.143  16.574  0.00  0.00    +0.000 HD
ENDROOT
BRANCH   1   3
ATOM      3  C   UNL     1      48.472   4.451  16.635  0.00  0.00    +0.000 C 
BRANCH   3   4
ATOM      4  C   UNL     1      48.625   4.939  18.073  0.00  0.00    +0.000 A 
ATOM      5  C   UNL     1      47.630   5.545  18.827  0.00  0.00    +0.000 A 
ATOM      6  S   UNL     1      48.127   5.946  20.410  0.00  0.00    +0.000 S 
ATOM      7  C   UNL     1      49.673   5.287  20.154  0.00  0.00    +0.000 A 
ATOM      8  N   UNL     1      50.612   5.275  21.139  0.00  0.00    +0.000 NA
ATOM      9  C   UNL     1      51.729   4.716  20.804  0.00  0.00    +0.000 A 
ATOM     10  N   UNL     1      51.998   4.182  19.567  0.00  0.00    +0.000 N 
ATOM     11  C   UNL     1      51.085   4.172  18.538  0.00  0.00    +0.000 A 
ATOM     12  O   UNL     1      51.349   3.678  17.445  0.00  0.00    +0.000 OA
ATOM     13  C   UNL     1      49.814   4.784  18.874  0.00  0.00    +0.000 A 
ATOM     14  H   UNL     1      52.892   3.755  19.374  0.00  0.00    +0.000 HD
ENDBRANCH   3   4
BRANCH   3  15
ATOM     15  C   UNL     1      48.062   2.944  16.602  0.00  0.00    +0.000 C 
BRANCH  15  16
ATOM     16  N   UNL     1      49.092   2.059  16.041  0.00  0.00    +0.000 NA
ATOM     17  H   UNL     1      49.840   2.609  15.628  0.00  0.00    +0.000 HD
ATOM     18  H   UNL     1      48.662   1.503  15.300  0.00  0.00    +0.000 HD
ENDBRANCH  15  16
ENDBRANCH   3  15
ENDBRANCH   1   3
BRANCH   1  19
ATOM     19  C   UNL     1      47.979   5.838  14.673  0.00  0.00    +0.000 C 
BRANCH  19  20
ATOM     20  C   UNL     1      46.948   5.567  13.602  0.00  0.00    +0.000 A 
ATOM     21  C   UNL     1      46.243   4.359  13.596  0.00  0.00    +0.000 A 
ATOM     22  C   UNL     1      45.329   4.078  12.583  0.00  0.00    +0.000 A 
ATOM     23  C   UNL     1      45.062   5.010  11.567  0.00  0.00    +0.000 A 
ATOM     24  C   UNL     1      45.770   6.218  11.575  0.00  0.00    +0.000 A 
ATOM     25  C   UNL     1      46.703   6.494  12.581  0.00  0.00    +0.000 A 
BRANCH  23  26
ATOM     26  C   UNL     1      44.070   4.729  10.454  0.00  0.00    +0.000 C 
BRANCH  26  27
ATOM     27  C   UNL     1      44.398   3.461   9.665  0.00  0.00    +0.000 C 
BRANCH  27  28
ATOM     28  N   UNL     1      44.652   3.728   8.257  0.00  0.00    +0.000 N 
ATOM     29  C   UNL     1      45.706   3.152   7.633  0.00  0.00    +0.000 C 
ATOM     30  N   UNL     1      46.392   3.712   6.683  0.00  0.00    +0.000 NA
ATOM     31  C   UNL     1      47.400   2.680   6.313  0.00  0.00    +0.000 C 
ATOM     32  C   UNL     1      47.201   1.491   7.257  0.00  0.00    +0.000 C 
ATOM     33  N   UNL     1      46.082   1.921   8.060  0.00  0.00    +0.000 N 
ATOM     34  H   UNL     1      44.597   4.711   8.005  0.00  0.00    +0.000 HD
ATOM     35  H   UNL     1      45.309   1.270   8.124  0.00  0.00    +0.000 HD
ENDBRANCH  27  28
ENDBRANCH  26  27
ENDBRANCH  23  26
ENDBRANCH  19  20
ENDBRANCH   1  19
TORSDOF 9
ENDMDL
MODEL 3
REMARK VINA RESULT:    -7.329      1.777      2.399
REMARK INTER + INTRA:         -11.950
REMARK INTER:                 -10.951
REMARK INTRA:                  -1.000
REMARK UNBOUND:                -0.979
REMARK  Name = 
REMARK  9 active torsions:
REMARK  status: ('A' for Active; 'I' for Inactive)
REMARK    1  A    between atoms: N_1  and  C_2
REMARK    2  A    between atoms: C_2  and  C_3
REMARK    3  A    between atoms: C_3  and  N_4
REMARK    4  A    between atoms: C_3  and  C_20
REMARK    5  A    between atoms: N_4  and  C_5
REMARK    6  A    between atoms: C_5  and  C_6
REMARK    7  A    between atoms: C_9  and  C_10
REMARK    8  A    between atoms: C_10  and  C_11
REMARK    9  A    between atoms: C_11  and  N_12
REMARK                            x       y       z     vdW  Elec       q    Type
REMARK                         _______ _______ _______ _____ _____    ______ ____
ROOT
ATOM      1  N   UNL     1      48.502   6.084  14.709  0.00  0.00    +0.000 NA
ATOM      2  H   UNL     1      47.657   5.614  15.032  0.00  0.00    +0.000 HD
ENDROOT
BRANCH   1   3
ATOM      3  C   UNL     1      48.932   7.005  15.779  0.00  0.00    +0.000 C 
BRANCH   3   4
ATOM      4  C   UNL     1      50.375   6.655  16.134  0.00  0.00    +0.000 A 
ATOM      5  C   UNL     1      51.496   7.384  15.761  0.00  0.00    +0.000 A 
ATOM      6  S   UNL     1      52.958   6.728  16.348  0.00  0.00    +0.000 S 
ATOM      7  C   UNL     1      52.141   5.473  17.152  0.00  0.00    +0.000 A 
ATOM      8  N   UNL     1      52.811   4.548  17.891  0.00  0.00    +0.000 NA
ATOM      9  C   UNL     1      52.052   3.673  18.466  0.00  0.00    +0.000 A 
ATOM     10  N   UNL     1      50.684   3.630  18.355  0.00  0.00    +0.000 N 
ATOM     11  C   UNL     1      49.960   4.538  17.618  0.00  0.00    +0.000 A 
ATOM     12  O   UNL     1      48.736   4.482  17.546  0.00  0.00    +0.000 OA
ATOM     13  C   UNL     1      50.773   5.544  16.962  0.00  0.00    +0.000 A 
ATOM     14  H   UNL     1      50.151   2.920  18.836  0.00  0.00    +0.000 HD
ENDBRANCH   3   4
BRANCH   3  15
ATOM     15  C   UNL     1      48.808   8.514  15.393  0.00  0.00    +0.000 C 
BRANCH  15  16
ATOM     16  N   UNL     1      47.664   9.194  16.015  0.00  0.00    +0.000 NA
ATOM     17  H   UNL     1      47.001   8.510  16.371  0.00  0.00    +0.000 HD
ATOM     18  H   UNL     1      47.194   9.746  15.295  0.00  0.00    +0.000 HD
ENDBRANCH  15  16
ENDBRANCH   3  15
ENDBRANCH   1   3
BRANCH   1  19
ATOM     19  C   UNL     1      48.191   6.763  13.453  0.00  0.00    +0.000 C 
BRANCH  19  20
ATOM     20  C   UNL     1      47.069   6.047  12.739  0.00  0.00    +0.000 A 
ATOM     21  C   UNL     1      46.599   6.525  11.511  0.00  0.00    +0.000 A 
ATOM     22  C   UNL     1      45.529   5.903  10.870  0.00  0.00    +0.000 A 
ATOM     23  C   UNL     1      44.921   4.762  11.416  0.00  0.00    +0.000 A 
ATOM     24  C   UNL     1      45.392   4.285  12.646  0.00  0.00    +0.000 A 
ATOM     25  C   UNL     1      46.454   4.921  13.301  0.00  0.00    +0.000 A 
BRANCH  23  26
ATOM     26  C   UNL     1      43.757   4.065  10.739  0.00  0.00    +0.000 C 
BRANCH  26  27
ATOM     27  C   UNL     1      44.196   2.936   9.805  0.00  0.00    +0.000 C 
BRANCH  27  28
ATOM     28  N   UNL     1      44.469   3.402   8.453  0.00  0.00    +0.000 N 
ATOM     29  C   UNL     1      45.603   3.027   7.819  0.00  0.00    +0.000 C 
ATOM     30  N   UNL     1      46.255   3.772   6.978  0.00  0.00    +0.000 NA
ATOM     31  C   UNL     1      47.388   2.911   6.539  0.00  0.00    +0.000 C 
ATOM     32  C   UNL     1      47.292   1.600   7.323  0.00  0.00    +0.000 C 
ATOM     33  N   UNL     1      46.102   1.801   8.115  0.00  0.00    +0.000 N 
ATOM     34  H   UNL     1      44.310   4.397   8.317  0.00  0.00    +0.000 HD
ATOM     35  H   UNL     1      45.408   1.066   8.062  0.00  0.00    +0.000 HD
ENDBRANCH  27  28
ENDBRANCH  26  27
ENDBRANCH  23  26
ENDBRANCH  19  20
ENDBRANCH   1  19
TORSDOF 9
ENDMDL
MODEL 4
REMARK VINA RESULT:    -7.294      1.900      2.852
REMARK INTER + INTRA:         -11.897
REMARK INTER:                 -10.796
REMARK INTRA:                  -1.101
REMARK UNBOUND:                -0.979
REMARK  Name = 
REMARK  9 active torsions:
REMARK  status: ('A' for Active; 'I' for Inactive)
REMARK    1  A    between atoms: N_1  and  C_2
REMARK    2  A    between atoms: C_2  and  C_3
REMARK    3  A    between atoms: C_3  and  N_4
REMARK    4  A    between atoms: C_3  and  C_20
REMARK    5  A    between atoms: N_4  and  C_5
REMARK    6  A    between atoms: C_5  and  C_6
REMARK    7  A    between atoms: C_9  and  C_10
REMARK    8  A    between atoms: C_10  and  C_11
REMARK    9  A    between atoms: C_11  and  N_12
REMARK                            x       y       z     vdW  Elec       q    Type
REMARK                         _______ _______ _______ _____ _____    ______ ____
ROOT
ATOM      1  N   UNL     1      49.379   6.834  13.965  0.00  0.00    +0.000 NA
ATOM      2  H   UNL     1      49.187   5.845  13.811  0.00  0.00    +0.000 HD
ENDROOT
BRANCH   1   3
ATOM      3  C   UNL     1      48.680   7.234  15.201  0.00  0.00    +0.000 C 
BRANCH   3   4
ATOM      4  C   UNL     1      49.191   6.341  16.328  0.00  0.00    +0.000 A 
ATOM      5  C   UNL     1      50.237   6.649  17.188  0.00  0.00    +0.000 A 
ATOM      6  S   UNL     1      50.535   5.440  18.354  0.00  0.00    +0.000 S 
ATOM      7  C   UNL     1      49.255   4.483  17.776  0.00  0.00    +0.000 A 
ATOM      8  N   UNL     1      48.936   3.296  18.358  0.00  0.00    +0.000 NA
ATOM      9  C   UNL     1      47.921   2.696  17.826  0.00  0.00    +0.000 A 
ATOM     10  N   UNL     1      47.207   3.169  16.752  0.00  0.00    +0.000 N 
ATOM     11  C   UNL     1      47.491   4.361  16.126  0.00  0.00    +0.000 A 
ATOM     12  O   UNL     1      46.828   4.765  15.175  0.00  0.00    +0.000 OA
ATOM     13  C   UNL     1      48.619   5.070  16.698  0.00  0.00    +0.000 A 
ATOM     14  H   UNL     1      46.420   2.651  16.389  0.00  0.00    +0.000 HD
ENDBRANCH   3   4
BRANCH   3  15
ATOM     15  C   UNL     1      48.863   8.742  15.564  0.00  0.00    +0.000 C 
BRANCH  15  16
ATOM     16  N   UNL     1      47.598   9.473  15.725  0.00  0.00    +0.000 NA
ATOM     17  H   UNL     1      46.854   9.002  15.216  0.00  0.00    +0.000 HD
ATOM     18  H   UNL     1      47.717  10.405  15.323  0.00  0.00    +0.000 HD
ENDBRANCH  15  16
ENDBRANCH   3  15
ENDBRANCH   1   3
BRANCH   1  19
ATOM     19  C   UNL     1      48.933   7.571  12.785  0.00  0.00    +0.000 C 
BRANCH  19  20
ATOM     20  C   UNL     1      47.527   7.162  12.416  0.00  0.00    +0.000 A 
ATOM     21  C   UNL     1      47.216   5.811  12.224  0.00  0.00    +0.000 A 
ATOM     22  C   UNL     1      45.936   5.427  11.832  0.00  0.00    +0.000 A 
ATOM     23  C   UNL     1      44.915   6.376  11.657  0.00  0.00    +0.000 A 
ATOM     24  C   UNL     1      45.229   7.727  11.849  0.00  0.00    +0.000 A 
ATOM     25  C   UNL     1      46.520   8.116  12.224  0.00  0.00    +0.000 A 
BRANCH  23  26
ATOM     26  C   UNL     1      43.513   5.984  11.233  0.00  0.00    +0.000 C 
BRANCH  26  27
ATOM     27  C   UNL     1      43.453   4.617  10.552  0.00  0.00    +0.000 C 
BRANCH  27  28
ATOM     28  N   UNL     1      43.873   4.665   9.160  0.00  0.00    +0.000 N 
ATOM     29  C   UNL     1      44.776   3.776   8.688  0.00  0.00    +0.000 C 
ATOM     30  N   UNL     1      45.656   4.040   7.769  0.00  0.00    +0.000 NA
ATOM     31  C   UNL     1      46.375   2.749   7.581  0.00  0.00    +0.000 C 
ATOM     32  C   UNL     1      45.795   1.754   8.589  0.00  0.00    +0.000 C 
ATOM     33  N   UNL     1      44.776   2.539   9.244  0.00  0.00    +0.000 N 
ATOM     34  H   UNL     1      44.102   5.599   8.828  0.00  0.00    +0.000 HD
ATOM     35  H   UNL     1      43.854   2.121   9.282  0.00  0.00    +0.000 HD
ENDBRANCH  27  28
ENDBRANCH  26  27
ENDBRANCH  23  26
ENDBRANCH  19  20
ENDBRANCH   1  19
TORSDOF 9
ENDMDL
MODEL 5
REMARK VINA RESULT:    -7.054      2.815      3.925
REMARK INTER + INTRA:         -11.539
REMARK INTER:                 -10.394
REMARK INTRA:                  -1.144
REMARK UNBOUND:                -0.979
REMARK  Name = 
REMARK  9 active torsions:
REMARK  status: ('A' for Active; 'I' for Inactive)
REMARK    1  A    between atoms: N_1  and  C_2
REMARK    2  A    between atoms: C_2  and  C_3
REMARK    3  A    between atoms: C_3  and  N_4
REMARK    4  A    between atoms: C_3  and  C_20
REMARK    5  A    between atoms: N_4  and  C_5
REMARK    6  A    between atoms: C_5  and  C_6
REMARK    7  A    between atoms: C_9  and  C_10
REMARK    8  A    between atoms: C_10  and  C_11
REMARK    9  A    between atoms: C_11  and  N_12
REMARK                            x       y       z     vdW  Elec       q    Type
REMARK                         _______ _______ _______ _____ _____    ______ ____
ROOT
ATOM      1  N   UNL     1      48.546   5.890  14.738  0.00  0.00    +0.000 NA
ATOM      2  H   UNL     1      47.807   5.270  15.066  0.00  0.00    +0.000 HD
ENDROOT
BRANCH   1   3
ATOM      3  C   UNL     1      48.926   6.762  15.865  0.00  0.00    +0.000 C 
BRANCH   3   4
ATOM      4  C   UNL     1      48.719   5.967  17.151  0.00  0.00    +0.000 A 
ATOM      5  C   UNL     1      48.994   4.616  17.316  0.00  0.00    +0.000 A 
ATOM      6  S   UNL     1      48.672   4.045  18.892  0.00  0.00    +0.000 S 
ATOM      7  C   UNL     1      48.193   5.589  19.417  0.00  0.00    +0.000 A 
ATOM      8  N   UNL     1      47.812   5.815  20.703  0.00  0.00    +0.000 NA
ATOM      9  C   UNL     1      47.502   7.044  20.960  0.00  0.00    +0.000 A 
ATOM     10  N   UNL     1      47.525   8.065  20.041  0.00  0.00    +0.000 N 
ATOM     11  C   UNL     1      47.899   7.889  18.729  0.00  0.00    +0.000 A 
ATOM     12  O   UNL     1      47.921   8.823  17.932  0.00  0.00    +0.000 OA
ATOM     13  C   UNL     1      48.262   6.524  18.401  0.00  0.00    +0.000 A 
ATOM     14  H   UNL     1      47.275   9.006  20.311  0.00  0.00    +0.000 HD
ENDBRANCH   3   4
BRANCH   3  15
ATOM     15  C   UNL     1      50.390   7.300  15.776  0.00  0.00    +0.000 C 
BRANCH  15  16
ATOM     16  N   UNL     1      50.579   8.615  16.402  0.00  0.00    +0.000 NA
ATOM     17  H   UNL     1      51.154   8.527  17.236  0.00  0.00    +0.000 HD
ATOM     18  H   UNL     1      49.663   8.967  16.686  0.00  0.00    +0.000 HD
ENDBRANCH  15  16
ENDBRANCH   3  15
ENDBRANCH   1   3
BRANCH   1  19
ATOM     19  C   UNL     1      48.040   6.627  13.582  0.00  0.00    +0.000 C 
BRANCH  19  20
ATOM     20  C   UNL     1      46.967   5.826  12.883  0.00  0.00    +0.000 A 
ATOM     21  C   UNL     1      46.361   6.323  11.725  0.00  0.00    +0.000 A 
ATOM     22  C   UNL     1      45.334   5.616  11.103  0.00  0.00    +0.000 A 
ATOM     23  C   UNL     1      44.906   4.374  11.596  0.00  0.00    +0.000 A 
ATOM     24  C   UNL     1      45.513   3.879  12.757  0.00  0.00    +0.000 A 
ATOM     25  C   UNL     1      46.532   4.596  13.394  0.00  0.00    +0.000 A 
BRANCH  23  26
ATOM     26  C   UNL     1      43.791   3.584  10.938  0.00  0.00    +0.000 C 
BRANCH  26  27
ATOM     27  C   UNL     1      44.143   3.115   9.525  0.00  0.00    +0.000 C 
BRANCH  27  28
ATOM     28  N   UNL     1      45.148   2.063   9.519  0.00  0.00    +0.000 N 
ATOM     29  C   UNL     1      45.988   1.928   8.466  0.00  0.00    +0.000 C 
ATOM     30  N   UNL     1      46.449   0.793   8.036  0.00  0.00    +0.000 NA
ATOM     31  C   UNL     1      47.340   1.174   6.904  0.00  0.00    +0.000 C 
ATOM     32  C   UNL     1      47.241   2.694   6.741  0.00  0.00    +0.000 C 
ATOM     33  N   UNL     1      46.337   3.059   7.804  0.00  0.00    +0.000 N 
ATOM     34  H   UNL     1      44.796   1.151   9.798  0.00  0.00    +0.000 HD
ATOM     35  H   UNL     1      46.656   3.798   8.420  0.00  0.00    +0.000 HD
ENDBRANCH  27  28
ENDBRANCH  26  27
ENDBRANCH  23  26
ENDBRANCH  19  20
ENDBRANCH   1  19
TORSDOF 9
ENDMDL
MODEL 6
REMARK VINA RESULT:    -6.822      2.360      2.934
REMARK INTER + INTRA:         -11.190
REMARK INTER:                 -10.334
REMARK INTRA:                  -0.856
REMARK UNBOUND:                -0.979
REMARK  Name = 
REMARK  9 active torsions:
REMARK  status: ('A' for Active; 'I' for Inactive)
REMARK    1  A    between atoms: N_1  and  C_2
REMARK    2  A    between atoms: C_2  and  C_3
REMARK    3  A    between atoms: C_3  and  N_4
REMARK    4  A    between atoms: C_3  and  C_20
REMARK    5  A    between atoms: N_4  and  C_5
REMARK    6  A    between atoms: C_5  and  C_6
REMARK    7  A    between atoms: C_9  and  C_10
REMARK    8  A    between atoms: C_10  and  C_11
REMARK    9  A    between atoms: C_11  and  N_12
REMARK                            x       y       z     vdW  Elec       q    Type
REMARK                         _______ _______ _______ _____ _____    ______ ____
ROOT
ATOM      1  N   UNL     1      48.371   5.828  14.967  0.00  0.00    +0.000 NA
ATOM      2  H   UNL     1      49.290   5.393  14.891  0.00  0.00    +0.000 HD
ENDROOT
BRANCH   1   3
ATOM      3  C   UNL     1      48.412   6.748  16.120  0.00  0.00    +0.000 C 
BRANCH   3   4
ATOM      4  C   UNL     1      49.433   6.198  17.112  0.00  0.00    +0.000 A 
ATOM      5  C   UNL     1      50.806   6.156  16.914  0.00  0.00    +0.000 A 
ATOM      6  S   UNL     1      51.663   5.501  18.236  0.00  0.00    +0.000 S 
ATOM      7  C   UNL     1      50.233   5.286  19.131  0.00  0.00    +0.000 A 
ATOM      8  N   UNL     1      50.255   4.781  20.395  0.00  0.00    +0.000 NA
ATOM      9  C   UNL     1      49.094   4.703  20.958  0.00  0.00    +0.000 A 
ATOM     10  N   UNL     1      47.910   5.071  20.366  0.00  0.00    +0.000 N 
ATOM     11  C   UNL     1      47.834   5.583  19.091  0.00  0.00    +0.000 A 
ATOM     12  O   UNL     1      46.763   5.913  18.591  0.00  0.00    +0.000 OA
ATOM     13  C   UNL     1      49.117   5.694  18.425  0.00  0.00    +0.000 A 
ATOM     14  H   UNL     1      47.037   4.988  20.866  0.00  0.00    +0.000 HD
ENDBRANCH   3   4
BRANCH   3  15
ATOM     15  C   UNL     1      48.756   8.222  15.732  0.00  0.00    +0.000 C 
BRANCH  15  16
ATOM     16  N   UNL     1      47.629   9.153  15.878  0.00  0.00    +0.000 NA
ATOM     17  H   UNL     1      47.588   9.507  16.830  0.00  0.00    +0.000 HD
ATOM     18  H   UNL     1      46.766   8.638  15.694  0.00  0.00    +0.000 HD
ENDBRANCH  15  16
ENDBRANCH   3  15
ENDBRANCH   1   3
BRANCH   1  19
ATOM     19  C   UNL     1      47.378   4.766  15.110  0.00  0.00    +0.000 C 
BRANCH  19  20
ATOM     20  C   UNL     1      46.508   4.697  13.878  0.00  0.00    +0.000 A 
ATOM     21  C   UNL     1      46.026   5.872  13.291  0.00  0.00    +0.000 A 
ATOM     22  C   UNL     1      45.180   5.817  12.186  0.00  0.00    +0.000 A 
ATOM     23  C   UNL     1      44.820   4.590  11.607  0.00  0.00    +0.000 A 
ATOM     24  C   UNL     1      45.303   3.414  12.197  0.00  0.00    +0.000 A 
ATOM     25  C   UNL     1      46.137   3.467  13.319  0.00  0.00    +0.000 A 
BRANCH  23  26
ATOM     26  C   UNL     1      43.903   4.503  10.403  0.00  0.00    +0.000 C 
BRANCH  26  27
ATOM     27  C   UNL     1      44.168   3.272   9.536  0.00  0.00    +0.000 C 
BRANCH  27  28
ATOM     28  N   UNL     1      44.541   3.617   8.172  0.00  0.00    +0.000 N 
ATOM     29  C   UNL     1      45.673   3.116   7.626  0.00  0.00    +0.000 C 
ATOM     30  N   UNL     1      46.419   3.750   6.773  0.00  0.00    +0.000 NA
ATOM     31  C   UNL     1      47.504   2.778   6.455  0.00  0.00    +0.000 C 
ATOM     32  C   UNL     1      47.270   1.538   7.321  0.00  0.00    +0.000 C 
ATOM     33  N   UNL     1      46.062   1.882   8.032  0.00  0.00    +0.000 N 
ATOM     34  H   UNL     1      44.465   4.609   7.960  0.00  0.00    +0.000 HD
ATOM     35  H   UNL     1      45.317   1.197   7.992  0.00  0.00    +0.000 HD
ENDBRANCH  27  28
ENDBRANCH  26  27
ENDBRANCH  23  26
ENDBRANCH  19  20
ENDBRANCH   1  19
TORSDOF 9
ENDMDL
MODEL 7
REMARK VINA RESULT:    -6.735      2.538      3.653
REMARK INTER + INTRA:         -11.061
REMARK INTER:                 -10.200
REMARK INTRA:                  -0.861
REMARK UNBOUND:                -0.979
REMARK  Name = 
REMARK  9 active torsions:
REMARK  status: ('A' for Active; 'I' for Inactive)
REMARK    1  A    between atoms: N_1  and  C_2
REMARK    2  A    between atoms: C_2  and  C_3
REMARK    3  A    between atoms: C_3  and  N_4
REMARK    4  A    between atoms: C_3  and  C_20
REMARK    5  A    between atoms: N_4  and  C_5
REMARK    6  A    between atoms: C_5  and  C_6
REMARK    7  A    between atoms: C_9  and  C_10
REMARK    8  A    between atoms: C_10  and  C_11
REMARK    9  A    between atoms: C_11  and  N_12
REMARK                            x       y       z     vdW  Elec       q    Type
REMARK                         _______ _______ _______ _____ _____    ______ ____
ROOT
ATOM      1  N   UNL     1      49.488   6.620  14.376  0.00  0.00    +0.000 NA
ATOM      2  H   UNL     1      48.838   6.156  15.009  0.00  0.00    +0.000 HD
ENDROOT
BRANCH   1   3
ATOM      3  C   UNL     1      50.173   7.678  15.144  0.00  0.00    +0.000 C 
BRANCH   3   4
ATOM      4  C   UNL     1      49.325   7.974  16.377  0.00  0.00    +0.000 A 
ATOM      5  C   UNL     1      48.773   9.207  16.699  0.00  0.00    +0.000 A 
ATOM      6  S   UNL     1      47.856   9.185  18.138  0.00  0.00    +0.000 S 
ATOM      7  C   UNL     1      48.132   7.522  18.358  0.00  0.00    +0.000 A 
ATOM      8  N   UNL     1      47.594   6.846  19.410  0.00  0.00    +0.000 NA
ATOM      9  C   UNL     1      47.869   5.583  19.428  0.00  0.00    +0.000 A 
ATOM     10  N   UNL     1      48.647   4.937  18.498  0.00  0.00    +0.000 N 
ATOM     11  C   UNL     1      49.216   5.575  17.420  0.00  0.00    +0.000 A 
ATOM     12  O   UNL     1      49.898   4.970  16.598  0.00  0.00    +0.000 OA
ATOM     13  C   UNL     1      48.926   6.994  17.357  0.00  0.00    +0.000 A 
ATOM     14  H   UNL     1      48.818   3.945  18.570  0.00  0.00    +0.000 HD
ENDBRANCH   3   4
BRANCH   3  15
ATOM     15  C   UNL     1      51.635   7.309  15.552  0.00  0.00    +0.000 C 
BRANCH  15  16
ATOM     16  N   UNL     1      52.638   7.629  14.527  0.00  0.00    +0.000 NA
ATOM     17  H   UNL     1      52.227   7.557  13.600  0.00  0.00    +0.000 HD
ATOM     18  H   UNL     1      53.390   6.941  14.594  0.00  0.00    +0.000 HD
ENDBRANCH  15  16
ENDBRANCH   3  15
ENDBRANCH   1   3
BRANCH   1  19
ATOM     19  C   UNL     1      48.727   7.132  13.239  0.00  0.00    +0.000 C 
BRANCH  19  20
ATOM     20  C   UNL     1      47.385   6.445  13.160  0.00  0.00    +0.000 A 
ATOM     21  C   UNL     1      46.276   7.124  12.643  0.00  0.00    +0.000 A 
ATOM     22  C   UNL     1      45.022   6.517  12.615  0.00  0.00    +0.000 A 
ATOM     23  C   UNL     1      44.844   5.200  13.066  0.00  0.00    +0.000 A 
ATOM     24  C   UNL     1      45.954   4.521  13.583  0.00  0.00    +0.000 A 
ATOM     25  C   UNL     1      47.211   5.137  13.630  0.00  0.00    +0.000 A 
BRANCH  23  26
ATOM     26  C   UNL     1      43.491   4.516  13.044  0.00  0.00    +0.000 C 
BRANCH  26  27
ATOM     27  C   UNL     1      43.370   3.460  11.944  0.00  0.00    +0.000 C 
BRANCH  27  28
ATOM     28  N   UNL     1      43.453   4.031  10.609  0.00  0.00    +0.000 N 
ATOM     29  C   UNL     1      44.320   3.525   9.702  0.00  0.00    +0.000 C 
ATOM     30  N   UNL     1      44.931   4.229   8.797  0.00  0.00    +0.000 NA
ATOM     31  C   UNL     1      45.730   3.224   8.041  0.00  0.00    +0.000 C 
ATOM     32  C   UNL     1      45.513   1.868   8.718  0.00  0.00    +0.000 C 
ATOM     33  N   UNL     1      44.588   2.197   9.776  0.00  0.00    +0.000 N 
ATOM     34  H   UNL     1      43.492   5.047  10.593  0.00  0.00    +0.000 HD
ATOM     35  H   UNL     1      43.753   1.626   9.824  0.00  0.00    +0.000 HD
ENDBRANCH  27  28
ENDBRANCH  26  27
ENDBRANCH  23  26
ENDBRANCH  19  20
ENDBRANCH   1  19
TORSDOF 9
ENDMDL
MODEL 8
REMARK VINA RESULT:    -6.554      2.755      3.950
REMARK INTER + INTRA:         -10.790
REMARK INTER:                  -9.640
REMARK INTRA:                  -1.150
REMARK UNBOUND:                -0.979
REMARK  Name = 
REMARK  9 active torsions:
REMARK  status: ('A' for Active; 'I' for Inactive)
REMARK    1  A    between atoms: N_1  and  C_2
REMARK    2  A    between atoms: C_2  and  C_3
REMARK    3  A    between atoms: C_3  and  N_4
REMARK    4  A    between atoms: C_3  and  C_20
REMARK    5  A    between atoms: N_4  and  C_5
REMARK    6  A    between atoms: C_5  and  C_6
REMARK    7  A    between atoms: C_9  and  C_10
REMARK    8  A    between atoms: C_10  and  C_11
REMARK    9  A    between atoms: C_11  and  N_12
REMARK                            x       y       z     vdW  Elec       q    Type
REMARK                         _______ _______ _______ _____ _____    ______ ____
ROOT
ATOM      1  N   UNL     1      49.738   6.692  14.370  0.00  0.00    +0.000 NA
ATOM      2  H   UNL     1      49.263   5.843  14.675  0.00  0.00    +0.000 HD
ENDROOT
BRANCH   1   3
ATOM      3  C   UNL     1      50.311   7.333  15.569  0.00  0.00    +0.000 C 
BRANCH   3   4
ATOM      4  C   UNL     1      49.993   6.440  16.765  0.00  0.00    +0.000 A 
ATOM      5  C   UNL     1      50.594   5.219  17.041  0.00  0.00    +0.000 A 
ATOM      6  S   UNL     1      50.024   4.490  18.474  0.00  0.00    +0.000 S 
ATOM      7  C   UNL     1      48.985   5.797  18.795  0.00  0.00    +0.000 A 
ATOM      8  N   UNL     1      48.207   5.828  19.911  0.00  0.00    +0.000 NA
ATOM      9  C   UNL     1      47.491   6.899  20.032  0.00  0.00    +0.000 A 
ATOM     10  N   UNL     1      47.471   7.933  19.129  0.00  0.00    +0.000 N 
ATOM     11  C   UNL     1      48.235   7.948  17.985  0.00  0.00    +0.000 A 
ATOM     12  O   UNL     1      48.205   8.892  17.200  0.00  0.00    +0.000 OA
ATOM     13  C   UNL     1      49.060   6.768  17.814  0.00  0.00    +0.000 A 
ATOM     14  H   UNL     1      46.891   8.744  19.288  0.00  0.00    +0.000 HD
ENDBRANCH   3   4
BRANCH   3  15
ATOM     15  C   UNL     1      51.848   7.593  15.465  0.00  0.00    +0.000 C 
BRANCH  15  16
ATOM     16  N   UNL     1      52.333   7.747  14.087  0.00  0.00    +0.000 NA
ATOM     17  H   UNL     1      52.180   8.699  13.765  0.00  0.00    +0.000 HD
ATOM     18  H   UNL     1      51.792   7.119  13.489  0.00  0.00    +0.000 HD
ENDBRANCH  15  16
ENDBRANCH   3  15
ENDBRANCH   1   3
BRANCH   1  19
ATOM     19  C   UNL     1      48.763   7.531  13.676  0.00  0.00    +0.000 C 
BRANCH  19  20
ATOM     20  C   UNL     1      47.454   6.793  13.526  0.00  0.00    +0.000 A 
ATOM     21  C   UNL     1      47.342   5.466  13.955  0.00  0.00    +0.000 A 
ATOM     22  C   UNL     1      46.155   4.760  13.773  0.00  0.00    +0.000 A 
ATOM     23  C   UNL     1      45.031   5.368  13.193  0.00  0.00    +0.000 A 
ATOM     24  C   UNL     1      45.145   6.696  12.763  0.00  0.00    +0.000 A 
ATOM     25  C   UNL     1      46.343   7.401  12.927  0.00  0.00    +0.000 A 
BRANCH  23  26
ATOM     26  C   UNL     1      43.727   4.622  12.985  0.00  0.00    +0.000 C 
BRANCH  26  27
ATOM     27  C   UNL     1      43.837   3.499  11.954  0.00  0.00    +0.000 C 
BRANCH  27  28
ATOM     28  N   UNL     1      43.697   3.978  10.587  0.00  0.00    +0.000 N 
ATOM     29  C   UNL     1      44.482   3.479   9.605  0.00  0.00    +0.000 C 
ATOM     30  N   UNL     1      44.908   4.162   8.586  0.00  0.00    +0.000 NA
ATOM     31  C   UNL     1      45.690   3.174   7.792  0.00  0.00    +0.000 C 
ATOM     32  C   UNL     1      45.682   1.856   8.573  0.00  0.00    +0.000 C 
ATOM     33  N   UNL     1      44.874   2.185   9.722  0.00  0.00    +0.000 N 
ATOM     34  H   UNL     1      43.644   4.990  10.505  0.00  0.00    +0.000 HD
ATOM     35  H   UNL     1      44.106   1.554   9.916  0.00  0.00    +0.000 HD
ENDBRANCH  27  28
ENDBRANCH  26  27
ENDBRANCH  23  26
ENDBRANCH  19  20
ENDBRANCH   1  19
TORSDOF 9
ENDMDL
MODEL 9
REMARK VINA RESULT:    -6.501      3.249      8.569
REMARK INTER + INTRA:         -10.711
REMARK INTER:                  -9.628
REMARK INTRA:                  -1.083
REMARK UNBOUND:                -0.979
REMARK  Name = 
REMARK  9 active torsions:
REMARK  status: ('A' for Active; 'I' for Inactive)
REMARK    1  A    between atoms: N_1  and  C_2
REMARK    2  A    between atoms: C_2  and  C_3
REMARK    3  A    between atoms: C_3  and  N_4
REMARK    4  A    between atoms: C_3  and  C_20
REMARK    5  A    between atoms: N_4  and  C_5
REMARK    6  A    between atoms: C_5  and  C_6
REMARK    7  A    between atoms: C_9  and  C_10
REMARK    8  A    between atoms: C_10  and  C_11
REMARK    9  A    between atoms: C_11  and  N_12
REMARK                            x       y       z     vdW  Elec       q    Type
REMARK                         _______ _______ _______ _____ _____    ______ ____
ROOT
ATOM      1  N   UNL     1      47.089   6.899  12.088  0.00  0.00    +0.000 NA
ATOM      2  H   UNL     1      47.785   6.494  11.463  0.00  0.00    +0.000 HD
ENDROOT
BRANCH   1   3
ATOM      3  C   UNL     1      45.813   6.962  11.350  0.00  0.00    +0.000 C 
BRANCH   3   4
ATOM      4  C   UNL     1      45.095   5.631  11.557  0.00  0.00    +0.000 A 
ATOM      5  C   UNL     1      44.413   5.255  12.706  0.00  0.00    +0.000 A 
ATOM      6  S   UNL     1      43.701   3.708  12.597  0.00  0.00    +0.000 S 
ATOM      7  C   UNL     1      44.246   3.506  10.999  0.00  0.00    +0.000 A 
ATOM      8  N   UNL     1      43.953   2.385  10.286  0.00  0.00    +0.000 NA
ATOM      9  C   UNL     1      44.412   2.388   9.076  0.00  0.00    +0.000 A 
ATOM     10  N   UNL     1      45.152   3.404   8.522  0.00  0.00    +0.000 N 
ATOM     11  C   UNL     1      45.477   4.555   9.202  0.00  0.00    +0.000 A 
ATOM     12  O   UNL     1      46.131   5.452   8.677  0.00  0.00    +0.000 OA
ATOM     13  C   UNL     1      44.975   4.596  10.561  0.00  0.00    +0.000 A 
ATOM     14  H   UNL     1      45.475   3.343   7.568  0.00  0.00    +0.000 HD
ENDBRANCH   3   4
BRANCH   3  15
ATOM     15  C   UNL     1      44.901   8.156  11.779  0.00  0.00    +0.000 C 
BRANCH  15  16
ATOM     16  N   UNL     1      43.663   8.269  10.995  0.00  0.00    +0.000 NA
ATOM     17  H   UNL     1      43.866   8.173  10.004  0.00  0.00    +0.000 HD
ATOM     18  H   UNL     1      43.274   9.201  11.151  0.00  0.00    +0.000 HD
ENDBRANCH  15  16
ENDBRANCH   3  15
ENDBRANCH   1   3
BRANCH   1  19
ATOM     19  C   UNL     1      47.574   8.209  12.518  0.00  0.00    +0.000 C 
BRANCH  19  20
ATOM     20  C   UNL     1      48.249   8.098  13.865  0.00  0.00    +0.000 A 
ATOM     21  C   UNL     1      47.889   8.962  14.904  0.00  0.00    +0.000 A 
ATOM     22  C   UNL     1      48.542   8.903  16.133  0.00  0.00    +0.000 A 
ATOM     23  C   UNL     1      49.548   7.954  16.376  0.00  0.00    +0.000 A 
ATOM     24  C   UNL     1      49.908   7.091  15.333  0.00  0.00    +0.000 A 
ATOM     25  C   UNL     1      49.266   7.162  14.091  0.00  0.00    +0.000 A 
BRANCH  23  26
ATOM     26  C   UNL     1      50.273   7.867  17.705  0.00  0.00    +0.000 C 
BRANCH  26  27
ATOM     27  C   UNL     1      50.301   6.451  18.281  0.00  0.00    +0.000 C 
BRANCH  27  28
ATOM     28  N   UNL     1      48.981   5.979  18.671  0.00  0.00    +0.000 N 
ATOM     29  C   UNL     1      48.460   4.865  18.108  0.00  0.00    +0.000 C 
ATOM     30  N   UNL     1      47.196   4.684  17.870  0.00  0.00    +0.000 NA
ATOM     31  C   UNL     1      47.133   3.314  17.288  0.00  0.00    +0.000 C 
ATOM     32  C   UNL     1      48.571   2.800  17.182  0.00  0.00    +0.000 C 
ATOM     33  N   UNL     1      49.331   3.893  17.739  0.00  0.00    +0.000 N 
ATOM     34  H   UNL     1      48.274   6.709  18.710  0.00  0.00    +0.000 HD
ATOM     35  H   UNL     1      49.985   3.646  18.472  0.00  0.00    +0.000 HD
ENDBRANCH  27  28
ENDBRANCH  26  27
ENDBRANCH  23  26
ENDBRANCH  19  20
ENDBRANCH   1  19
TORSDOF 9
ENDMDL
