MODEL 1
REMARK VINA RESULT:    -7.413      0.000      0.000
REMARK INTER + INTRA:         -10.598
REMARK INTER:                 -10.014
REMARK INTRA:                  -0.584
REMARK UNBOUND:                -0.584
REMARK  Name = 
REMARK  6 active torsions:
REMARK  status: ('A' for Active; 'I' for Inactive)
REMARK    1  A    between atoms: C_2  and  C_3
REMARK    2  A    between atoms: C_7  and  C_8
REMARK    3  A    between atoms: C_8  and  C_10
REMARK    4  A    between atoms: C_10  and  N_11
REMARK    5  A    between atoms: N_11  and  C_12
REMARK    6  A    between atoms: C_15  and  C_16
REMARK                            x       y       z     vdW  Elec       q    Type
REMARK                         _______ _______ _______ _____ _____    ______ ____
ROOT
ATOM      1  C   UNL     1      43.117   4.134  11.148  0.00  0.00    +0.000 C 
ENDROOT
BRANCH   1   2
ATOM      2  C   UNL     1      43.100   5.130  12.323  0.00  0.00    +0.000 C 
ATOM      3  F   UNL     1      42.431   6.253  11.911  0.00  0.00    +0.000 F 
BRANCH   2   8
ATOM      4  C   UNL     1      46.550   4.773  13.928  0.00  0.00    +0.000 A 
ATOM      5  C   UNL     1      47.118   6.019  13.653  0.00  0.00    +0.000 A 
ATOM      6  C   UNL     1      46.386   6.982  12.957  0.00  0.00    +0.000 A 
ATOM      7  C   UNL     1      45.086   6.702  12.529  0.00  0.00    +0.000 A 
ATOM      8  C   UNL     1      44.507   5.450  12.785  0.00  0.00    +0.000 A 
ATOM      9  C   UNL     1      45.248   4.492  13.496  0.00  0.00    +0.000 A 
BRANCH   4  11
ATOM     10  N   UNL     1      47.908   2.989  15.229  0.00  0.00    +0.000 NA
ATOM     11  C   UNL     1      47.296   3.785  14.648  0.00  0.00    +0.000 C 
ENDBRANCH   4  11
ENDBRANCH   2   8
ENDBRANCH   1   2
BRANCH   1  12
ATOM     12  N   UNL     1      43.662   4.750   9.923  0.00  0.00    +0.000 N 
ATOM     13  H   UNL     1      43.949   5.716  10.099  0.00  0.00    +0.000 HD
BRANCH  12  14
ATOM     14  C   UNL     1      44.642   4.033   9.222  0.00  0.00    +0.000 A 
ATOM     15  C   UNL     1      44.696   2.638   9.198  0.00  0.00    +0.000 A 
ATOM     16  C   UNL     1      45.649   1.971   8.426  0.00  0.00    +0.000 A 
ATOM     17  C   UNL     1      46.523   2.722   7.658  0.00  0.00    +0.000 A 
ATOM     18  N   UNL     1      46.488   4.074   7.610  0.00  0.00    +0.000 NA
ATOM     19  C   UNL     1      45.543   4.685   8.373  0.00  0.00    +0.000 A 
BRANCH  17  20
ATOM     20  C   UNL     1      47.519   2.075   6.851  0.00  0.00    +0.000 C 
ATOM     21  N   UNL     1      48.355   1.536   6.250  0.00  0.00    +0.000 NA
ENDBRANCH  17  20
ENDBRANCH  12  14
ENDBRANCH   1  12
TORSDOF 6
ENDMDL
MODEL 2
REMARK VINA RESULT:    -7.330      1.647      2.440
REMARK INTER + INTRA:         -10.485
REMARK INTER:                  -9.939
REMARK INTRA:                  -0.547
REMARK UNBOUND:                -0.584
REMARK  Name = 
REMARK  6 active torsions:
REMARK  status: ('A' for Active; 'I' for Inactive)
REMARK    1  A    between atoms: C_2  and  C_3
REMARK    2  A    between atoms: C_7  and  C_8
REMARK    3  A    between atoms: C_8  and  C_10
REMARK    4  A    between atoms: C_10  and  N_11
REMARK    5  A    between atoms: N_11  and  C_12
REMARK    6  A    between atoms: C_15  and  C_16
REMARK                            x       y       z     vdW  Elec       q    Type
REMARK                         _______ _______ _______ _____ _____    ______ ____
ROOT
ATOM      1  C   UNL     1      43.455   3.402  11.526  0.00  0.00    +0.000 C 
ENDROOT
BRANCH   1   2
ATOM      2  C   UNL     1      43.342   4.392  12.701  0.00  0.00    +0.000 C 
ATOM      3  F   UNL     1      42.275   5.216  12.454  0.00  0.00    +0.000 F 
BRANCH   2   8
ATOM      4  C   UNL     1      45.838   7.287  12.751  0.00  0.00    +0.000 A 
ATOM      5  C   UNL     1      47.000   6.649  13.191  0.00  0.00    +0.000 A 
ATOM      6  C   UNL     1      46.984   5.280  13.463  0.00  0.00    +0.000 A 
ATOM      7  C   UNL     1      45.807   4.545  13.302  0.00  0.00    +0.000 A 
ATOM      8  C   UNL     1      44.628   5.175  12.876  0.00  0.00    +0.000 A 
ATOM      9  C   UNL     1      44.658   6.550  12.593  0.00  0.00    +0.000 A 
BRANCH   4  11
ATOM     10  N   UNL     1      45.863   9.825  12.224  0.00  0.00    +0.000 NA
ATOM     11  C   UNL     1      45.852   8.690  12.464  0.00  0.00    +0.000 C 
ENDBRANCH   4  11
ENDBRANCH   2   8
ENDBRANCH   1   2
BRANCH   1  12
ATOM     12  N   UNL     1      43.718   4.098  10.253  0.00  0.00    +0.000 N 
ATOM     13  H   UNL     1      43.860   5.099  10.408  0.00  0.00    +0.000 HD
BRANCH  12  14
ATOM     14  C   UNL     1      44.702   3.556   9.413  0.00  0.00    +0.000 A 
ATOM     15  C   UNL     1      44.958   2.186   9.323  0.00  0.00    +0.000 A 
ATOM     16  C   UNL     1      45.898   1.691   8.418  0.00  0.00    +0.000 A 
ATOM     17  C   UNL     1      46.553   2.585   7.588  0.00  0.00    +0.000 A 
ATOM     18  N   UNL     1      46.313   3.917   7.602  0.00  0.00    +0.000 NA
ATOM     19  C   UNL     1      45.388   4.358   8.494  0.00  0.00    +0.000 A 
BRANCH  17  20
ATOM     20  C   UNL     1      47.529   2.116   6.644  0.00  0.00    +0.000 C 
ATOM     21  N   UNL     1      48.303   1.678   5.895  0.00  0.00    +0.000 NA
ENDBRANCH  17  20
ENDBRANCH  12  14
ENDBRANCH   1  12
TORSDOF 6
ENDMDL
MODEL 3
REMARK VINA RESULT:    -7.111      2.161      5.647
REMARK INTER + INTRA:         -10.189
REMARK INTER:                  -9.405
REMARK INTRA:                  -0.783
REMARK UNBOUND:                -0.584
REMARK  Name = 
REMARK  6 active torsions:
REMARK  status: ('A' for Active; 'I' for Inactive)
REMARK    1  A    between atoms: C_2  and  C_3
REMARK    2  A    between atoms: C_7  and  C_8
REMARK    3  A    between atoms: C_8  and  C_10
REMARK    4  A    between atoms: C_10  and  N_11
REMARK    5  A    between atoms: N_11  and  C_12
REMARK    6  A    between atoms: C_15  and  C_16
REMARK                            x       y       z     vdW  Elec       q    Type
REMARK                         _______ _______ _______ _____ _____    ______ ____
ROOT
ATOM      1  C   UNL     1      42.994   4.693  11.634  0.00  0.00    +0.000 C 
ENDROOT
BRANCH   1   2
ATOM      2  C   UNL     1      43.353   3.270  11.167  0.00  0.00    +0.000 C 
ATOM      3  F   UNL     1      43.855   2.589  12.245  0.00  0.00    +0.000 F 
BRANCH   2   8
ATOM      4  C   UNL     1      45.808   2.135   8.466  0.00  0.00    +0.000 A 
ATOM      5  C   UNL     1      46.170   3.353   7.886  0.00  0.00    +0.000 A 
ATOM      6  C   UNL     1      45.631   4.545   8.371  0.00  0.00    +0.000 A 
ATOM      7  C   UNL     1      44.724   4.525   9.433  0.00  0.00    +0.000 A 
ATOM      8  C   UNL     1      44.339   3.308  10.016  0.00  0.00    +0.000 A 
ATOM      9  C   UNL     1      44.897   2.115   9.529  0.00  0.00    +0.000 A 
BRANCH   4  11
ATOM     10  N   UNL     1      46.819  -0.084   7.585  0.00  0.00    +0.000 NA
ATOM     11  C   UNL     1      46.365   0.910   7.975  0.00  0.00    +0.000 C 
ENDBRANCH   4  11
ENDBRANCH   2   8
ENDBRANCH   1   2
BRANCH   1  12
ATOM     12  N   UNL     1      43.518   4.969  12.985  0.00  0.00    +0.000 N 
ATOM     13  H   UNL     1      43.377   4.164  13.600  0.00  0.00    +0.000 HD
BRANCH  12  14
ATOM     14  C   UNL     1      44.822   5.476  13.079  0.00  0.00    +0.000 A 
ATOM     15  C   UNL     1      45.884   4.753  13.625  0.00  0.00    +0.000 A 
ATOM     16  C   UNL     1      47.179   5.275  13.629  0.00  0.00    +0.000 A 
ATOM     17  C   UNL     1      47.395   6.516  13.052  0.00  0.00    +0.000 A 
ATOM     18  N   UNL     1      46.411   7.240  12.470  0.00  0.00    +0.000 NA
ATOM     19  C   UNL     1      45.166   6.695  12.484  0.00  0.00    +0.000 A 
BRANCH  17  20
ATOM     20  C   UNL     1      48.712   7.089  13.037  0.00  0.00    +0.000 C 
ATOM     21  N   UNL     1      49.769   7.566  12.965  0.00  0.00    +0.000 NA
ENDBRANCH  17  20
ENDBRANCH  12  14
ENDBRANCH   1  12
TORSDOF 6
ENDMDL
MODEL 4
REMARK VINA RESULT:    -7.074      1.602      2.023
REMARK INTER + INTRA:         -10.139
REMARK INTER:                  -9.525
REMARK INTRA:                  -0.614
REMARK UNBOUND:                -0.584
REMARK  Name = 
REMARK  6 active torsions:
REMARK  status: ('A' for Active; 'I' for Inactive)
REMARK    1  A    between atoms: C_2  and  C_3
REMARK    2  A    between atoms: C_7  and  C_8
REMARK    3  A    between atoms: C_8  and  C_10
REMARK    4  A    between atoms: C_10  and  N_11
REMARK    5  A    between atoms: N_11  and  C_12
REMARK    6  A    between atoms: C_15  and  C_16
REMARK                            x       y       z     vdW  Elec       q    Type
REMARK                         _______ _______ _______ _____ _____    ______ ____
ROOT
ATOM      1  C   UNL     1      44.027   3.219  11.858  0.00  0.00    +0.000 C 
ENDROOT
BRANCH   1   2
ATOM      2  C   UNL     1      43.825   4.355  12.878  0.00  0.00    +0.000 C 
ATOM      3  F   UNL     1      42.497   4.693  12.873  0.00  0.00    +0.000 F 
BRANCH   2   8
ATOM      4  C   UNL     1      46.871   6.656  12.694  0.00  0.00    +0.000 A 
ATOM      5  C   UNL     1      46.368   7.731  11.958  0.00  0.00    +0.000 A 
ATOM      6  C   UNL     1      45.041   7.721  11.527  0.00  0.00    +0.000 A 
ATOM      7  C   UNL     1      44.213   6.636  11.825  0.00  0.00    +0.000 A 
ATOM      8  C   UNL     1      44.709   5.542  12.551  0.00  0.00    +0.000 A 
ATOM      9  C   UNL     1      46.043   5.567  12.990  0.00  0.00    +0.000 A 
BRANCH   4  11
ATOM     10  N   UNL     1      49.330   6.672  13.516  0.00  0.00    +0.000 NA
ATOM     11  C   UNL     1      48.231   6.666  13.144  0.00  0.00    +0.000 C 
ENDBRANCH   4  11
ENDBRANCH   2   8
ENDBRANCH   1   2
BRANCH   1  12
ATOM     12  N   UNL     1      43.725   3.663  10.484  0.00  0.00    +0.000 N 
ATOM     13  H   UNL     1      43.492   4.659  10.467  0.00  0.00    +0.000 HD
BRANCH  12  14
ATOM     14  C   UNL     1      44.644   3.325   9.481  0.00  0.00    +0.000 A 
ATOM     15  C   UNL     1      45.348   4.276   8.738  0.00  0.00    +0.000 A 
ATOM     16  C   UNL     1      46.306   3.887   7.801  0.00  0.00    +0.000 A 
ATOM     17  C   UNL     1      46.568   2.536   7.642  0.00  0.00    +0.000 A 
ATOM     18  N   UNL     1      45.949   1.574   8.366  0.00  0.00    +0.000 NA
ATOM     19  C   UNL     1      45.025   1.995   9.270  0.00  0.00    +0.000 A 
BRANCH  17  20
ATOM     20  C   UNL     1      47.546   2.095   6.687  0.00  0.00    +0.000 C 
ATOM     21  N   UNL     1      48.296   1.695   5.895  0.00  0.00    +0.000 NA
ENDBRANCH  17  20
ENDBRANCH  12  14
ENDBRANCH   1  12
TORSDOF 6
ENDMDL
MODEL 5
REMARK VINA RESULT:    -6.621      2.140      2.672
REMARK INTER + INTRA:          -9.528
REMARK INTER:                  -9.072
REMARK INTRA:                  -0.455
REMARK UNBOUND:                -0.584
REMARK  Name = 
REMARK  6 active torsions:
REMARK  status: ('A' for Active; 'I' for Inactive)
REMARK    1  A    between atoms: C_2  and  C_3
REMARK    2  A    between atoms: C_7  and  C_8
REMARK    3  A    between atoms: C_8  and  C_10
REMARK    4  A    between atoms: C_10  and  N_11
REMARK    5  A    between atoms: N_11  and  C_12
REMARK    6  A    between atoms: C_15  and  C_16
REMARK                            x       y       z     vdW  Elec       q    Type
REMARK                         _______ _______ _______ _____ _____    ______ ____
ROOT
ATOM      1  C   UNL     1      43.762   5.041  11.695  0.00  0.00    +0.000 C 
ENDROOT
BRANCH   1   2
ATOM      2  C   UNL     1      45.255   4.978  12.067  0.00  0.00    +0.000 C 
ATOM      3  F   UNL     1      45.365   4.289  13.246  0.00  0.00    +0.000 F 
BRANCH   2   8
ATOM      4  C   UNL     1      47.770   7.855  11.981  0.00  0.00    +0.000 A 
ATOM      5  C   UNL     1      46.972   8.937  12.356  0.00  0.00    +0.000 A 
ATOM      6  C   UNL     1      45.622   8.741  12.647  0.00  0.00    +0.000 A 
ATOM      7  C   UNL     1      45.063   7.464  12.560  0.00  0.00    +0.000 A 
ATOM      8  C   UNL     1      45.848   6.369  12.170  0.00  0.00    +0.000 A 
ATOM      9  C   UNL     1      47.209   6.575  11.891  0.00  0.00    +0.000 A 
BRANCH   4  11
ATOM     10  N   UNL     1      50.281   8.213  11.441  0.00  0.00    +0.000 NA
ATOM     11  C   UNL     1      49.159   8.052  11.687  0.00  0.00    +0.000 C 
ENDBRANCH   4  11
ENDBRANCH   2   8
ENDBRANCH   1   2
BRANCH   1  12
ATOM     12  N   UNL     1      43.559   4.903  10.241  0.00  0.00    +0.000 N 
ATOM     13  H   UNL     1      43.414   5.817   9.805  0.00  0.00    +0.000 HD
BRANCH  12  14
ATOM     14  C   UNL     1      44.487   4.128   9.530  0.00  0.00    +0.000 A 
ATOM     15  C   UNL     1      44.496   2.732   9.560  0.00  0.00    +0.000 A 
ATOM     16  C   UNL     1      45.396   2.005   8.777  0.00  0.00    +0.000 A 
ATOM     17  C   UNL     1      46.261   2.697   7.946  0.00  0.00    +0.000 A 
ATOM     18  N   UNL     1      46.265   4.047   7.845  0.00  0.00    +0.000 NA
ATOM     19  C   UNL     1      45.372   4.717   8.621  0.00  0.00    +0.000 A 
BRANCH  17  20
ATOM     20  C   UNL     1      47.202   1.987   7.126  0.00  0.00    +0.000 C 
ATOM     21  N   UNL     1      47.940   1.358   6.485  0.00  0.00    +0.000 NA
ENDBRANCH  17  20
ENDBRANCH  12  14
ENDBRANCH   1  12
TORSDOF 6
ENDMDL
MODEL 6
REMARK VINA RESULT:    -6.401      1.883      2.520
REMARK INTER + INTRA:          -9.230
REMARK INTER:                  -8.638
REMARK INTRA:                  -0.593
REMARK UNBOUND:                -0.584
REMARK  Name = 
REMARK  6 active torsions:
REMARK  status: ('A' for Active; 'I' for Inactive)
REMARK    1  A    between atoms: C_2  and  C_3
REMARK    2  A    between atoms: C_7  and  C_8
REMARK    3  A    between atoms: C_8  and  C_10
REMARK    4  A    between atoms: C_10  and  N_11
REMARK    5  A    between atoms: N_11  and  C_12
REMARK    6  A    between atoms: C_15  and  C_16
REMARK                            x       y       z     vdW  Elec       q    Type
REMARK                         _______ _______ _______ _____ _____    ______ ____
ROOT
ATOM      1  C   UNL     1      43.736   5.426  11.523  0.00  0.00    +0.000 C 
ENDROOT
BRANCH   1   2
ATOM      2  C   UNL     1      44.721   6.554  11.882  0.00  0.00    +0.000 C 
ATOM      3  F   UNL     1      45.286   7.005  10.717  0.00  0.00    +0.000 F 
BRANCH   2   8
ATOM      4  C   UNL     1      47.896   6.399  14.005  0.00  0.00    +0.000 A 
ATOM      5  C   UNL     1      47.726   5.187  14.677  0.00  0.00    +0.000 A 
ATOM      6  C   UNL     1      46.591   4.411  14.440  0.00  0.00    +0.000 A 
ATOM      7  C   UNL     1      45.620   4.845  13.535  0.00  0.00    +0.000 A 
ATOM      8  C   UNL     1      45.769   6.067  12.864  0.00  0.00    +0.000 A 
ATOM      9  C   UNL     1      46.920   6.835  13.100  0.00  0.00    +0.000 A 
BRANCH   4  11
ATOM     10  N   UNL     1      50.010   7.836  14.440  0.00  0.00    +0.000 NA
ATOM     11  C   UNL     1      49.063   7.195  14.241  0.00  0.00    +0.000 C 
ENDBRANCH   4  11
ENDBRANCH   2   8
ENDBRANCH   1   2
BRANCH   1  12
ATOM     12  N   UNL     1      43.593   5.276  10.062  0.00  0.00    +0.000 N 
ATOM     13  H   UNL     1      43.750   6.168   9.588  0.00  0.00    +0.000 HD
BRANCH  12  14
ATOM     14  C   UNL     1      44.298   4.228   9.450  0.00  0.00    +0.000 A 
ATOM     15  C   UNL     1      45.249   4.432   8.448  0.00  0.00    +0.000 A 
ATOM     16  C   UNL     1      45.976   3.362   7.922  0.00  0.00    +0.000 A 
ATOM     17  C   UNL     1      45.756   2.096   8.437  0.00  0.00    +0.000 A 
ATOM     18  N   UNL     1      44.880   1.847   9.438  0.00  0.00    +0.000 NA
ATOM     19  C   UNL     1      44.195   2.916   9.925  0.00  0.00    +0.000 A 
BRANCH  17  20
ATOM     20  C   UNL     1      46.483   0.968   7.923  0.00  0.00    +0.000 C 
ATOM     21  N   UNL     1      47.016   0.027   7.497  0.00  0.00    +0.000 NA
ENDBRANCH  17  20
ENDBRANCH  12  14
ENDBRANCH   1  12
TORSDOF 6
ENDMDL
MODEL 7
REMARK VINA RESULT:    -5.885      2.183      6.432
REMARK INTER + INTRA:          -8.533
REMARK INTER:                  -7.684
REMARK INTRA:                  -0.849
REMARK UNBOUND:                -0.584
REMARK  Name = 
REMARK  6 active torsions:
REMARK  status: ('A' for Active; 'I' for Inactive)
REMARK    1  A    between atoms: C_2  and  C_3
REMARK    2  A    between atoms: C_7  and  C_8
REMARK    3  A    between atoms: C_8  and  C_10
REMARK    4  A    between atoms: C_10  and  N_11
REMARK    5  A    between atoms: N_11  and  C_12
REMARK    6  A    between atoms: C_15  and  C_16
REMARK                            x       y       z     vdW  Elec       q    Type
REMARK                         _______ _______ _______ _____ _____    ______ ____
ROOT
ATOM      1  C   UNL     1      46.018   7.474  12.632  0.00  0.00    +0.000 C 
ENDROOT
BRANCH   1   2
ATOM      2  C   UNL     1      45.153   7.124  11.406  0.00  0.00    +0.000 C 
ATOM      3  F   UNL     1      44.145   8.050  11.326  0.00  0.00    +0.000 F 
BRANCH   2   8
ATOM      4  C   UNL     1      44.469   3.447  10.619  0.00  0.00    +0.000 A 
ATOM      5  C   UNL     1      43.625   3.086  11.671  0.00  0.00    +0.000 A 
ATOM      6  C   UNL     1      43.266   4.031  12.633  0.00  0.00    +0.000 A 
ATOM      7  C   UNL     1      43.753   5.338  12.550  0.00  0.00    +0.000 A 
ATOM      8  C   UNL     1      44.613   5.711  11.507  0.00  0.00    +0.000 A 
ATOM      9  C   UNL     1      44.959   4.756  10.537  0.00  0.00    +0.000 A 
BRANCH   4  11
ATOM     10  N   UNL     1      45.133   1.695   8.827  0.00  0.00    +0.000 NA
ATOM     11  C   UNL     1      44.834   2.481   9.625  0.00  0.00    +0.000 C 
ENDBRANCH   4  11
ENDBRANCH   2   8
ENDBRANCH   1   2
BRANCH   1  12
ATOM     12  N   UNL     1      47.213   6.613  12.716  0.00  0.00    +0.000 N 
ATOM     13  H   UNL     1      48.044   7.113  12.391  0.00  0.00    +0.000 HD
BRANCH  12  14
ATOM     14  C   UNL     1      47.445   5.949  13.929  0.00  0.00    +0.000 A 
ATOM     15  C   UNL     1      46.860   4.722  14.251  0.00  0.00    +0.000 A 
ATOM     16  C   UNL     1      47.180   4.066  15.441  0.00  0.00    +0.000 A 
ATOM     17  C   UNL     1      48.115   4.643  16.284  0.00  0.00    +0.000 A 
ATOM     18  N   UNL     1      48.745   5.807  16.002  0.00  0.00    +0.000 NA
ATOM     19  C   UNL     1      48.408   6.412  14.833  0.00  0.00    +0.000 A 
BRANCH  17  20
ATOM     20  C   UNL     1      48.471   4.001  17.519  0.00  0.00    +0.000 C 
ATOM     21  N   UNL     1      48.808   3.456  18.488  0.00  0.00    +0.000 NA
ENDBRANCH  17  20
ENDBRANCH  12  14
ENDBRANCH   1  12
TORSDOF 6
ENDMDL
MODEL 8
REMARK VINA RESULT:    -5.835      1.960      6.640
REMARK INTER + INTRA:          -8.465
REMARK INTER:                  -7.942
REMARK INTRA:                  -0.523
REMARK UNBOUND:                -0.584
REMARK  Name = 
REMARK  6 active torsions:
REMARK  status: ('A' for Active; 'I' for Inactive)
REMARK    1  A    between atoms: C_2  and  C_3
REMARK    2  A    between atoms: C_7  and  C_8
REMARK    3  A    between atoms: C_8  and  C_10
REMARK    4  A    between atoms: C_10  and  N_11
REMARK    5  A    between atoms: N_11  and  C_12
REMARK    6  A    between atoms: C_15  and  C_16
REMARK                            x       y       z     vdW  Elec       q    Type
REMARK                         _______ _______ _______ _____ _____    ______ ____
ROOT
ATOM      1  C   UNL     1      45.958   6.950  11.824  0.00  0.00    +0.000 C 
ENDROOT
BRANCH   1   2
ATOM      2  C   UNL     1      44.545   6.357  11.674  0.00  0.00    +0.000 C 
ATOM      3  F   UNL     1      44.033   6.168  12.931  0.00  0.00    +0.000 F 
BRANCH   2   8
ATOM      4  C   UNL     1      45.268   3.837   8.892  0.00  0.00    +0.000 A 
ATOM      5  C   UNL     1      44.656   2.685   9.390  0.00  0.00    +0.000 A 
ATOM      6  C   UNL     1      43.999   2.720  10.621  0.00  0.00    +0.000 A 
ATOM      7  C   UNL     1      43.955   3.904  11.360  0.00  0.00    +0.000 A 
ATOM      8  C   UNL     1      44.579   5.066  10.881  0.00  0.00    +0.000 A 
ATOM      9  C   UNL     1      45.227   5.023   9.635  0.00  0.00    +0.000 A 
BRANCH   4  11
ATOM     10  N   UNL     1      46.487   3.785   6.604  0.00  0.00    +0.000 NA
ATOM     11  C   UNL     1      45.937   3.806   7.626  0.00  0.00    +0.000 C 
ENDBRANCH   4  11
ENDBRANCH   2   8
ENDBRANCH   1   2
BRANCH   1  12
ATOM     12  N   UNL     1      46.958   5.904  12.110  0.00  0.00    +0.000 N 
ATOM     13  H   UNL     1      47.807   6.052  11.559  0.00  0.00    +0.000 HD
BRANCH  12  14
ATOM     14  C   UNL     1      47.249   5.642  13.457  0.00  0.00    +0.000 A 
ATOM     15  C   UNL     1      46.736   4.543  14.149  0.00  0.00    +0.000 A 
ATOM     16  C   UNL     1      47.114   4.287  15.468  0.00  0.00    +0.000 A 
ATOM     17  C   UNL     1      48.035   5.129  16.069  0.00  0.00    +0.000 A 
ATOM     18  N   UNL     1      48.598   6.182  15.432  0.00  0.00    +0.000 NA
ATOM     19  C   UNL     1      48.205   6.396  14.147  0.00  0.00    +0.000 A 
BRANCH  17  20
ATOM     20  C   UNL     1      48.450   4.900  17.425  0.00  0.00    +0.000 C 
ATOM     21  N   UNL     1      48.727   4.695  18.534  0.00  0.00    +0.000 NA
ENDBRANCH  17  20
ENDBRANCH  12  14
ENDBRANCH   1  12
TORSDOF 6
ENDMDL
MODEL 9
REMARK VINA RESULT:    -5.790      2.727      6.074
REMARK INTER + INTRA:          -8.405
REMARK INTER:                  -7.856
REMARK INTRA:                  -0.549
REMARK UNBOUND:                -0.584
REMARK  Name = 
REMARK  6 active torsions:
REMARK  status: ('A' for Active; 'I' for Inactive)
REMARK    1  A    between atoms: C_2  and  C_3
REMARK    2  A    between atoms: C_7  and  C_8
REMARK    3  A    between atoms: C_8  and  C_10
REMARK    4  A    between atoms: C_10  and  N_11
REMARK    5  A    between atoms: N_11  and  C_12
REMARK    6  A    between atoms: C_15  and  C_16
REMARK                            x       y       z     vdW  Elec       q    Type
REMARK                         _______ _______ _______ _____ _____    ______ ____
ROOT
ATOM      1  C   UNL     1      44.721   5.576  12.662  0.00  0.00    +0.000 C 
ENDROOT
BRANCH   1   2
ATOM      2  C   UNL     1      44.412   5.825  11.173  0.00  0.00    +0.000 C 
ATOM      3  F   UNL     1      43.139   6.327  11.088  0.00  0.00    +0.000 F 
BRANCH   2   8
ATOM      4  C   UNL     1      45.425   3.407   8.392  0.00  0.00    +0.000 A 
ATOM      5  C   UNL     1      44.875   2.207   8.848  0.00  0.00    +0.000 A 
ATOM      6  C   UNL     1      44.167   2.176  10.050  0.00  0.00    +0.000 A 
ATOM      7  C   UNL     1      44.010   3.342  10.803  0.00  0.00    +0.000 A 
ATOM      8  C   UNL     1      44.570   4.552  10.365  0.00  0.00    +0.000 A 
ATOM      9  C   UNL     1      45.270   4.575   9.148  0.00  0.00    +0.000 A 
BRANCH   4  11
ATOM     10  N   UNL     1      46.736   3.467   6.156  0.00  0.00    +0.000 NA
ATOM     11  C   UNL     1      46.147   3.443   7.155  0.00  0.00    +0.000 C 
ENDBRANCH   4  11
ENDBRANCH   2   8
ENDBRANCH   1   2
BRANCH   1  12
ATOM     12  N   UNL     1      45.367   6.746  13.285  0.00  0.00    +0.000 N 
ATOM     13  H   UNL     1      45.318   6.689  14.304  0.00  0.00    +0.000 HD
BRANCH  12  14
ATOM     14  C   UNL     1      46.655   7.082  12.843  0.00  0.00    +0.000 A 
ATOM     15  C   UNL     1      46.954   8.293  12.215  0.00  0.00    +0.000 A 
ATOM     16  C   UNL     1      48.266   8.611  11.860  0.00  0.00    +0.000 A 
ATOM     17  C   UNL     1      49.273   7.712  12.171  0.00  0.00    +0.000 A 
ATOM     18  N   UNL     1      49.046   6.544  12.817  0.00  0.00    +0.000 NA
ATOM     19  C   UNL     1      47.756   6.274  13.149  0.00  0.00    +0.000 A 
BRANCH  17  20
ATOM     20  C   UNL     1      50.636   8.000  11.821  0.00  0.00    +0.000 C 
ATOM     21  N   UNL     1      51.722   8.293  11.527  0.00  0.00    +0.000 NA
ENDBRANCH  17  20
ENDBRANCH  12  14
ENDBRANCH   1  12
TORSDOF 6
ENDMDL
