MODEL 1
REMARK VINA RESULT:    -7.588      0.000      0.000
REMARK INTER + INTRA:         -10.156
REMARK INTER:                  -9.584
REMARK INTRA:                  -0.572
REMARK UNBOUND:                -0.572
REMARK  Name = 
REMARK  5 active torsions:
REMARK  status: ('A' for Active; 'I' for Inactive)
REMARK    1  A    between atoms: N_1  and  C_2
REMARK    2  A    between atoms: C_2  and  C_3
REMARK    3  A    between atoms: C_3  and  C_4
REMARK    4  A    between atoms: C_7  and  C_8
REMARK    5  A    between atoms: C_8  and  N_9
REMARK                            x       y       z     vdW  Elec       q    Type
REMARK                         _______ _______ _______ _____ _____    ______ ____
ROOT
ATOM      1  C   UNL     1      45.986   2.634   8.267  0.00  0.00    +0.000 A 
ATOM      2  C   UNL     1      45.995   4.033   8.251  0.00  0.00    +0.000 A 
ATOM      3  C   UNL     1      45.155   4.768   9.093  0.00  0.00    +0.000 A 
ATOM      4  C   UNL     1      44.264   4.119   9.958  0.00  0.00    +0.000 A 
ATOM      5  C   UNL     1      44.240   2.717   9.965  0.00  0.00    +0.000 A 
ATOM      6  C   UNL     1      45.088   1.987   9.128  0.00  0.00    +0.000 A 
ENDROOT
BRANCH   1   7
ATOM      7  C   UNL     1      46.836   1.795   7.334  0.00  0.00    +0.000 C 
BRANCH   7   8
ATOM      8  C   UNL     1      48.007   2.531   6.667  0.00  0.00    +0.000 C 
BRANCH   8   9
ATOM      9  N   UNL     1      48.499   1.798   5.501  0.00  0.00    +0.000 NA
ATOM     10  H   UNL     1      48.692   2.457   4.747  0.00  0.00    +0.000 HD
ATOM     11  H   UNL     1      47.769   1.174   5.155  0.00  0.00    +0.000 HD
ENDBRANCH   8   9
ENDBRANCH   7   8
ENDBRANCH   1   7
BRANCH   4  12
ATOM     12  C   UNL     1      43.246   4.901  10.760  0.00  0.00    +0.000 C 
BRANCH  12  13
ATOM     13  N   UNL     1      43.939   5.843  11.630  0.00  0.00    +0.000 N 
ATOM     14  N   UNL     1      43.956   7.154  11.303  0.00  0.00    +0.000 NA
ATOM     15  N   UNL     1      45.094   7.657  11.762  0.00  0.00    +0.000 NA
ATOM     16  C   UNL     1      45.742   6.673  12.461  0.00  0.00    +0.000 A 
ATOM     17  C   UNL     1      47.011   6.651  13.053  0.00  0.00    +0.000 A 
ATOM     18  C   UNL     1      47.416   5.491  13.724  0.00  0.00    +0.000 A 
ATOM     19  C   UNL     1      46.561   4.389  13.831  0.00  0.00    +0.000 A 
ATOM     20  C   UNL     1      45.303   4.381  13.224  0.00  0.00    +0.000 A 
ATOM     21  C   UNL     1      44.947   5.535  12.514  0.00  0.00    +0.000 A 
ENDBRANCH  12  13
ENDBRANCH   4  12
TORSDOF 5
ENDMDL
MODEL 2
REMARK VINA RESULT:    -7.379      1.678      2.546
REMARK INTER + INTRA:          -9.892
REMARK INTER:                  -9.389
REMARK INTRA:                  -0.503
REMARK UNBOUND:                -0.572
REMARK  Name = 
REMARK  5 active torsions:
REMARK  status: ('A' for Active; 'I' for Inactive)
REMARK    1  A    between atoms: N_1  and  C_2
REMARK    2  A    between atoms: C_2  and  C_3
REMARK    3  A    between atoms: C_3  and  C_4
REMARK    4  A    between atoms: C_7  and  C_8
REMARK    5  A    between atoms: C_8  and  N_9
REMARK                            x       y       z     vdW  Elec       q    Type
REMARK                         _______ _______ _______ _____ _____    ______ ____
ROOT
ATOM      1  C   UNL     1      45.848   3.211   7.720  0.00  0.00    +0.000 A 
ATOM      2  C   UNL     1      45.284   2.344   8.663  0.00  0.00    +0.000 A 
ATOM      3  C   UNL     1      44.846   2.818   9.904  0.00  0.00    +0.000 A 
ATOM      4  C   UNL     1      44.983   4.171  10.242  0.00  0.00    +0.000 A 
ATOM      5  C   UNL     1      45.563   5.038   9.305  0.00  0.00    +0.000 A 
ATOM      6  C   UNL     1      45.991   4.563   8.063  0.00  0.00    +0.000 A 
ENDROOT
BRANCH   1   7
ATOM      7  C   UNL     1      46.387   2.736   6.386  0.00  0.00    +0.000 C 
BRANCH   7   8
ATOM      8  C   UNL     1      47.387   1.571   6.455  0.00  0.00    +0.000 C 
BRANCH   8   9
ATOM      9  N   UNL     1      48.596   1.865   5.687  0.00  0.00    +0.000 NA
ATOM     10  H   UNL     1      48.604   1.294   4.841  0.00  0.00    +0.000 HD
ATOM     11  H   UNL     1      49.419   1.589   6.224  0.00  0.00    +0.000 HD
ENDBRANCH   8   9
ENDBRANCH   7   8
ENDBRANCH   1   7
BRANCH   4  12
ATOM     12  C   UNL     1      44.655   4.664  11.635  0.00  0.00    +0.000 C 
BRANCH  12  13
ATOM     13  N   UNL     1      45.816   4.484  12.496  0.00  0.00    +0.000 N 
ATOM     14  N   UNL     1      45.807   3.498  13.420  0.00  0.00    +0.000 NA
ATOM     15  N   UNL     1      46.544   3.913  14.441  0.00  0.00    +0.000 NA
ATOM     16  C   UNL     1      47.091   5.124  14.107  0.00  0.00    +0.000 A 
ATOM     17  C   UNL     1      47.856   6.024  14.859  0.00  0.00    +0.000 A 
ATOM     18  C   UNL     1      48.297   7.202  14.244  0.00  0.00    +0.000 A 
ATOM     19  C   UNL     1      48.010   7.461  12.900  0.00  0.00    +0.000 A 
ATOM     20  C   UNL     1      47.226   6.588  12.141  0.00  0.00    +0.000 A 
ATOM     21  C   UNL     1      46.754   5.445  12.798  0.00  0.00    +0.000 A 
ENDBRANCH  12  13
ENDBRANCH   4  12
TORSDOF 5
ENDMDL
MODEL 3
REMARK VINA RESULT:    -6.749      2.449      6.166
REMARK INTER + INTRA:          -9.096
REMARK INTER:                  -8.981
REMARK INTRA:                  -0.115
REMARK UNBOUND:                -0.572
REMARK  Name = 
REMARK  5 active torsions:
REMARK  status: ('A' for Active; 'I' for Inactive)
REMARK    1  A    between atoms: N_1  and  C_2
REMARK    2  A    between atoms: C_2  and  C_3
REMARK    3  A    between atoms: C_3  and  C_4
REMARK    4  A    between atoms: C_7  and  C_8
REMARK    5  A    between atoms: C_8  and  N_9
REMARK                            x       y       z     vdW  Elec       q    Type
REMARK                         _______ _______ _______ _____ _____    ______ ____
ROOT
ATOM      1  C   UNL     1      46.424   5.119  13.020  0.00  0.00    +0.000 A 
ATOM      2  C   UNL     1      45.527   4.053  12.879  0.00  0.00    +0.000 A 
ATOM      3  C   UNL     1      44.870   3.821  11.666  0.00  0.00    +0.000 A 
ATOM      4  C   UNL     1      45.077   4.665  10.568  0.00  0.00    +0.000 A 
ATOM      5  C   UNL     1      45.961   5.744  10.711  0.00  0.00    +0.000 A 
ATOM      6  C   UNL     1      46.622   5.967  11.921  0.00  0.00    +0.000 A 
ENDROOT
BRANCH   1   7
ATOM      7  C   UNL     1      47.115   5.444  14.328  0.00  0.00    +0.000 C 
BRANCH   7   8
ATOM      8  C   UNL     1      47.059   4.342  15.396  0.00  0.00    +0.000 C 
BRANCH   8   9
ATOM      9  N   UNL     1      47.795   3.152  14.970  0.00  0.00    +0.000 NA
ATOM     10  H   UNL     1      48.792   3.364  14.947  0.00  0.00    +0.000 HD
ATOM     11  H   UNL     1      47.533   2.911  14.013  0.00  0.00    +0.000 HD
ENDBRANCH   8   9
ENDBRANCH   7   8
ENDBRANCH   1   7
BRANCH   4  12
ATOM     12  C   UNL     1      44.259   4.515   9.303  0.00  0.00    +0.000 C 
BRANCH  12  13
ATOM     13  N   UNL     1      44.567   3.234   8.681  0.00  0.00    +0.000 N 
ATOM     14  N   UNL     1      44.106   2.096   9.247  0.00  0.00    +0.000 NA
ATOM     15  N   UNL     1      44.986   1.141   8.978  0.00  0.00    +0.000 NA
ATOM     16  C   UNL     1      45.949   1.669   8.160  0.00  0.00    +0.000 A 
ATOM     17  C   UNL     1      47.142   1.120   7.673  0.00  0.00    +0.000 A 
ATOM     18  C   UNL     1      47.943   1.901   6.831  0.00  0.00    +0.000 A 
ATOM     19  C   UNL     1      47.546   3.189   6.455  0.00  0.00    +0.000 A 
ATOM     20  C   UNL     1      46.374   3.764   6.952  0.00  0.00    +0.000 A 
ATOM     21  C   UNL     1      45.621   2.980   7.834  0.00  0.00    +0.000 A 
ENDBRANCH  12  13
ENDBRANCH   4  12
TORSDOF 5
ENDMDL
MODEL 4
REMARK VINA RESULT:    -6.283      2.246      5.659
REMARK INTER + INTRA:          -8.508
REMARK INTER:                  -7.955
REMARK INTRA:                  -0.553
REMARK UNBOUND:                -0.572
REMARK  Name = 
REMARK  5 active torsions:
REMARK  status: ('A' for Active; 'I' for Inactive)
REMARK    1  A    between atoms: N_1  and  C_2
REMARK    2  A    between atoms: C_2  and  C_3
REMARK    3  A    between atoms: C_3  and  C_4
REMARK    4  A    between atoms: C_7  and  C_8
REMARK    5  A    between atoms: C_8  and  N_9
REMARK                            x       y       z     vdW  Elec       q    Type
REMARK                         _______ _______ _______ _____ _____    ______ ____
ROOT
ATOM      1  C   UNL     1      47.412   6.419  12.657  0.00  0.00    +0.000 A 
ATOM      2  C   UNL     1      46.738   7.256  11.761  0.00  0.00    +0.000 A 
ATOM      3  C   UNL     1      45.401   7.020  11.423  0.00  0.00    +0.000 A 
ATOM      4  C   UNL     1      44.711   5.924  11.957  0.00  0.00    +0.000 A 
ATOM      5  C   UNL     1      45.389   5.074  12.842  0.00  0.00    +0.000 A 
ATOM      6  C   UNL     1      46.722   5.318  13.184  0.00  0.00    +0.000 A 
ENDROOT
BRANCH   1   7
ATOM      7  C   UNL     1      48.875   6.600  13.010  0.00  0.00    +0.000 C 
BRANCH   7   8
ATOM      8  C   UNL     1      49.149   7.367  14.312  0.00  0.00    +0.000 C 
BRANCH   8   9
ATOM      9  N   UNL     1      50.210   6.728  15.090  0.00  0.00    +0.000 NA
ATOM     10  H   UNL     1      50.013   5.731  15.171  0.00  0.00    +0.000 HD
ATOM     11  H   UNL     1      50.208   7.097  16.042  0.00  0.00    +0.000 HD
ENDBRANCH   8   9
ENDBRANCH   7   8
ENDBRANCH   1   7
BRANCH   4  12
ATOM     12  C   UNL     1      43.318   5.573  11.482  0.00  0.00    +0.000 C 
BRANCH  12  13
ATOM     13  N   UNL     1      43.356   4.297  10.780  0.00  0.00    +0.000 N 
ATOM     14  N   UNL     1      42.919   3.183  11.410  0.00  0.00    +0.000 NA
ATOM     15  N   UNL     1      43.622   2.164  10.933  0.00  0.00    +0.000 NA
ATOM     16  C   UNL     1      44.432   2.636   9.935  0.00  0.00    +0.000 A 
ATOM     17  C   UNL     1      45.431   2.001   9.186  0.00  0.00    +0.000 A 
ATOM     18  C   UNL     1      46.103   2.740   8.205  0.00  0.00    +0.000 A 
ATOM     19  C   UNL     1      45.763   4.074   7.953  0.00  0.00    +0.000 A 
ATOM     20  C   UNL     1      44.789   4.732   8.707  0.00  0.00    +0.000 A 
ATOM     21  C   UNL     1      44.172   3.984   9.717  0.00  0.00    +0.000 A 
ENDBRANCH  12  13
ENDBRANCH   4  12
TORSDOF 5
ENDMDL
MODEL 5
REMARK VINA RESULT:    -6.281      2.136      6.015
REMARK INTER + INTRA:          -8.505
REMARK INTER:                  -8.484
REMARK INTRA:                  -0.021
REMARK UNBOUND:                -0.572
REMARK  Name = 
REMARK  5 active torsions:
REMARK  status: ('A' for Active; 'I' for Inactive)
REMARK    1  A    between atoms: N_1  and  C_2
REMARK    2  A    between atoms: C_2  and  C_3
REMARK    3  A    between atoms: C_3  and  C_4
REMARK    4  A    between atoms: C_7  and  C_8
REMARK    5  A    between atoms: C_8  and  N_9
REMARK                            x       y       z     vdW  Elec       q    Type
REMARK                         _______ _______ _______ _____ _____    ______ ____
ROOT
ATOM      1  C   UNL     1      46.894   5.195  14.096  0.00  0.00    +0.000 A 
ATOM      2  C   UNL     1      47.407   5.964  13.045  0.00  0.00    +0.000 A 
ATOM      3  C   UNL     1      46.627   6.261  11.923  0.00  0.00    +0.000 A 
ATOM      4  C   UNL     1      45.318   5.774  11.814  0.00  0.00    +0.000 A 
ATOM      5  C   UNL     1      44.807   4.988  12.857  0.00  0.00    +0.000 A 
ATOM      6  C   UNL     1      45.587   4.702  13.980  0.00  0.00    +0.000 A 
ENDROOT
BRANCH   1   7
ATOM      7  C   UNL     1      47.718   4.800  15.305  0.00  0.00    +0.000 C 
BRANCH   7   8
ATOM      8  C   UNL     1      47.457   3.388  15.850  0.00  0.00    +0.000 C 
BRANCH   8   9
ATOM      9  N   UNL     1      46.836   3.437  17.173  0.00  0.00    +0.000 NA
ATOM     10  H   UNL     1      45.831   3.576  17.068  0.00  0.00    +0.000 HD
ATOM     11  H   UNL     1      47.183   4.249  17.686  0.00  0.00    +0.000 HD
ENDBRANCH   8   9
ENDBRANCH   7   8
ENDBRANCH   1   7
BRANCH   4  12
ATOM     12  C   UNL     1      44.521   5.959  10.541  0.00  0.00    +0.000 C 
BRANCH  12  13
ATOM     13  N   UNL     1      44.209   4.654   9.973  0.00  0.00    +0.000 N 
ATOM     14  N   UNL     1      43.429   3.799  10.672  0.00  0.00    +0.000 NA
ATOM     15  N   UNL     1      43.817   2.571  10.357  0.00  0.00    +0.000 NA
ATOM     16  C   UNL     1      44.778   2.664   9.386  0.00  0.00    +0.000 A 
ATOM     17  C   UNL     1      45.576   1.681   8.786  0.00  0.00    +0.000 A 
ATOM     18  C   UNL     1      46.484   2.071   7.795  0.00  0.00    +0.000 A 
ATOM     19  C   UNL     1      46.571   3.406   7.386  0.00  0.00    +0.000 A 
ATOM     20  C   UNL     1      45.804   4.404   7.990  0.00  0.00    +0.000 A 
ATOM     21  C   UNL     1      44.943   3.993   9.016  0.00  0.00    +0.000 A 
ENDBRANCH  12  13
ENDBRANCH   4  12
TORSDOF 5
ENDMDL
MODEL 6
REMARK VINA RESULT:    -6.106      2.538      3.691
REMARK INTER + INTRA:          -8.285
REMARK INTER:                  -7.769
REMARK INTRA:                  -0.515
REMARK UNBOUND:                -0.572
REMARK  Name = 
REMARK  5 active torsions:
REMARK  status: ('A' for Active; 'I' for Inactive)
REMARK    1  A    between atoms: N_1  and  C_2
REMARK    2  A    between atoms: C_2  and  C_3
REMARK    3  A    between atoms: C_3  and  C_4
REMARK    4  A    between atoms: C_7  and  C_8
REMARK    5  A    between atoms: C_8  and  N_9
REMARK                            x       y       z     vdW  Elec       q    Type
REMARK                         _______ _______ _______ _____ _____    ______ ____
ROOT
ATOM      1  C   UNL     1      44.994   3.309   9.812  0.00  0.00    +0.000 A 
ATOM      2  C   UNL     1      44.859   2.986  11.167  0.00  0.00    +0.000 A 
ATOM      3  C   UNL     1      45.051   3.952  12.160  0.00  0.00    +0.000 A 
ATOM      4  C   UNL     1      45.407   5.264  11.821  0.00  0.00    +0.000 A 
ATOM      5  C   UNL     1      45.560   5.587  10.466  0.00  0.00    +0.000 A 
ATOM      6  C   UNL     1      45.359   4.621   9.476  0.00  0.00    +0.000 A 
ENDROOT
BRANCH   1   7
ATOM      7  C   UNL     1      44.851   2.285   8.704  0.00  0.00    +0.000 C 
BRANCH   7   8
ATOM      8  C   UNL     1      46.144   1.947   7.948  0.00  0.00    +0.000 C 
BRANCH   8   9
ATOM      9  N   UNL     1      46.438   0.515   8.014  0.00  0.00    +0.000 NA
ATOM     10  H   UNL     1      46.748   0.193   7.097  0.00  0.00    +0.000 HD
ATOM     11  H   UNL     1      45.583  -0.001   8.223  0.00  0.00    +0.000 HD
ENDBRANCH   8   9
ENDBRANCH   7   8
ENDBRANCH   1   7
BRANCH   4  12
ATOM     12  C   UNL     1      45.766   6.275  12.889  0.00  0.00    +0.000 C 
BRANCH  12  13
ATOM     13  N   UNL     1      47.178   6.143  13.223  0.00  0.00    +0.000 N 
ATOM     14  N   UNL     1      47.532   5.492  14.353  0.00  0.00    +0.000 NA
ATOM     15  N   UNL     1      48.658   6.043  14.786  0.00  0.00    +0.000 NA
ATOM     16  C   UNL     1      49.054   6.978  13.867  0.00  0.00    +0.000 A 
ATOM     17  C   UNL     1      50.107   7.901  13.892  0.00  0.00    +0.000 A 
ATOM     18  C   UNL     1      50.284   8.743  12.787  0.00  0.00    +0.000 A 
ATOM     19  C   UNL     1      49.451   8.644  11.668  0.00  0.00    +0.000 A 
ATOM     20  C   UNL     1      48.379   7.749  11.636  0.00  0.00    +0.000 A 
ATOM     21  C   UNL     1      48.193   6.957  12.776  0.00  0.00    +0.000 A 
ENDBRANCH  12  13
ENDBRANCH   4  12
TORSDOF 5
ENDMDL
MODEL 7
REMARK VINA RESULT:    -5.524      5.019      7.722
REMARK INTER + INTRA:          -7.550
REMARK INTER:                  -7.272
REMARK INTRA:                  -0.278
REMARK UNBOUND:                -0.572
REMARK  Name = 
REMARK  5 active torsions:
REMARK  status: ('A' for Active; 'I' for Inactive)
REMARK    1  A    between atoms: N_1  and  C_2
REMARK    2  A    between atoms: C_2  and  C_3
REMARK    3  A    between atoms: C_3  and  C_4
REMARK    4  A    between atoms: C_7  and  C_8
REMARK    5  A    between atoms: C_8  and  N_9
REMARK                            x       y       z     vdW  Elec       q    Type
REMARK                         _______ _______ _______ _____ _____    ______ ____
ROOT
ATOM      1  C   UNL     1      50.967   2.793  17.620  0.00  0.00    +0.000 A 
ATOM      2  C   UNL     1      50.596   4.131  17.794  0.00  0.00    +0.000 A 
ATOM      3  C   UNL     1      49.348   4.594  17.365  0.00  0.00    +0.000 A 
ATOM      4  C   UNL     1      48.446   3.732  16.727  0.00  0.00    +0.000 A 
ATOM      5  C   UNL     1      48.821   2.394  16.536  0.00  0.00    +0.000 A 
ATOM      6  C   UNL     1      50.065   1.934  16.974  0.00  0.00    +0.000 A 
ENDROOT
BRANCH   1   7
ATOM      7  C   UNL     1      52.328   2.258  18.016  0.00  0.00    +0.000 C 
BRANCH   7   8
ATOM      8  C   UNL     1      52.720   0.916  17.382  0.00  0.00    +0.000 C 
BRANCH   8   9
ATOM      9  N   UNL     1      52.646  -0.173  18.355  0.00  0.00    +0.000 NA
ATOM     10  H   UNL     1      52.482  -1.052  17.865  0.00  0.00    +0.000 HD
ATOM     11  H   UNL     1      51.841  -0.033  18.966  0.00  0.00    +0.000 HD
ENDBRANCH   8   9
ENDBRANCH   7   8
ENDBRANCH   1   7
BRANCH   4  12
ATOM     12  C   UNL     1      47.160   4.255  16.124  0.00  0.00    +0.000 C 
BRANCH  12  13
ATOM     13  N   UNL     1      47.434   4.788  14.796  0.00  0.00    +0.000 N 
ATOM     14  N   UNL     1      48.084   5.967  14.679  0.00  0.00    +0.000 NA
ATOM     15  N   UNL     1      47.644   6.547  13.570  0.00  0.00    +0.000 NA
ATOM     16  C   UNL     1      46.786   5.680  12.948  0.00  0.00    +0.000 A 
ATOM     17  C   UNL     1      45.982   5.840  11.812  0.00  0.00    +0.000 A 
ATOM     18  C   UNL     1      45.199   4.759  11.390  0.00  0.00    +0.000 A 
ATOM     19  C   UNL     1      45.242   3.535  12.065  0.00  0.00    +0.000 A 
ATOM     20  C   UNL     1      46.017   3.364  13.214  0.00  0.00    +0.000 A 
ATOM     21  C   UNL     1      46.747   4.478  13.644  0.00  0.00    +0.000 A 
ENDBRANCH  12  13
ENDBRANCH   4  12
TORSDOF 5
ENDMDL
MODEL 8
REMARK VINA RESULT:    -5.019      3.433      5.461
REMARK INTER + INTRA:          -6.911
REMARK INTER:                  -6.435
REMARK INTRA:                  -0.477
REMARK UNBOUND:                -0.572
REMARK  Name = 
REMARK  5 active torsions:
REMARK  status: ('A' for Active; 'I' for Inactive)
REMARK    1  A    between atoms: N_1  and  C_2
REMARK    2  A    between atoms: C_2  and  C_3
REMARK    3  A    between atoms: C_3  and  C_4
REMARK    4  A    between atoms: C_7  and  C_8
REMARK    5  A    between atoms: C_8  and  N_9
REMARK                            x       y       z     vdW  Elec       q    Type
REMARK                         _______ _______ _______ _____ _____    ______ ____
ROOT
ATOM      1  C   UNL     1      44.915   5.053  11.746  0.00  0.00    +0.000 A 
ATOM      2  C   UNL     1      45.373   4.631  13.000  0.00  0.00    +0.000 A 
ATOM      3  C   UNL     1      46.514   5.199  13.577  0.00  0.00    +0.000 A 
ATOM      4  C   UNL     1      47.240   6.188  12.901  0.00  0.00    +0.000 A 
ATOM      5  C   UNL     1      46.793   6.601  11.638  0.00  0.00    +0.000 A 
ATOM      6  C   UNL     1      45.648   6.038  11.069  0.00  0.00    +0.000 A 
ENDROOT
BRANCH   1   7
ATOM      7  C   UNL     1      43.718   4.430  11.056  0.00  0.00    +0.000 C 
BRANCH   7   8
ATOM      8  C   UNL     1      43.851   2.936  10.726  0.00  0.00    +0.000 C 
BRANCH   8   9
ATOM      9  N   UNL     1      43.057   2.118  11.642  0.00  0.00    +0.000 NA
ATOM     10  H   UNL     1      43.424   2.220  12.588  0.00  0.00    +0.000 HD
ATOM     11  H   UNL     1      43.161   1.132  11.400  0.00  0.00    +0.000 HD
ENDBRANCH   8   9
ENDBRANCH   7   8
ENDBRANCH   1   7
BRANCH   4  12
ATOM     12  C   UNL     1      48.557   6.698  13.446  0.00  0.00    +0.000 C 
BRANCH  12  13
ATOM     13  N   UNL     1      48.320   7.390  14.707  0.00  0.00    +0.000 N 
ATOM     14  N   UNL     1      48.129   8.728  14.700  0.00  0.00    +0.000 NA
ATOM     15  N   UNL     1      48.598   9.196  15.849  0.00  0.00    +0.000 NA
ATOM     16  C   UNL     1      48.995   8.130  16.612  0.00  0.00    +0.000 A 
ATOM     17  C   UNL     1      49.645   8.079  17.851  0.00  0.00    +0.000 A 
ATOM     18  C   UNL     1      49.923   6.825  18.410  0.00  0.00    +0.000 A 
ATOM     19  C   UNL     1      49.531   5.649  17.763  0.00  0.00    +0.000 A 
ATOM     20  C   UNL     1      48.906   5.678  16.514  0.00  0.00    +0.000 A 
ATOM     21  C   UNL     1      48.690   6.944  15.955  0.00  0.00    +0.000 A 
ENDBRANCH  12  13
ENDBRANCH   4  12
TORSDOF 5
ENDMDL
MODEL 9
REMARK VINA RESULT:    -4.657      3.164      5.229
REMARK INTER + INTRA:          -6.454
REMARK INTER:                  -6.056
REMARK INTRA:                  -0.398
REMARK UNBOUND:                -0.572
REMARK  Name = 
REMARK  5 active torsions:
REMARK  status: ('A' for Active; 'I' for Inactive)
REMARK    1  A    between atoms: N_1  and  C_2
REMARK    2  A    between atoms: C_2  and  C_3
REMARK    3  A    between atoms: C_3  and  C_4
REMARK    4  A    between atoms: C_7  and  C_8
REMARK    5  A    between atoms: C_8  and  N_9
REMARK                            x       y       z     vdW  Elec       q    Type
REMARK                         _______ _______ _______ _____ _____    ______ ____
ROOT
ATOM      1  C   UNL     1      44.902   4.958  11.483  0.00  0.00    +0.000 A 
ATOM      2  C   UNL     1      45.210   4.651  12.814  0.00  0.00    +0.000 A 
ATOM      3  C   UNL     1      46.289   5.261  13.461  0.00  0.00    +0.000 A 
ATOM      4  C   UNL     1      47.104   6.177  12.784  0.00  0.00    +0.000 A 
ATOM      5  C   UNL     1      46.809   6.474  11.446  0.00  0.00    +0.000 A 
ATOM      6  C   UNL     1      45.724   5.870  10.805  0.00  0.00    +0.000 A 
ENDROOT
BRANCH   1   7
ATOM      7  C   UNL     1      43.779   4.283  10.722  0.00  0.00    +0.000 C 
BRANCH   7   8
ATOM      8  C   UNL     1      44.212   3.449   9.507  0.00  0.00    +0.000 C 
BRANCH   8   9
ATOM      9  N   UNL     1      44.546   2.079   9.896  0.00  0.00    +0.000 NA
ATOM     10  H   UNL     1      45.457   2.073  10.354  0.00  0.00    +0.000 HD
ATOM     11  H   UNL     1      44.642   1.500   9.062  0.00  0.00    +0.000 HD
ENDBRANCH   8   9
ENDBRANCH   7   8
ENDBRANCH   1   7
BRANCH   4  12
ATOM     12  C   UNL     1      48.361   6.725  13.425  0.00  0.00    +0.000 C 
BRANCH  12  13
ATOM     13  N   UNL     1      48.360   8.179  13.322  0.00  0.00    +0.000 N 
ATOM     14  N   UNL     1      47.226   8.860  13.600  0.00  0.00    +0.000 NA
ATOM     15  N   UNL     1      47.229   9.949  12.844  0.00  0.00    +0.000 NA
ATOM     16  C   UNL     1      48.417   9.991  12.163  0.00  0.00    +0.000 A 
ATOM     17  C   UNL     1      48.875  10.866  11.170  0.00  0.00    +0.000 A 
ATOM     18  C   UNL     1      50.161  10.672  10.650  0.00  0.00    +0.000 A 
ATOM     19  C   UNL     1      50.983   9.649  11.133  0.00  0.00    +0.000 A 
ATOM     20  C   UNL     1      50.534   8.750  12.103  0.00  0.00    +0.000 A 
ATOM     21  C   UNL     1      49.226   8.935  12.566  0.00  0.00    +0.000 A 
ENDBRANCH  12  13
ENDBRANCH   4  12
TORSDOF 5
ENDMDL
