MODEL 1
REMARK VINA RESULT:    -7.727      0.000      0.000
REMARK INTER + INTRA:         -10.084
REMARK INTER:                  -9.534
REMARK INTRA:                  -0.551
REMARK UNBOUND:                -0.551
REMARK  Name = 
REMARK  6 active torsions:
REMARK  status: ('A' for Active; 'I' for Inactive)
REMARK    1  A    between atoms: C_1  and  C_2
REMARK    2  A    between atoms: C_2  and  C_3
REMARK    3  A    between atoms: C_6  and  C_7
REMARK    4  A    between atoms: C_7  and  N_8
REMARK    5  A    between atoms: N_8  and  C_9
REMARK    6  A    between atoms: C_12  and  C_13
REMARK                            x       y       z     vdW  Elec       q    Type
REMARK                         _______ _______ _______ _____ _____    ______ ____
ROOT
ATOM      1  N   UNL     1      43.994   3.232  10.322  0.00  0.00    +0.000 N 
ATOM      2  H   UNL     1      43.078   3.616  10.119  0.00  0.00    +0.000 HD
ENDROOT
BRANCH   1   3
ATOM      3  C   UNL     1      44.844   2.995   9.257  0.00  0.00    +0.000 A 
ATOM      4  C   UNL     1      45.201   4.002   8.351  0.00  0.00    +0.000 A 
ATOM      5  C   UNL     1      46.093   3.756   7.306  0.00  0.00    +0.000 A 
ATOM      6  C   UNL     1      46.645   2.488   7.141  0.00  0.00    +0.000 A 
ATOM      7  C   UNL     1      46.279   1.461   8.013  0.00  0.00    +0.000 A 
ATOM      8  C   UNL     1      45.381   1.718   9.059  0.00  0.00    +0.000 A 
BRANCH   6   9
ATOM      9  C   UNL     1      47.591   2.292   6.010  0.00  0.00    +0.000 C 
ATOM     10  N   UNL     1      47.456   3.108   4.917  0.00  0.00    +0.000 N 
ATOM     11  O   UNL     1      48.444   1.425   6.036  0.00  0.00    +0.000 OA
ATOM     12  H   UNL     1      46.757   3.823   4.815  0.00  0.00    +0.000 HD
ATOM     13  H   UNL     1      48.095   2.936   4.149  0.00  0.00    +0.000 HD
ENDBRANCH   6   9
ENDBRANCH   1   3
BRANCH   1  14
ATOM     14  C   UNL     1      44.500   3.415  11.673  0.00  0.00    +0.000 C 
BRANCH  14  20
ATOM     15  C   UNL     1      45.655   8.026  12.817  0.00  0.00    +0.000 C 
ATOM     16  C   UNL     1      46.192   6.739  12.161  0.00  0.00    +0.000 C 
ATOM     17  C   UNL     1      47.638   6.999  11.704  0.00  0.00    +0.000 C 
ATOM     18  C   UNL     1      45.337   6.373  10.927  0.00  0.00    +0.000 C 
ATOM     19  C   UNL     1      43.934   5.893  11.295  0.00  0.00    +0.000 C 
ATOM     20  C   UNL     1      43.956   4.717  12.285  0.00  0.00    +0.000 C 
ATOM     21  C   UNL     1      44.774   5.094  13.532  0.00  0.00    +0.000 C 
ATOM     22  C   UNL     1      46.184   5.580  13.184  0.00  0.00    +0.000 C 
ENDBRANCH  14  20
ENDBRANCH   1  14
TORSDOF 4
ENDMDL
MODEL 2
REMARK VINA RESULT:    -7.109      1.151      1.548
REMARK INTER + INTRA:          -9.322
REMARK INTER:                  -8.650
REMARK INTRA:                  -0.673
REMARK UNBOUND:                -0.551
REMARK  Name = 
REMARK  6 active torsions:
REMARK  status: ('A' for Active; 'I' for Inactive)
REMARK    1  A    between atoms: C_1  and  C_2
REMARK    2  A    between atoms: C_2  and  C_3
REMARK    3  A    between atoms: C_6  and  C_7
REMARK    4  A    between atoms: C_7  and  N_8
REMARK    5  A    between atoms: N_8  and  C_9
REMARK    6  A    between atoms: C_12  and  C_13
REMARK                            x       y       z     vdW  Elec       q    Type
REMARK                         _______ _______ _______ _____ _____    ______ ____
ROOT
ATOM      1  N   UNL     1      44.013   4.555  10.552  0.00  0.00    +0.000 N 
ATOM      2  H   UNL     1      43.105   4.162  10.772  0.00  0.00    +0.000 HD
ENDROOT
BRANCH   1   3
ATOM      3  C   UNL     1      44.796   3.889   9.627  0.00  0.00    +0.000 A 
ATOM      4  C   UNL     1      45.585   4.568   8.691  0.00  0.00    +0.000 A 
ATOM      5  C   UNL     1      46.401   3.879   7.792  0.00  0.00    +0.000 A 
ATOM      6  C   UNL     1      46.441   2.487   7.808  0.00  0.00    +0.000 A 
ATOM      7  C   UNL     1      45.638   1.788   8.711  0.00  0.00    +0.000 A 
ATOM      8  C   UNL     1      44.821   2.489   9.609  0.00  0.00    +0.000 A 
BRANCH   6   9
ATOM      9  C   UNL     1      47.333   1.814   6.827  0.00  0.00    +0.000 C 
ATOM     10  N   UNL     1      48.387   2.533   6.325  0.00  0.00    +0.000 N 
ATOM     11  O   UNL     1      47.129   0.673   6.459  0.00  0.00    +0.000 OA
ATOM     12  H   UNL     1      48.598   3.487   6.560  0.00  0.00    +0.000 HD
ATOM     13  H   UNL     1      48.963   2.060   5.638  0.00  0.00    +0.000 HD
ENDBRANCH   6   9
ENDBRANCH   1   3
BRANCH   1  14
ATOM     14  C   UNL     1      44.204   5.969  10.833  0.00  0.00    +0.000 C 
BRANCH  14  20
ATOM     15  C   UNL     1      47.699   7.262  13.997  0.00  0.00    +0.000 C 
ATOM     16  C   UNL     1      47.386   7.085  12.499  0.00  0.00    +0.000 C 
ATOM     17  C   UNL     1      48.652   7.437  11.698  0.00  0.00    +0.000 C 
ATOM     18  C   UNL     1      46.247   8.039  12.076  0.00  0.00    +0.000 C 
ATOM     19  C   UNL     1      44.891   7.642  12.657  0.00  0.00    +0.000 C 
ATOM     20  C   UNL     1      44.510   6.191  12.324  0.00  0.00    +0.000 C 
ATOM     21  C   UNL     1      45.626   5.236  12.780  0.00  0.00    +0.000 C 
ATOM     22  C   UNL     1      46.995   5.617  12.210  0.00  0.00    +0.000 C 
ENDBRANCH  14  20
ENDBRANCH   1  14
TORSDOF 4
ENDMDL
MODEL 3
REMARK VINA RESULT:    -6.327      3.135      6.695
REMARK INTER + INTRA:          -8.357
REMARK INTER:                  -7.832
REMARK INTRA:                  -0.525
REMARK UNBOUND:                -0.551
REMARK  Name = 
REMARK  6 active torsions:
REMARK  status: ('A' for Active; 'I' for Inactive)
REMARK    1  A    between atoms: C_1  and  C_2
REMARK    2  A    between atoms: C_2  and  C_3
REMARK    3  A    between atoms: C_6  and  C_7
REMARK    4  A    between atoms: C_7  and  N_8
REMARK    5  A    between atoms: N_8  and  C_9
REMARK    6  A    between atoms: C_12  and  C_13
REMARK                            x       y       z     vdW  Elec       q    Type
REMARK                         _______ _______ _______ _____ _____    ______ ____
ROOT
ATOM      1  N   UNL     1      44.695   4.087  11.297  0.00  0.00    +0.000 N 
ATOM      2  H   UNL     1      43.737   3.968  11.607  0.00  0.00    +0.000 HD
ENDROOT
BRANCH   1   3
ATOM      3  C   UNL     1      45.475   5.019  11.957  0.00  0.00    +0.000 A 
ATOM      4  C   UNL     1      46.085   4.744  13.188  0.00  0.00    +0.000 A 
ATOM      5  C   UNL     1      46.902   5.683  13.819  0.00  0.00    +0.000 A 
ATOM      6  C   UNL     1      47.124   6.926  13.231  0.00  0.00    +0.000 A 
ATOM      7  C   UNL     1      46.501   7.234  12.021  0.00  0.00    +0.000 A 
ATOM      8  C   UNL     1      45.680   6.284  11.395  0.00  0.00    +0.000 A 
BRANCH   6   9
ATOM      9  C   UNL     1      48.008   7.879  13.954  0.00  0.00    +0.000 C 
ATOM     10  N   UNL     1      47.412   8.868  14.691  0.00  0.00    +0.000 N 
ATOM     11  O   UNL     1      49.220   7.805  13.879  0.00  0.00    +0.000 OA
ATOM     12  H   UNL     1      46.420   9.008  14.773  0.00  0.00    +0.000 HD
ATOM     13  H   UNL     1      48.036   9.521  15.152  0.00  0.00    +0.000 HD
ENDBRANCH   6   9
ENDBRANCH   1   3
BRANCH   1  14
ATOM     14  C   UNL     1      45.289   2.984  10.558  0.00  0.00    +0.000 C 
BRANCH  14  20
ATOM     15  C   UNL     1      46.007   2.427   5.755  0.00  0.00    +0.000 C 
ATOM     16  C   UNL     1      46.729   2.581   7.107  0.00  0.00    +0.000 C 
ATOM     17  C   UNL     1      48.246   2.562   6.848  0.00  0.00    +0.000 C 
ATOM     18  C   UNL     1      46.369   1.403   8.041  0.00  0.00    +0.000 C 
ATOM     19  C   UNL     1      44.922   1.452   8.529  0.00  0.00    +0.000 C 
ATOM     20  C   UNL     1      44.576   2.786   9.210  0.00  0.00    +0.000 C 
ATOM     21  C   UNL     1      44.898   3.957   8.267  0.00  0.00    +0.000 C 
ATOM     22  C   UNL     1      46.343   3.926   7.764  0.00  0.00    +0.000 C 
ENDBRANCH  14  20
ENDBRANCH   1  14
TORSDOF 4
ENDMDL
MODEL 4
REMARK VINA RESULT:    -5.993      4.316      5.998
REMARK INTER + INTRA:          -7.945
REMARK INTER:                  -7.586
REMARK INTRA:                  -0.359
REMARK UNBOUND:                -0.551
REMARK  Name = 
REMARK  6 active torsions:
REMARK  status: ('A' for Active; 'I' for Inactive)
REMARK    1  A    between atoms: C_1  and  C_2
REMARK    2  A    between atoms: C_2  and  C_3
REMARK    3  A    between atoms: C_6  and  C_7
REMARK    4  A    between atoms: C_7  and  N_8
REMARK    5  A    between atoms: N_8  and  C_9
REMARK    6  A    between atoms: C_12  and  C_13
REMARK                            x       y       z     vdW  Elec       q    Type
REMARK                         _______ _______ _______ _____ _____    ______ ____
ROOT
ATOM      1  N   UNL     1      46.747   5.165  14.790  0.00  0.00    +0.000 N 
ATOM      2  H   UNL     1      46.988   6.082  15.149  0.00  0.00    +0.000 HD
ENDROOT
BRANCH   1   3
ATOM      3  C   UNL     1      46.378   5.071  13.461  0.00  0.00    +0.000 A 
ATOM      4  C   UNL     1      45.700   3.956  12.952  0.00  0.00    +0.000 A 
ATOM      5  C   UNL     1      45.299   3.896  11.617  0.00  0.00    +0.000 A 
ATOM      6  C   UNL     1      45.572   4.956  10.756  0.00  0.00    +0.000 A 
ATOM      7  C   UNL     1      46.275   6.064  11.233  0.00  0.00    +0.000 A 
ATOM      8  C   UNL     1      46.676   6.113  12.576  0.00  0.00    +0.000 A 
BRANCH   6   9
ATOM      9  C   UNL     1      45.114   4.832   9.346  0.00  0.00    +0.000 C 
ATOM     10  N   UNL     1      43.822   4.429   9.129  0.00  0.00    +0.000 N 
ATOM     11  O   UNL     1      45.860   5.055   8.412  0.00  0.00    +0.000 OA
ATOM     12  H   UNL     1      43.161   4.199   9.850  0.00  0.00    +0.000 HD
ATOM     13  H   UNL     1      43.544   4.325   8.160  0.00  0.00    +0.000 HD
ENDBRANCH   6   9
ENDBRANCH   1   3
BRANCH   1  14
ATOM     14  C   UNL     1      47.259   4.017  15.521  0.00  0.00    +0.000 C 
BRANCH  14  20
ATOM     15  C   UNL     1      50.098   4.629  19.454  0.00  0.00    +0.000 C 
ATOM     16  C   UNL     1      50.122   4.406  17.930  0.00  0.00    +0.000 C 
ATOM     17  C   UNL     1      51.591   4.341  17.476  0.00  0.00    +0.000 C 
ATOM     18  C   UNL     1      49.429   5.584  17.207  0.00  0.00    +0.000 C 
ATOM     19  C   UNL     1      47.917   5.610  17.427  0.00  0.00    +0.000 C 
ATOM     20  C   UNL     1      47.243   4.285  17.035  0.00  0.00    +0.000 C 
ATOM     21  C   UNL     1      47.906   3.116  17.784  0.00  0.00    +0.000 C 
ATOM     22  C   UNL     1      49.423   3.073  17.578  0.00  0.00    +0.000 C 
ENDBRANCH  14  20
ENDBRANCH   1  14
TORSDOF 4
ENDMDL
MODEL 5
REMARK VINA RESULT:    -5.732      5.537      8.457
REMARK INTER + INTRA:          -7.623
REMARK INTER:                  -7.177
REMARK INTRA:                  -0.446
REMARK UNBOUND:                -0.551
REMARK  Name = 
REMARK  6 active torsions:
REMARK  status: ('A' for Active; 'I' for Inactive)
REMARK    1  A    between atoms: C_1  and  C_2
REMARK    2  A    between atoms: C_2  and  C_3
REMARK    3  A    between atoms: C_6  and  C_7
REMARK    4  A    between atoms: C_7  and  N_8
REMARK    5  A    between atoms: N_8  and  C_9
REMARK    6  A    between atoms: C_12  and  C_13
REMARK                            x       y       z     vdW  Elec       q    Type
REMARK                         _______ _______ _______ _____ _____    ______ ____
ROOT
ATOM      1  N   UNL     1      47.147   3.590  14.629  0.00  0.00    +0.000 N 
ATOM      2  H   UNL     1      47.241   2.631  14.315  0.00  0.00    +0.000 HD
ENDROOT
BRANCH   1   3
ATOM      3  C   UNL     1      47.594   3.896  15.901  0.00  0.00    +0.000 A 
ATOM      4  C   UNL     1      47.596   2.955  16.938  0.00  0.00    +0.000 A 
ATOM      5  C   UNL     1      48.089   3.270  18.205  0.00  0.00    +0.000 A 
ATOM      6  C   UNL     1      48.590   4.543  18.465  0.00  0.00    +0.000 A 
ATOM      7  C   UNL     1      48.568   5.508  17.456  0.00  0.00    +0.000 A 
ATOM      8  C   UNL     1      48.069   5.181  16.187  0.00  0.00    +0.000 A 
BRANCH   6   9
ATOM      9  C   UNL     1      49.104   4.813  19.834  0.00  0.00    +0.000 C 
ATOM     10  N   UNL     1      48.624   4.041  20.859  0.00  0.00    +0.000 N 
ATOM     11  O   UNL     1      49.905   5.702  20.049  0.00  0.00    +0.000 OA
ATOM     12  H   UNL     1      47.940   3.311  20.760  0.00  0.00    +0.000 HD
ATOM     13  H   UNL     1      48.969   4.263  21.786  0.00  0.00    +0.000 HD
ENDBRANCH   6   9
ENDBRANCH   1   3
BRANCH   1  14
ATOM     14  C   UNL     1      47.019   4.610  13.601  0.00  0.00    +0.000 C 
BRANCH  14  20
ATOM     15  C   UNL     1      43.326   5.329  10.479  0.00  0.00    +0.000 C 
ATOM     16  C   UNL     1      44.771   4.805  10.592  0.00  0.00    +0.000 C 
ATOM     17  C   UNL     1      45.227   4.345   9.196  0.00  0.00    +0.000 C 
ATOM     18  C   UNL     1      44.827   3.599  11.557  0.00  0.00    +0.000 C 
ATOM     19  C   UNL     1      44.595   3.992  13.015  0.00  0.00    +0.000 C 
ATOM     20  C   UNL     1      45.561   5.089  13.489  0.00  0.00    +0.000 C 
ATOM     21  C   UNL     1      45.478   6.306  12.552  0.00  0.00    +0.000 C 
ATOM     22  C   UNL     1      45.706   5.933  11.085  0.00  0.00    +0.000 C 
ENDBRANCH  14  20
ENDBRANCH   1  14
TORSDOF 4
ENDMDL
MODEL 6
REMARK VINA RESULT:    -5.650      3.102      5.340
REMARK INTER + INTRA:          -7.522
REMARK INTER:                  -6.911
REMARK INTRA:                  -0.611
REMARK UNBOUND:                -0.551
REMARK  Name = 
REMARK  6 active torsions:
REMARK  status: ('A' for Active; 'I' for Inactive)
REMARK    1  A    between atoms: C_1  and  C_2
REMARK    2  A    between atoms: C_2  and  C_3
REMARK    3  A    between atoms: C_6  and  C_7
REMARK    4  A    between atoms: C_7  and  N_8
REMARK    5  A    between atoms: N_8  and  C_9
REMARK    6  A    between atoms: C_12  and  C_13
REMARK                            x       y       z     vdW  Elec       q    Type
REMARK                         _______ _______ _______ _____ _____    ______ ____
ROOT
ATOM      1  N   UNL     1      47.090   6.221  14.144  0.00  0.00    +0.000 N 
ATOM      2  H   UNL     1      46.931   5.915  15.097  0.00  0.00    +0.000 HD
ENDROOT
BRANCH   1   3
ATOM      3  C   UNL     1      46.379   5.592  13.139  0.00  0.00    +0.000 A 
ATOM      4  C   UNL     1      45.963   6.267  11.984  0.00  0.00    +0.000 A 
ATOM      5  C   UNL     1      45.282   5.605  10.961  0.00  0.00    +0.000 A 
ATOM      6  C   UNL     1      44.997   4.247  11.075  0.00  0.00    +0.000 A 
ATOM      7  C   UNL     1      45.374   3.561  12.231  0.00  0.00    +0.000 A 
ATOM      8  C   UNL     1      46.056   4.235  13.253  0.00  0.00    +0.000 A 
BRANCH   6   9
ATOM      9  C   UNL     1      44.272   3.601   9.948  0.00  0.00    +0.000 C 
ATOM     10  N   UNL     1      44.042   4.351   8.824  0.00  0.00    +0.000 N 
ATOM     11  O   UNL     1      43.873   2.455  10.022  0.00  0.00    +0.000 OA
ATOM     12  H   UNL     1      44.316   5.310   8.705  0.00  0.00    +0.000 HD
ATOM     13  H   UNL     1      43.523   3.896   8.082  0.00  0.00    +0.000 HD
ENDBRANCH   6   9
ENDBRANCH   1   3
BRANCH   1  14
ATOM     14  C   UNL     1      47.646   7.553  13.964  0.00  0.00    +0.000 C 
BRANCH  14  20
ATOM     15  C   UNL     1      51.418   9.580  11.607  0.00  0.00    +0.000 C 
ATOM     16  C   UNL     1      49.898   9.683  11.833  0.00  0.00    +0.000 C 
ATOM     17  C   UNL     1      49.364  10.857  10.995  0.00  0.00    +0.000 C 
ATOM     18  C   UNL     1      49.598   9.958  13.324  0.00  0.00    +0.000 C 
ATOM     19  C   UNL     1      49.899   8.760  14.223  0.00  0.00    +0.000 C 
ATOM     20  C   UNL     1      49.170   7.485  13.768  0.00  0.00    +0.000 C 
ATOM     21  C   UNL     1      49.498   7.188  12.295  0.00  0.00    +0.000 C 
ATOM     22  C   UNL     1      49.205   8.378  11.377  0.00  0.00    +0.000 C 
ENDBRANCH  14  20
ENDBRANCH   1  14
TORSDOF 4
ENDMDL
MODEL 7
REMARK VINA RESULT:    -5.626      2.376      4.346
REMARK INTER + INTRA:          -7.492
REMARK INTER:                  -6.829
REMARK INTRA:                  -0.663
REMARK UNBOUND:                -0.551
REMARK  Name = 
REMARK  6 active torsions:
REMARK  status: ('A' for Active; 'I' for Inactive)
REMARK    1  A    between atoms: C_1  and  C_2
REMARK    2  A    between atoms: C_2  and  C_3
REMARK    3  A    between atoms: C_6  and  C_7
REMARK    4  A    between atoms: C_7  and  N_8
REMARK    5  A    between atoms: N_8  and  C_9
REMARK    6  A    between atoms: C_12  and  C_13
REMARK                            x       y       z     vdW  Elec       q    Type
REMARK                         _______ _______ _______ _____ _____    ______ ____
ROOT
ATOM      1  N   UNL     1      44.977   7.280  12.624  0.00  0.00    +0.000 N 
ATOM      2  H   UNL     1      44.195   7.419  13.254  0.00  0.00    +0.000 HD
ENDROOT
BRANCH   1   3
ATOM      3  C   UNL     1      44.884   6.256  11.700  0.00  0.00    +0.000 A 
ATOM      4  C   UNL     1      45.737   6.172  10.592  0.00  0.00    +0.000 A 
ATOM      5  C   UNL     1      45.656   5.109   9.691  0.00  0.00    +0.000 A 
ATOM      6  C   UNL     1      44.711   4.103   9.879  0.00  0.00    +0.000 A 
ATOM      7  C   UNL     1      43.829   4.183  10.958  0.00  0.00    +0.000 A 
ATOM      8  C   UNL     1      43.918   5.256  11.856  0.00  0.00    +0.000 A 
BRANCH   6   9
ATOM      9  C   UNL     1      44.680   2.996   8.886  0.00  0.00    +0.000 C 
ATOM     10  N   UNL     1      44.519   1.720   9.358  0.00  0.00    +0.000 N 
ATOM     11  O   UNL     1      44.814   3.206   7.695  0.00  0.00    +0.000 OA
ATOM     12  H   UNL     1      44.432   1.470  10.327  0.00  0.00    +0.000 HD
ATOM     13  H   UNL     1      44.529   0.982   8.663  0.00  0.00    +0.000 HD
ENDBRANCH   6   9
ENDBRANCH   1   3
BRANCH   1  14
ATOM     14  C   UNL     1      45.867   8.411  12.421  0.00  0.00    +0.000 C 
BRANCH  14  20
ATOM     15  C   UNL     1      50.595   8.109  13.628  0.00  0.00    +0.000 C 
ATOM     16  C   UNL     1      49.608   8.026  12.447  0.00  0.00    +0.000 C 
ATOM     17  C   UNL     1      50.411   7.723  11.170  0.00  0.00    +0.000 C 
ATOM     18  C   UNL     1      48.876   9.375  12.267  0.00  0.00    +0.000 C 
ATOM     19  C   UNL     1      47.885   9.669  13.393  0.00  0.00    +0.000 C 
ATOM     20  C   UNL     1      46.862   8.538  13.586  0.00  0.00    +0.000 C 
ATOM     21  C   UNL     1      47.590   7.201  13.805  0.00  0.00    +0.000 C 
ATOM     22  C   UNL     1      48.590   6.888  12.688  0.00  0.00    +0.000 C 
ENDBRANCH  14  20
ENDBRANCH   1  14
TORSDOF 4
ENDMDL
MODEL 8
REMARK VINA RESULT:    -5.569      5.697      8.543
REMARK INTER + INTRA:          -7.421
REMARK INTER:                  -7.069
REMARK INTRA:                  -0.352
REMARK UNBOUND:                -0.551
REMARK  Name = 
REMARK  6 active torsions:
REMARK  status: ('A' for Active; 'I' for Inactive)
REMARK    1  A    between atoms: C_1  and  C_2
REMARK    2  A    between atoms: C_2  and  C_3
REMARK    3  A    between atoms: C_6  and  C_7
REMARK    4  A    between atoms: C_7  and  N_8
REMARK    5  A    between atoms: N_8  and  C_9
REMARK    6  A    between atoms: C_12  and  C_13
REMARK                            x       y       z     vdW  Elec       q    Type
REMARK                         _______ _______ _______ _____ _____    ______ ____
ROOT
ATOM      1  N   UNL     1      46.810   3.755  15.142  0.00  0.00    +0.000 N 
ATOM      2  H   UNL     1      46.869   2.832  14.728  0.00  0.00    +0.000 HD
ENDROOT
BRANCH   1   3
ATOM      3  C   UNL     1      47.605   4.019  16.242  0.00  0.00    +0.000 A 
ATOM      4  C   UNL     1      48.245   5.253  16.421  0.00  0.00    +0.000 A 
ATOM      5  C   UNL     1      49.010   5.516  17.558  0.00  0.00    +0.000 A 
ATOM      6  C   UNL     1      49.156   4.543  18.544  0.00  0.00    +0.000 A 
ATOM      7  C   UNL     1      48.555   3.295  18.371  0.00  0.00    +0.000 A 
ATOM      8  C   UNL     1      47.789   3.040  17.225  0.00  0.00    +0.000 A 
BRANCH   6   9
ATOM      9  C   UNL     1      49.982   4.889  19.732  0.00  0.00    +0.000 C 
ATOM     10  N   UNL     1      49.624   4.343  20.938  0.00  0.00    +0.000 N 
ATOM     11  O   UNL     1      50.929   5.647  19.650  0.00  0.00    +0.000 OA
ATOM     12  H   UNL     1      48.838   3.734  21.084  0.00  0.00    +0.000 HD
ATOM     13  H   UNL     1      50.186   4.616  21.736  0.00  0.00    +0.000 HD
ENDBRANCH   6   9
ENDBRANCH   1   3
BRANCH   1  14
ATOM     14  C   UNL     1      46.299   4.823  14.298  0.00  0.00    +0.000 C 
BRANCH  14  20
ATOM     15  C   UNL     1      43.825   4.574  10.089  0.00  0.00    +0.000 C 
ATOM     16  C   UNL     1      43.719   4.999  11.566  0.00  0.00    +0.000 C 
ATOM     17  C   UNL     1      42.299   5.537  11.812  0.00  0.00    +0.000 C 
ATOM     18  C   UNL     1      44.737   6.120  11.872  0.00  0.00    +0.000 C 
ATOM     19  C   UNL     1      46.185   5.630  11.862  0.00  0.00    +0.000 C 
ATOM     20  C   UNL     1      46.411   4.443  12.812  0.00  0.00    +0.000 C 
ATOM     21  C   UNL     1      45.424   3.310  12.482  0.00  0.00    +0.000 C 
ATOM     22  C   UNL     1      43.967   3.781  12.486  0.00  0.00    +0.000 C 
ENDBRANCH  14  20
ENDBRANCH   1  14
TORSDOF 4
ENDMDL
MODEL 9
REMARK VINA RESULT:    -5.529      3.867      6.236
REMARK INTER + INTRA:          -7.373
REMARK INTER:                  -6.809
REMARK INTRA:                  -0.564
REMARK UNBOUND:                -0.551
REMARK  Name = 
REMARK  6 active torsions:
REMARK  status: ('A' for Active; 'I' for Inactive)
REMARK    1  A    between atoms: C_1  and  C_2
REMARK    2  A    between atoms: C_2  and  C_3
REMARK    3  A    between atoms: C_6  and  C_7
REMARK    4  A    between atoms: C_7  and  N_8
REMARK    5  A    between atoms: N_8  and  C_9
REMARK    6  A    between atoms: C_12  and  C_13
REMARK                            x       y       z     vdW  Elec       q    Type
REMARK                         _______ _______ _______ _____ _____    ______ ____
ROOT
ATOM      1  N   UNL     1      45.937   7.482  13.121  0.00  0.00    +0.000 N 
ATOM      2  H   UNL     1      45.835   7.285  14.110  0.00  0.00    +0.000 HD
ENDROOT
BRANCH   1   3
ATOM      3  C   UNL     1      47.208   7.746  12.646  0.00  0.00    +0.000 A 
ATOM      4  C   UNL     1      47.555   8.985  12.091  0.00  0.00    +0.000 A 
ATOM      5  C   UNL     1      48.854   9.247  11.655  0.00  0.00    +0.000 A 
ATOM      6  C   UNL     1      49.839   8.268  11.759  0.00  0.00    +0.000 A 
ATOM      7  C   UNL     1      49.509   7.015  12.278  0.00  0.00    +0.000 A 
ATOM      8  C   UNL     1      48.200   6.761  12.713  0.00  0.00    +0.000 A 
BRANCH   6   9
ATOM      9  C   UNL     1      51.204   8.613  11.279  0.00  0.00    +0.000 C 
ATOM     10  N   UNL     1      52.131   7.606  11.216  0.00  0.00    +0.000 N 
ATOM     11  O   UNL     1      51.502   9.752  10.973  0.00  0.00    +0.000 OA
ATOM     12  H   UNL     1      51.964   6.651  11.480  0.00  0.00    +0.000 HD
ATOM     13  H   UNL     1      53.061   7.873  10.911  0.00  0.00    +0.000 HD
ENDBRANCH   6   9
ENDBRANCH   1   3
BRANCH   1  14
ATOM     14  C   UNL     1      44.879   7.010  12.243  0.00  0.00    +0.000 C 
BRANCH  14  20
ATOM     15  C   UNL     1      43.364   2.386  11.770  0.00  0.00    +0.000 C 
ATOM     16  C   UNL     1      44.215   3.486  11.108  0.00  0.00    +0.000 C 
ATOM     17  C   UNL     1      44.800   2.921   9.801  0.00  0.00    +0.000 C 
ATOM     18  C   UNL     1      45.379   3.893  12.040  0.00  0.00    +0.000 C 
ATOM     19  C   UNL     1      44.911   4.658  13.277  0.00  0.00    +0.000 C 
ATOM     20  C   UNL     1      44.067   5.893  12.921  0.00  0.00    +0.000 C 
ATOM     21  C   UNL     1      42.886   5.482  12.026  0.00  0.00    +0.000 C 
ATOM     22  C   UNL     1      43.333   4.713  10.780  0.00  0.00    +0.000 C 
ENDBRANCH  14  20
ENDBRANCH   1  14
TORSDOF 4
ENDMDL
