MODEL 1
REMARK VINA RESULT:    -8.881      0.000      0.000
REMARK INTER + INTRA:         -13.044
REMARK INTER:                 -12.516
REMARK INTRA:                  -0.529
REMARK UNBOUND:                -0.529
REMARK  Name = 
REMARK  7 active torsions:
REMARK  status: ('A' for Active; 'I' for Inactive)
REMARK    1  A    between atoms: C_2  and  C_4
REMARK    2  A    between atoms: C_7  and  N_8
REMARK    3  A    between atoms: N_8  and  C_9
REMARK    4  A    between atoms: C_9  and  C_10
REMARK    5  A    between atoms: C_14  and  C_15
REMARK    6  A    between atoms: C_19  and  O_20
REMARK    7  A    between atoms: O_20  and  C_21
REMARK                            x       y       z     vdW  Elec       q    Type
REMARK                         _______ _______ _______ _____ _____    ______ ____
ROOT
ATOM      1  C   UNL     1      43.940   5.021  11.246  0.00  0.00    +0.000 C 
ATOM      2  C   UNL     1      43.124   4.081  12.131  0.00  0.00    +0.000 C 
ATOM      3  C   UNL     1      42.750   5.520  12.054  0.00  0.00    +0.000 C 
ENDROOT
BRANCH   1   4
ATOM      4  C   UNL     1      45.316   5.457  11.753  0.00  0.00    +0.000 A 
ATOM      5  C   UNL     1      46.029   6.496  11.134  0.00  0.00    +0.000 A 
ATOM      6  C   UNL     1      47.189   7.015  11.706  0.00  0.00    +0.000 A 
ATOM      7  C   UNL     1      47.654   6.512  12.920  0.00  0.00    +0.000 A 
ATOM      8  C   UNL     1      46.995   5.454  13.565  0.00  0.00    +0.000 A 
ATOM      9  C   UNL     1      45.862   4.913  12.932  0.00  0.00    +0.000 A 
BRANCH   8  10
ATOM     10  C   UNL     1      47.396   4.993  14.907  0.00  0.00    +0.000 A 
ATOM     11  C   UNL     1      47.070   3.708  15.355  0.00  0.00    +0.000 A 
ATOM     12  N   UNL     1      47.423   3.190  16.554  0.00  0.00    +0.000 NA
ATOM     13  C   UNL     1      48.161   3.986  17.355  0.00  0.00    +0.000 A 
ATOM     14  C   UNL     1      48.584   5.264  17.012  0.00  0.00    +0.000 A 
ATOM     15  C   UNL     1      48.173   5.776  15.780  0.00  0.00    +0.000 A 
BRANCH  14  16
ATOM     16  O   UNL     1      49.343   5.913  17.940  0.00  0.00    +0.000 OA
BRANCH  16  17
ATOM     17  C   UNL     1      48.699   6.187  19.173  0.00  0.00    +0.000 C 
ATOM     18  F   UNL     1      49.507   6.975  19.921  0.00  0.00    +0.000 F 
ATOM     19  F   UNL     1      47.590   6.916  18.892  0.00  0.00    +0.000 F 
ENDBRANCH  16  17
ENDBRANCH  14  16
ENDBRANCH   8  10
ENDBRANCH   1   4
BRANCH   1  20
ATOM     20  N   UNL     1      43.855   4.781   9.796  0.00  0.00    +0.000 N 
ATOM     21  H   UNL     1      42.929   4.633   9.398  0.00  0.00    +0.000 HD
BRANCH  20  25
ATOM     22  C   UNL     1      46.475   2.345   7.778  0.00  0.00    +0.000 A 
ATOM     23  C   UNL     1      46.434   3.713   7.558  0.00  0.00    +0.000 A 
ATOM     24  N   UNL     1      45.568   4.531   8.220  0.00  0.00    +0.000 NA
ATOM     25  C   UNL     1      44.738   3.939   9.109  0.00  0.00    +0.000 A 
ATOM     26  C   UNL     1      44.819   2.562   9.327  0.00  0.00    +0.000 A 
ATOM     27  N   UNL     1      45.664   1.728   8.672  0.00  0.00    +0.000 NA
BRANCH  22  29
ATOM     28  N   UNL     1      48.501   2.113   6.493  0.00  0.00    +0.000 N 
ATOM     29  C   UNL     1      47.401   1.479   7.009  0.00  0.00    +0.000 C 
ATOM     30  O   UNL     1      47.202   0.283   6.848  0.00  0.00    +0.000 OA
ATOM     31  H   UNL     1      49.184   1.589   5.964  0.00  0.00    +0.000 HD
ATOM     32  H   UNL     1      48.629   3.107   6.651  0.00  0.00    +0.000 HD
ENDBRANCH  22  29
ENDBRANCH  20  25
ENDBRANCH   1  20
TORSDOF 7
ENDMDL
MODEL 2
REMARK VINA RESULT:    -8.530      3.649      4.776
REMARK INTER + INTRA:         -12.550
REMARK INTER:                 -11.420
REMARK INTRA:                  -1.130
REMARK UNBOUND:                -0.529
REMARK  Name = 
REMARK  7 active torsions:
REMARK  status: ('A' for Active; 'I' for Inactive)
REMARK    1  A    between atoms: C_2  and  C_4
REMARK    2  A    between atoms: C_7  and  N_8
REMARK    3  A    between atoms: N_8  and  C_9
REMARK    4  A    between atoms: C_9  and  C_10
REMARK    5  A    between atoms: C_14  and  C_15
REMARK    6  A    between atoms: C_19  and  O_20
REMARK    7  A    between atoms: O_20  and  C_21
REMARK                            x       y       z     vdW  Elec       q    Type
REMARK                         _______ _______ _______ _____ _____    ______ ____
ROOT
ATOM      1  C   UNL     1      43.770   4.896  11.416  0.00  0.00    +0.000 C 
ATOM      2  C   UNL     1      42.436   5.311  12.035  0.00  0.00    +0.000 C 
ATOM      3  C   UNL     1      43.027   6.140  10.950  0.00  0.00    +0.000 C 
ENDROOT
BRANCH   1   4
ATOM      4  C   UNL     1      45.039   5.145  12.232  0.00  0.00    +0.000 A 
ATOM      5  C   UNL     1      45.604   4.141  13.034  0.00  0.00    +0.000 A 
ATOM      6  C   UNL     1      46.855   4.308  13.625  0.00  0.00    +0.000 A 
ATOM      7  C   UNL     1      47.576   5.482  13.412  0.00  0.00    +0.000 A 
ATOM      8  C   UNL     1      47.044   6.528  12.642  0.00  0.00    +0.000 A 
ATOM      9  C   UNL     1      45.755   6.353  12.111  0.00  0.00    +0.000 A 
BRANCH   8  10
ATOM     10  C   UNL     1      47.840   7.723  12.303  0.00  0.00    +0.000 A 
ATOM     11  C   UNL     1      47.387   9.006  12.628  0.00  0.00    +0.000 A 
ATOM     12  N   UNL     1      48.061  10.153  12.386  0.00  0.00    +0.000 NA
ATOM     13  C   UNL     1      49.270  10.023  11.801  0.00  0.00    +0.000 A 
ATOM     14  C   UNL     1      49.850   8.806  11.465  0.00  0.00    +0.000 A 
ATOM     15  C   UNL     1      49.109   7.647  11.702  0.00  0.00    +0.000 A 
BRANCH  14  16
ATOM     16  O   UNL     1      51.089   8.868  10.902  0.00  0.00    +0.000 OA
BRANCH  16  17
ATOM     17  C   UNL     1      51.758   7.627  10.758  0.00  0.00    +0.000 C 
ATOM     18  F   UNL     1      51.985   7.404   9.441  0.00  0.00    +0.000 F 
ATOM     19  F   UNL     1      52.972   7.754  11.350  0.00  0.00    +0.000 F 
ENDBRANCH  16  17
ENDBRANCH  14  16
ENDBRANCH   8  10
ENDBRANCH   1   4
BRANCH   1  20
ATOM     20  N   UNL     1      43.761   3.644  10.641  0.00  0.00    +0.000 N 
ATOM     21  H   UNL     1      43.621   2.775  11.154  0.00  0.00    +0.000 HD
BRANCH  20  25
ATOM     22  C   UNL     1      46.427   2.813   7.629  0.00  0.00    +0.000 A 
ATOM     23  C   UNL     1      45.867   1.810   8.405  0.00  0.00    +0.000 A 
ATOM     24  N   UNL     1      44.983   2.073   9.408  0.00  0.00    +0.000 NA
ATOM     25  C   UNL     1      44.676   3.374   9.616  0.00  0.00    +0.000 A 
ATOM     26  C   UNL     1      45.237   4.362   8.803  0.00  0.00    +0.000 A 
ATOM     27  N   UNL     1      46.127   4.123   7.808  0.00  0.00    +0.000 NA
BRANCH  22  29
ATOM     28  N   UNL     1      47.283   3.209   5.411  0.00  0.00    +0.000 N 
ATOM     29  C   UNL     1      47.418   2.494   6.573  0.00  0.00    +0.000 C 
ATOM     30  O   UNL     1      48.296   1.657   6.726  0.00  0.00    +0.000 OA
ATOM     31  H   UNL     1      47.927   3.055   4.647  0.00  0.00    +0.000 HD
ATOM     32  H   UNL     1      46.542   3.895   5.325  0.00  0.00    +0.000 HD
ENDBRANCH  22  29
ENDBRANCH  20  25
ENDBRANCH   1  20
TORSDOF 7
ENDMDL
MODEL 3
REMARK VINA RESULT:    -8.074      4.099      8.778
REMARK INTER + INTRA:         -11.907
REMARK INTER:                 -10.834
REMARK INTRA:                  -1.072
REMARK UNBOUND:                -0.529
REMARK  Name = 
REMARK  7 active torsions:
REMARK  status: ('A' for Active; 'I' for Inactive)
REMARK    1  A    between atoms: C_2  and  C_4
REMARK    2  A    between atoms: C_7  and  N_8
REMARK    3  A    between atoms: N_8  and  C_9
REMARK    4  A    between atoms: C_9  and  C_10
REMARK    5  A    between atoms: C_14  and  C_15
REMARK    6  A    between atoms: C_19  and  O_20
REMARK    7  A    between atoms: O_20  and  C_21
REMARK                            x       y       z     vdW  Elec       q    Type
REMARK                         _______ _______ _______ _____ _____    ______ ____
ROOT
ATOM      1  C   UNL     1      48.660   8.073  12.640  0.00  0.00    +0.000 C 
ATOM      2  C   UNL     1      49.470   8.803  11.571  0.00  0.00    +0.000 C 
ATOM      3  C   UNL     1      49.028   9.543  12.784  0.00  0.00    +0.000 C 
ENDROOT
BRANCH   1   4
ATOM      4  C   UNL     1      47.188   7.782  12.340  0.00  0.00    +0.000 A 
ATOM      5  C   UNL     1      46.198   8.763  12.507  0.00  0.00    +0.000 A 
ATOM      6  C   UNL     1      44.895   8.559  12.058  0.00  0.00    +0.000 A 
ATOM      7  C   UNL     1      44.557   7.368  11.417  0.00  0.00    +0.000 A 
ATOM      8  C   UNL     1      45.502   6.343  11.250  0.00  0.00    +0.000 A 
ATOM      9  C   UNL     1      46.791   6.558  11.768  0.00  0.00    +0.000 A 
BRANCH   8  10
ATOM     10  C   UNL     1      45.201   5.131  10.465  0.00  0.00    +0.000 A 
ATOM     11  C   UNL     1      44.468   4.077  11.021  0.00  0.00    +0.000 A 
ATOM     12  N   UNL     1      44.117   2.945  10.370  0.00  0.00    +0.000 NA
ATOM     13  C   UNL     1      44.501   2.856   9.079  0.00  0.00    +0.000 A 
ATOM     14  C   UNL     1      45.196   3.848   8.399  0.00  0.00    +0.000 A 
ATOM     15  C   UNL     1      45.567   4.988   9.114  0.00  0.00    +0.000 A 
BRANCH  14  16
ATOM     16  O   UNL     1      45.478   3.592   7.090  0.00  0.00    +0.000 OA
BRANCH  16  17
ATOM     17  C   UNL     1      46.852   3.441   6.779  0.00  0.00    +0.000 C 
ATOM     18  F   UNL     1      47.349   2.403   7.494  0.00  0.00    +0.000 F 
ATOM     19  F   UNL     1      46.931   3.090   5.471  0.00  0.00    +0.000 F 
ENDBRANCH  16  17
ENDBRANCH  14  16
ENDBRANCH   8  10
ENDBRANCH   1   4
BRANCH   1  20
ATOM     20  N   UNL     1      49.368   7.014  13.379  0.00  0.00    +0.000 N 
ATOM     21  H   UNL     1      49.604   6.164  12.869  0.00  0.00    +0.000 HD
BRANCH  20  25
ATOM     22  C   UNL     1      48.359   5.849  17.185  0.00  0.00    +0.000 A 
ATOM     23  C   UNL     1      47.954   5.131  16.071  0.00  0.00    +0.000 A 
ATOM     24  N   UNL     1      48.281   5.508  14.803  0.00  0.00    +0.000 NA
ATOM     25  C   UNL     1      49.024   6.632  14.681  0.00  0.00    +0.000 A 
ATOM     26  C   UNL     1      49.438   7.321  15.823  0.00  0.00    +0.000 A 
ATOM     27  N   UNL     1      49.115   6.970  17.092  0.00  0.00    +0.000 NA
BRANCH  22  29
ATOM     28  N   UNL     1      46.606   5.518  18.806  0.00  0.00    +0.000 N 
ATOM     29  C   UNL     1      47.949   5.433  18.549  0.00  0.00    +0.000 C 
ATOM     30  O   UNL     1      48.750   5.039  19.384  0.00  0.00    +0.000 OA
ATOM     31  H   UNL     1      46.247   5.244  19.711  0.00  0.00    +0.000 HD
ATOM     32  H   UNL     1      45.975   5.850  18.085  0.00  0.00    +0.000 HD
ENDBRANCH  22  29
ENDBRANCH  20  25
ENDBRANCH   1  20
TORSDOF 7
ENDMDL
MODEL 4
REMARK VINA RESULT:    -6.925      3.265      4.823
REMARK INTER + INTRA:         -10.288
REMARK INTER:                  -9.270
REMARK INTRA:                  -1.018
REMARK UNBOUND:                -0.529
REMARK  Name = 
REMARK  7 active torsions:
REMARK  status: ('A' for Active; 'I' for Inactive)
REMARK    1  A    between atoms: C_2  and  C_4
REMARK    2  A    between atoms: C_7  and  N_8
REMARK    3  A    between atoms: N_8  and  C_9
REMARK    4  A    between atoms: C_9  and  C_10
REMARK    5  A    between atoms: C_14  and  C_15
REMARK    6  A    between atoms: C_19  and  O_20
REMARK    7  A    between atoms: O_20  and  C_21
REMARK                            x       y       z     vdW  Elec       q    Type
REMARK                         _______ _______ _______ _____ _____    ______ ____
ROOT
ATOM      1  C   UNL     1      47.935   7.681  13.034  0.00  0.00    +0.000 C 
ATOM      2  C   UNL     1      48.740   8.273  11.879  0.00  0.00    +0.000 C 
ATOM      3  C   UNL     1      48.938   6.846  12.250  0.00  0.00    +0.000 C 
ENDROOT
BRANCH   1   4
ATOM      4  C   UNL     1      48.351   8.059  14.456  0.00  0.00    +0.000 A 
ATOM      5  C   UNL     1      48.364   9.395  14.886  0.00  0.00    +0.000 A 
ATOM      6  C   UNL     1      48.561   9.721  16.226  0.00  0.00    +0.000 A 
ATOM      7  C   UNL     1      48.736   8.711  17.171  0.00  0.00    +0.000 A 
ATOM      8  C   UNL     1      48.760   7.360  16.790  0.00  0.00    +0.000 A 
ATOM      9  C   UNL     1      48.619   7.069  15.422  0.00  0.00    +0.000 A 
BRANCH   8  10
ATOM     10  C   UNL     1      48.817   6.274  17.787  0.00  0.00    +0.000 A 
ATOM     11  C   UNL     1      48.507   6.513  19.130  0.00  0.00    +0.000 A 
ATOM     12  N   UNL     1      48.502   5.575  20.105  0.00  0.00    +0.000 NA
ATOM     13  C   UNL     1      48.804   4.316  19.725  0.00  0.00    +0.000 A 
ATOM     14  C   UNL     1      49.090   3.941  18.418  0.00  0.00    +0.000 A 
ATOM     15  C   UNL     1      49.117   4.943  17.446  0.00  0.00    +0.000 A 
BRANCH  14  16
ATOM     16  O   UNL     1      49.350   2.619  18.218  0.00  0.00    +0.000 OA
BRANCH  16  17
ATOM     17  C   UNL     1      49.987   2.299  16.993  0.00  0.00    +0.000 C 
ATOM     18  F   UNL     1      50.901   1.326  17.217  0.00  0.00    +0.000 F 
ATOM     19  F   UNL     1      49.042   1.770  16.175  0.00  0.00    +0.000 F 
ENDBRANCH  16  17
ENDBRANCH  14  16
ENDBRANCH   8  10
ENDBRANCH   1   4
BRANCH   1  20
ATOM     20  N   UNL     1      46.483   7.565  12.818  0.00  0.00    +0.000 N 
ATOM     21  H   UNL     1      45.870   8.000  13.506  0.00  0.00    +0.000 HD
BRANCH  20  25
ATOM     22  C   UNL     1      44.689   4.089  11.569  0.00  0.00    +0.000 A 
ATOM     23  C   UNL     1      44.964   5.124  10.689  0.00  0.00    +0.000 A 
ATOM     24  N   UNL     1      45.557   6.283  11.092  0.00  0.00    +0.000 NA
ATOM     25  C   UNL     1      45.865   6.378  12.406  0.00  0.00    +0.000 A 
ATOM     26  C   UNL     1      45.598   5.309  13.264  0.00  0.00    +0.000 A 
ATOM     27  N   UNL     1      44.998   4.153  12.887  0.00  0.00    +0.000 NA
BRANCH  22  29
ATOM     28  N   UNL     1      44.586   2.235  10.032  0.00  0.00    +0.000 N 
ATOM     29  C   UNL     1      44.004   2.858  11.105  0.00  0.00    +0.000 C 
ATOM     30  O   UNL     1      42.994   2.425  11.641  0.00  0.00    +0.000 OA
ATOM     31  H   UNL     1      44.183   1.385   9.661  0.00  0.00    +0.000 HD
ATOM     32  H   UNL     1      45.425   2.627   9.617  0.00  0.00    +0.000 HD
ENDBRANCH  22  29
ENDBRANCH  20  25
ENDBRANCH   1  20
TORSDOF 7
ENDMDL
MODEL 5
REMARK VINA RESULT:    -6.745      4.348      8.415
REMARK INTER + INTRA:         -10.034
REMARK INTER:                  -9.175
REMARK INTRA:                  -0.859
REMARK UNBOUND:                -0.529
REMARK  Name = 
REMARK  7 active torsions:
REMARK  status: ('A' for Active; 'I' for Inactive)
REMARK    1  A    between atoms: C_2  and  C_4
REMARK    2  A    between atoms: C_7  and  N_8
REMARK    3  A    between atoms: N_8  and  C_9
REMARK    4  A    between atoms: C_9  and  C_10
REMARK    5  A    between atoms: C_14  and  C_15
REMARK    6  A    between atoms: C_19  and  O_20
REMARK    7  A    between atoms: O_20  and  C_21
REMARK                            x       y       z     vdW  Elec       q    Type
REMARK                         _______ _______ _______ _____ _____    ______ ____
ROOT
ATOM      1  C   UNL     1      49.236   8.971  15.498  0.00  0.00    +0.000 C 
ATOM      2  C   UNL     1      49.645  10.429  15.701  0.00  0.00    +0.000 C 
ATOM      3  C   UNL     1      48.306   9.975  16.167  0.00  0.00    +0.000 C 
ENDROOT
BRANCH   1   4
ATOM      4  C   UNL     1      48.838   8.535  14.086  0.00  0.00    +0.000 A 
ATOM      5  C   UNL     1      49.603   8.895  12.966  0.00  0.00    +0.000 A 
ATOM      6  C   UNL     1      49.348   8.345  11.711  0.00  0.00    +0.000 A 
ATOM      7  C   UNL     1      48.327   7.409  11.554  0.00  0.00    +0.000 A 
ATOM      8  C   UNL     1      47.514   7.037  12.636  0.00  0.00    +0.000 A 
ATOM      9  C   UNL     1      47.759   7.656  13.875  0.00  0.00    +0.000 A 
BRANCH   8  10
ATOM     10  C   UNL     1      46.513   5.959  12.520  0.00  0.00    +0.000 A 
ATOM     11  C   UNL     1      46.157   5.185  13.629  0.00  0.00    +0.000 A 
ATOM     12  N   UNL     1      45.230   4.200  13.624  0.00  0.00    +0.000 NA
ATOM     13  C   UNL     1      44.601   3.978  12.451  0.00  0.00    +0.000 A 
ATOM     14  C   UNL     1      44.834   4.703  11.289  0.00  0.00    +0.000 A 
ATOM     15  C   UNL     1      45.820   5.690  11.326  0.00  0.00    +0.000 A 
BRANCH  14  16
ATOM     16  O   UNL     1      44.086   4.353  10.204  0.00  0.00    +0.000 OA
BRANCH  16  17
ATOM     17  C   UNL     1      44.793   3.713   9.156  0.00  0.00    +0.000 C 
ATOM     18  F   UNL     1      44.585   2.377   9.242  0.00  0.00    +0.000 F 
ATOM     19  F   UNL     1      44.237   4.123   7.988  0.00  0.00    +0.000 F 
ENDBRANCH  16  17
ENDBRANCH  14  16
ENDBRANCH   8  10
ENDBRANCH   1   4
BRANCH   1  20
ATOM     20  N   UNL     1      49.994   7.973  16.270  0.00  0.00    +0.000 N 
ATOM     21  H   UNL     1      50.919   7.719  15.927  0.00  0.00    +0.000 HD
BRANCH  20  25
ATOM     22  C   UNL     1      48.331   4.542  17.796  0.00  0.00    +0.000 A 
ATOM     23  C   UNL     1      49.348   4.503  16.854  0.00  0.00    +0.000 A 
ATOM     24  N   UNL     1      49.907   5.635  16.340  0.00  0.00    +0.000 NA
ATOM     25  C   UNL     1      49.414   6.811  16.792  0.00  0.00    +0.000 A 
ATOM     26  C   UNL     1      48.406   6.818  17.759  0.00  0.00    +0.000 A 
ATOM     27  N   UNL     1      47.828   5.706  18.275  0.00  0.00    +0.000 NA
BRANCH  22  29
ATOM     28  N   UNL     1      48.211   2.843  19.501  0.00  0.00    +0.000 N 
ATOM     29  C   UNL     1      47.717   3.291  18.303  0.00  0.00    +0.000 C 
ATOM     30  O   UNL     1      46.832   2.701  17.701  0.00  0.00    +0.000 OA
ATOM     31  H   UNL     1      47.838   2.001  19.918  0.00  0.00    +0.000 HD
ATOM     32  H   UNL     1      48.945   3.363  19.969  0.00  0.00    +0.000 HD
ENDBRANCH  22  29
ENDBRANCH  20  25
ENDBRANCH   1  20
TORSDOF 7
ENDMDL
MODEL 6
REMARK VINA RESULT:    -6.701      2.829      3.190
REMARK INTER + INTRA:          -9.972
REMARK INTER:                  -9.630
REMARK INTRA:                  -0.342
REMARK UNBOUND:                -0.529
REMARK  Name = 
REMARK  7 active torsions:
REMARK  status: ('A' for Active; 'I' for Inactive)
REMARK    1  A    between atoms: C_2  and  C_4
REMARK    2  A    between atoms: C_7  and  N_8
REMARK    3  A    between atoms: N_8  and  C_9
REMARK    4  A    between atoms: C_9  and  C_10
REMARK    5  A    between atoms: C_14  and  C_15
REMARK    6  A    between atoms: C_19  and  O_20
REMARK    7  A    between atoms: O_20  and  C_21
REMARK                            x       y       z     vdW  Elec       q    Type
REMARK                         _______ _______ _______ _____ _____    ______ ____
ROOT
ATOM      1  C   UNL     1      43.909   4.920  11.844  0.00  0.00    +0.000 C 
ATOM      2  C   UNL     1      44.316   3.803  12.803  0.00  0.00    +0.000 C 
ATOM      3  C   UNL     1      43.084   4.591  13.080  0.00  0.00    +0.000 C 
ENDROOT
BRANCH   1   4
ATOM      4  C   UNL     1      44.700   6.228  11.901  0.00  0.00    +0.000 A 
ATOM      5  C   UNL     1      44.193   7.415  11.350  0.00  0.00    +0.000 A 
ATOM      6  C   UNL     1      44.825   8.638  11.566  0.00  0.00    +0.000 A 
ATOM      7  C   UNL     1      45.974   8.701  12.353  0.00  0.00    +0.000 A 
ATOM      8  C   UNL     1      46.538   7.539  12.903  0.00  0.00    +0.000 A 
ATOM      9  C   UNL     1      45.911   6.314  12.616  0.00  0.00    +0.000 A 
BRANCH   8  10
ATOM     10  C   UNL     1      47.677   7.598  13.838  0.00  0.00    +0.000 A 
ATOM     11  C   UNL     1      48.257   6.429  14.342  0.00  0.00    +0.000 A 
ATOM     12  N   UNL     1      49.321   6.385  15.177  0.00  0.00    +0.000 NA
ATOM     13  C   UNL     1      49.858   7.574  15.522  0.00  0.00    +0.000 A 
ATOM     14  C   UNL     1      49.402   8.802  15.059  0.00  0.00    +0.000 A 
ATOM     15  C   UNL     1      48.283   8.808  14.225  0.00  0.00    +0.000 A 
BRANCH  14  16
ATOM     16  O   UNL     1      50.084   9.898  15.497  0.00  0.00    +0.000 OA
BRANCH  16  17
ATOM     17  C   UNL     1      50.623  10.728  14.482  0.00  0.00    +0.000 C 
ATOM     18  F   UNL     1      51.623  11.472  15.012  0.00  0.00    +0.000 F 
ATOM     19  F   UNL     1      51.187   9.914  13.555  0.00  0.00    +0.000 F 
ENDBRANCH  16  17
ENDBRANCH  14  16
ENDBRANCH   8  10
ENDBRANCH   1   4
BRANCH   1  20
ATOM     20  N   UNL     1      43.499   4.496  10.494  0.00  0.00    +0.000 N 
ATOM     21  H   UNL     1      42.622   3.984  10.410  0.00  0.00    +0.000 HD
BRANCH  20  25
ATOM     22  C   UNL     1      46.135   2.922   7.767  0.00  0.00    +0.000 A 
ATOM     23  C   UNL     1      45.967   4.290   7.912  0.00  0.00    +0.000 A 
ATOM     24  N   UNL     1      45.094   4.824   8.813  0.00  0.00    +0.000 NA
ATOM     25  C   UNL     1      44.389   3.947   9.563  0.00  0.00    +0.000 A 
ATOM     26  C   UNL     1      44.598   2.574   9.412  0.00  0.00    +0.000 A 
ATOM     27  N   UNL     1      45.452   2.022   8.515  0.00  0.00    +0.000 NA
BRANCH  22  29
ATOM     28  N   UNL     1      47.930   1.415   7.203  0.00  0.00    +0.000 N 
ATOM     29  C   UNL     1      47.064   2.374   6.748  0.00  0.00    +0.000 C 
ATOM     30  O   UNL     1      47.056   2.747   5.584  0.00  0.00    +0.000 OA
ATOM     31  H   UNL     1      48.589   0.987   6.567  0.00  0.00    +0.000 HD
ATOM     32  H   UNL     1      47.903   1.133   8.177  0.00  0.00    +0.000 HD
ENDBRANCH  22  29
ENDBRANCH  20  25
ENDBRANCH   1  20
TORSDOF 7
ENDMDL
MODEL 7
REMARK VINA RESULT:    -6.476      4.129      8.313
REMARK INTER + INTRA:          -9.655
REMARK INTER:                  -9.282
REMARK INTRA:                  -0.373
REMARK UNBOUND:                -0.529
REMARK  Name = 
REMARK  7 active torsions:
REMARK  status: ('A' for Active; 'I' for Inactive)
REMARK    1  A    between atoms: C_2  and  C_4
REMARK    2  A    between atoms: C_7  and  N_8
REMARK    3  A    between atoms: N_8  and  C_9
REMARK    4  A    between atoms: C_9  and  C_10
REMARK    5  A    between atoms: C_14  and  C_15
REMARK    6  A    between atoms: C_19  and  O_20
REMARK    7  A    between atoms: O_20  and  C_21
REMARK                            x       y       z     vdW  Elec       q    Type
REMARK                         _______ _______ _______ _____ _____    ______ ____
ROOT
ATOM      1  C   UNL     1      49.130   8.428  13.253  0.00  0.00    +0.000 C 
ATOM      2  C   UNL     1      50.129   7.642  12.406  0.00  0.00    +0.000 C 
ATOM      3  C   UNL     1      50.014   9.114  12.221  0.00  0.00    +0.000 C 
ENDROOT
BRANCH   1   4
ATOM      4  C   UNL     1      47.648   8.315  12.891  0.00  0.00    +0.000 A 
ATOM      5  C   UNL     1      46.910   9.432  12.469  0.00  0.00    +0.000 A 
ATOM      6  C   UNL     1      45.619   9.296  11.962  0.00  0.00    +0.000 A 
ATOM      7  C   UNL     1      45.043   8.031  11.853  0.00  0.00    +0.000 A 
ATOM      8  C   UNL     1      45.727   6.884  12.287  0.00  0.00    +0.000 A 
ATOM      9  C   UNL     1      47.003   7.064  12.849  0.00  0.00    +0.000 A 
BRANCH   8  10
ATOM     10  C   UNL     1      45.188   5.530  12.066  0.00  0.00    +0.000 A 
ATOM     11  C   UNL     1      44.986   4.651  13.135  0.00  0.00    +0.000 A 
ATOM     12  N   UNL     1      44.468   3.406  13.032  0.00  0.00    +0.000 NA
ATOM     13  C   UNL     1      44.110   3.010  11.792  0.00  0.00    +0.000 A 
ATOM     14  C   UNL     1      44.220   3.800  10.656  0.00  0.00    +0.000 A 
ATOM     15  C   UNL     1      44.789   5.067  10.798  0.00  0.00    +0.000 A 
BRANCH  14  16
ATOM     16  O   UNL     1      43.785   3.240   9.492  0.00  0.00    +0.000 OA
BRANCH  16  17
ATOM     17  C   UNL     1      44.795   2.685   8.666  0.00  0.00    +0.000 C 
ATOM     18  F   UNL     1      45.167   3.611   7.750  0.00  0.00    +0.000 F 
ATOM     19  F   UNL     1      45.875   2.455   9.453  0.00  0.00    +0.000 F 
ENDBRANCH  16  17
ENDBRANCH  14  16
ENDBRANCH   8  10
ENDBRANCH   1   4
BRANCH   1  20
ATOM     20  N   UNL     1      49.417   8.494  14.696  0.00  0.00    +0.000 N 
ATOM     21  H   UNL     1      50.040   9.234  15.017  0.00  0.00    +0.000 HD
BRANCH  20  25
ATOM     22  C   UNL     1      50.240   5.194  16.998  0.00  0.00    +0.000 A 
ATOM     23  C   UNL     1      51.211   6.138  16.703  0.00  0.00    +0.000 A 
ATOM     24  N   UNL     1      50.950   7.236  15.939  0.00  0.00    +0.000 NA
ATOM     25  C   UNL     1      49.687   7.362  15.473  0.00  0.00    +0.000 A 
ATOM     26  C   UNL     1      48.723   6.407  15.808  0.00  0.00    +0.000 A 
ATOM     27  N   UNL     1      48.963   5.302  16.556  0.00  0.00    +0.000 NA
BRANCH  22  29
ATOM     28  N   UNL     1      49.609   3.606  18.698  0.00  0.00    +0.000 N 
ATOM     29  C   UNL     1      50.569   3.989  17.798  0.00  0.00    +0.000 C 
ATOM     30  O   UNL     1      51.619   3.378  17.664  0.00  0.00    +0.000 OA
ATOM     31  H   UNL     1      49.755   2.788  19.274  0.00  0.00    +0.000 HD
ATOM     32  H   UNL     1      48.751   4.141  18.777  0.00  0.00    +0.000 HD
ENDBRANCH  22  29
ENDBRANCH  20  25
ENDBRANCH   1  20
TORSDOF 7
ENDMDL
MODEL 8
REMARK VINA RESULT:    -6.313      6.041      8.123
REMARK INTER + INTRA:          -9.425
REMARK INTER:                  -8.427
REMARK INTRA:                  -0.998
REMARK UNBOUND:                -0.529
REMARK  Name = 
REMARK  7 active torsions:
REMARK  status: ('A' for Active; 'I' for Inactive)
REMARK    1  A    between atoms: C_2  and  C_4
REMARK    2  A    between atoms: C_7  and  N_8
REMARK    3  A    between atoms: N_8  and  C_9
REMARK    4  A    between atoms: C_9  and  C_10
REMARK    5  A    between atoms: C_14  and  C_15
REMARK    6  A    between atoms: C_19  and  O_20
REMARK    7  A    between atoms: O_20  and  C_21
REMARK                            x       y       z     vdW  Elec       q    Type
REMARK                         _______ _______ _______ _____ _____    ______ ____
ROOT
ATOM      1  C   UNL     1      48.710   7.735  13.395  0.00  0.00    +0.000 C 
ATOM      2  C   UNL     1      49.139   7.919  14.849  0.00  0.00    +0.000 C 
ATOM      3  C   UNL     1      47.897   8.580  14.366  0.00  0.00    +0.000 C 
ENDROOT
BRANCH   1   4
ATOM      4  C   UNL     1      49.481   8.508  12.324  0.00  0.00    +0.000 A 
ATOM      5  C   UNL     1      49.246   9.872  12.094  0.00  0.00    +0.000 A 
ATOM      6  C   UNL     1      50.073  10.616  11.254  0.00  0.00    +0.000 A 
ATOM      7  C   UNL     1      51.166  10.010  10.636  0.00  0.00    +0.000 A 
ATOM      8  C   UNL     1      51.429   8.642  10.811  0.00  0.00    +0.000 A 
ATOM      9  C   UNL     1      50.540   7.908  11.615  0.00  0.00    +0.000 A 
BRANCH   8  10
ATOM     10  C   UNL     1      52.647   8.012  10.269  0.00  0.00    +0.000 A 
ATOM     11  C   UNL     1      53.912   8.549  10.530  0.00  0.00    +0.000 A 
ATOM     12  N   UNL     1      55.084   8.023  10.103  0.00  0.00    +0.000 NA
ATOM     13  C   UNL     1      55.000   6.882   9.388  0.00  0.00    +0.000 A 
ATOM     14  C   UNL     1      53.810   6.227   9.095  0.00  0.00    +0.000 A 
ATOM     15  C   UNL     1      52.621   6.818   9.525  0.00  0.00    +0.000 A 
BRANCH  14  16
ATOM     16  O   UNL     1      53.922   5.072   8.380  0.00  0.00    +0.000 OA
BRANCH  16  17
ATOM     17  C   UNL     1      53.237   5.053   7.140  0.00  0.00    +0.000 C 
ATOM     18  F   UNL     1      53.841   5.921   6.294  0.00  0.00    +0.000 F 
ATOM     19  F   UNL     1      53.398   3.813   6.612  0.00  0.00    +0.000 F 
ENDBRANCH  16  17
ENDBRANCH  14  16
ENDBRANCH   8  10
ENDBRANCH   1   4
BRANCH   1  20
ATOM     20  N   UNL     1      48.299   6.374  13.009  0.00  0.00    +0.000 N 
ATOM     21  H   UNL     1      48.926   5.850  12.401  0.00  0.00    +0.000 HD
BRANCH  20  25
ATOM     22  C   UNL     1      44.447   5.430  11.943  0.00  0.00    +0.000 A 
ATOM     23  C   UNL     1      44.953   5.122  13.196  0.00  0.00    +0.000 A 
ATOM     24  N   UNL     1      46.230   5.428  13.561  0.00  0.00    +0.000 NA
ATOM     25  C   UNL     1      46.991   6.051  12.631  0.00  0.00    +0.000 A 
ATOM     26  C   UNL     1      46.445   6.371  11.386  0.00  0.00    +0.000 A 
ATOM     27  N   UNL     1      45.182   6.066  10.998  0.00  0.00    +0.000 NA
BRANCH  22  29
ATOM     28  N   UNL     1      42.118   6.017  11.747  0.00  0.00    +0.000 N 
ATOM     29  C   UNL     1      43.066   5.044  11.565  0.00  0.00    +0.000 C 
ATOM     30  O   UNL     1      42.790   3.940  11.120  0.00  0.00    +0.000 OA
ATOM     31  H   UNL     1      41.153   5.834  11.505  0.00  0.00    +0.000 HD
ATOM     32  H   UNL     1      42.388   6.921  12.119  0.00  0.00    +0.000 HD
ENDBRANCH  22  29
ENDBRANCH  20  25
ENDBRANCH   1  20
TORSDOF 7
ENDMDL
MODEL 9
REMARK VINA RESULT:    -5.986      5.637      8.190
REMARK INTER + INTRA:          -8.964
REMARK INTER:                  -8.084
REMARK INTRA:                  -0.880
REMARK UNBOUND:                -0.529
REMARK  Name = 
REMARK  7 active torsions:
REMARK  status: ('A' for Active; 'I' for Inactive)
REMARK    1  A    between atoms: C_2  and  C_4
REMARK    2  A    between atoms: C_7  and  N_8
REMARK    3  A    between atoms: N_8  and  C_9
REMARK    4  A    between atoms: C_9  and  C_10
REMARK    5  A    between atoms: C_14  and  C_15
REMARK    6  A    between atoms: C_19  and  O_20
REMARK    7  A    between atoms: O_20  and  C_21
REMARK                            x       y       z     vdW  Elec       q    Type
REMARK                         _______ _______ _______ _____ _____    ______ ____
ROOT
ATOM      1  C   UNL     1      48.846   9.244  12.410  0.00  0.00    +0.000 C 
ATOM      2  C   UNL     1      47.835  10.389  12.401  0.00  0.00    +0.000 C 
ATOM      3  C   UNL     1      48.893  10.358  13.447  0.00  0.00    +0.000 C 
ENDROOT
BRANCH   1   4
ATOM      4  C   UNL     1      48.372   7.882  12.919  0.00  0.00    +0.000 A 
ATOM      5  C   UNL     1      48.859   7.337  14.118  0.00  0.00    +0.000 A 
ATOM      6  C   UNL     1      48.293   6.192  14.673  0.00  0.00    +0.000 A 
ATOM      7  C   UNL     1      47.212   5.573  14.045  0.00  0.00    +0.000 A 
ATOM      8  C   UNL     1      46.706   6.060  12.830  0.00  0.00    +0.000 A 
ATOM      9  C   UNL     1      47.339   7.182  12.266  0.00  0.00    +0.000 A 
BRANCH   8  10
ATOM     10  C   UNL     1      45.489   5.497  12.216  0.00  0.00    +0.000 A 
ATOM     11  C   UNL     1      44.296   5.400  12.941  0.00  0.00    +0.000 A 
ATOM     12  N   UNL     1      43.126   4.928  12.453  0.00  0.00    +0.000 NA
ATOM     13  C   UNL     1      43.130   4.545  11.159  0.00  0.00    +0.000 A 
ATOM     14  C   UNL     1      44.235   4.630  10.321  0.00  0.00    +0.000 A 
ATOM     15  C   UNL     1      45.433   5.091  10.870  0.00  0.00    +0.000 A 
BRANCH  14  16
ATOM     16  O   UNL     1      44.046   4.218   9.036  0.00  0.00    +0.000 OA
BRANCH  16  17
ATOM     17  C   UNL     1      44.929   3.207   8.582  0.00  0.00    +0.000 C 
ATOM     18  F   UNL     1      44.349   1.999   8.782  0.00  0.00    +0.000 F 
ATOM     19  F   UNL     1      45.060   3.362   7.240  0.00  0.00    +0.000 F 
ENDBRANCH  16  17
ENDBRANCH  14  16
ENDBRANCH   8  10
ENDBRANCH   1   4
BRANCH   1  20
ATOM     20  N   UNL     1      49.779   9.196  11.272  0.00  0.00    +0.000 N 
ATOM     21  H   UNL     1      49.411   8.876  10.377  0.00  0.00    +0.000 HD
BRANCH  20  25
ATOM     22  C   UNL     1      53.615   7.773  11.627  0.00  0.00    +0.000 A 
ATOM     23  C   UNL     1      53.090   8.685  12.528  0.00  0.00    +0.000 A 
ATOM     24  N   UNL     1      51.819   9.166  12.419  0.00  0.00    +0.000 NA
ATOM     25  C   UNL     1      51.087   8.709  11.378  0.00  0.00    +0.000 A 
ATOM     26  C   UNL     1      51.635   7.771  10.500  0.00  0.00    +0.000 A 
ATOM     27  N   UNL     1      52.900   7.288  10.582  0.00  0.00    +0.000 NA
BRANCH  22  29
ATOM     28  N   UNL     1      55.479   7.179  13.034  0.00  0.00    +0.000 N 
ATOM     29  C   UNL     1      55.016   7.302  11.751  0.00  0.00    +0.000 C 
ATOM     30  O   UNL     1      55.710   7.039  10.779  0.00  0.00    +0.000 OA
ATOM     31  H   UNL     1      56.422   6.855  13.202  0.00  0.00    +0.000 HD
ATOM     32  H   UNL     1      54.870   7.406  13.813  0.00  0.00    +0.000 HD
ENDBRANCH  22  29
ENDBRANCH  20  25
ENDBRANCH   1  20
TORSDOF 7
ENDMDL
