MODEL 1
REMARK VINA RESULT:    -8.392      0.000      0.000
REMARK INTER + INTRA:         -12.151
REMARK INTER:                 -11.336
REMARK INTRA:                  -0.815
REMARK UNBOUND:                -0.815
REMARK  Name = 
REMARK  7 active torsions:
REMARK  status: ('A' for Active; 'I' for Inactive)
REMARK    1  A    between atoms: C_1  and  C_2
REMARK    2  A    between atoms: C_4  and  C_5
REMARK    3  A    between atoms: C_10  and  N_11
REMARK    4  A    between atoms: N_11  and  C_12
REMARK    5  A    between atoms: C_12  and  C_13
REMARK    6  A    between atoms: C_16  and  O_17
REMARK    7  A    between atoms: O_17  and  C_18
REMARK                            x       y       z     vdW  Elec       q    Type
REMARK                         _______ _______ _______ _____ _____    ______ ____
ROOT
ATOM      1  N   UNL     1      43.848   4.886   9.752  0.00  0.00    +0.000 N 
ATOM      2  H   UNL     1      42.934   4.856   9.322  0.00  0.00    +0.000 HD
ENDROOT
BRANCH   1   9
ATOM      3  C   UNL     1      43.949   1.999  10.091  0.00  0.00    +0.000 C 
ATOM      4  C   UNL     1      44.892   2.760   9.204  0.00  0.00    +0.000 A 
ATOM      5  C   UNL     1      45.863   2.037   8.490  0.00  0.00    +0.000 A 
ATOM      6  C   UNL     1      46.724   2.683   7.606  0.00  0.00    +0.000 A 
ATOM      7  C   UNL     1      46.555   4.048   7.468  0.00  0.00    +0.000 A 
ATOM      8  N   UNL     1      45.637   4.784   8.157  0.00  0.00    +0.000 NA
ATOM      9  C   UNL     1      44.826   4.154   9.041  0.00  0.00    +0.000 A 
BRANCH   6  10
ATOM     10  C   UNL     1      47.742   1.873   6.892  0.00  0.00    +0.000 C 
ATOM     11  N   UNL     1      48.721   2.501   6.175  0.00  0.00    +0.000 N 
ATOM     12  O   UNL     1      47.727   0.647   6.944  0.00  0.00    +0.000 OA
ATOM     13  H   UNL     1      48.841   3.495   6.072  0.00  0.00    +0.000 HD
ATOM     14  H   UNL     1      49.401   1.897   5.727  0.00  0.00    +0.000 HD
ENDBRANCH   6  10
ENDBRANCH   1   9
BRANCH   1  15
ATOM     15  C   UNL     1      43.892   5.057  11.215  0.00  0.00    +0.000 C 
ATOM     16  C   UNL     1      42.908   4.332  12.117  0.00  0.00    +0.000 C 
ATOM     17  C   UNL     1      42.750   5.799  11.913  0.00  0.00    +0.000 C 
BRANCH  15  18
ATOM     18  C   UNL     1      45.280   5.411  11.729  0.00  0.00    +0.000 A 
ATOM     19  C   UNL     1      45.983   6.526  11.228  0.00  0.00    +0.000 A 
ATOM     20  C   UNL     1      47.238   6.894  11.739  0.00  0.00    +0.000 A 
ATOM     21  C   UNL     1      47.797   6.169  12.781  0.00  0.00    +0.000 A 
ATOM     22  C   UNL     1      47.148   5.023  13.242  0.00  0.00    +0.000 A 
ATOM     23  C   UNL     1      45.907   4.648  12.719  0.00  0.00    +0.000 A 
BRANCH  21  24
ATOM     24  O   UNL     1      48.981   6.429  13.399  0.00  0.00    +0.000 OA
BRANCH  24  25
ATOM     25  C   UNL     1      48.982   7.059  14.673  0.00  0.00    +0.000 C 
ATOM     26  F   UNL     1      48.879   6.210  15.715  0.00  0.00    +0.000 F 
ATOM     27  F   UNL     1      50.143   7.740  14.810  0.00  0.00    +0.000 F 
ATOM     28  F   UNL     1      47.967   7.947  14.730  0.00  0.00    +0.000 F 
ENDBRANCH  24  25
ENDBRANCH  21  24
ENDBRANCH  15  18
ENDBRANCH   1  15
TORSDOF 6
ENDMDL
MODEL 2
REMARK VINA RESULT:    -7.668      1.451      1.933
REMARK INTER + INTRA:         -11.172
REMARK INTER:                 -10.608
REMARK INTRA:                  -0.565
REMARK UNBOUND:                -0.815
REMARK  Name = 
REMARK  7 active torsions:
REMARK  status: ('A' for Active; 'I' for Inactive)
REMARK    1  A    between atoms: C_1  and  C_2
REMARK    2  A    between atoms: C_4  and  C_5
REMARK    3  A    between atoms: C_10  and  N_11
REMARK    4  A    between atoms: N_11  and  C_12
REMARK    5  A    between atoms: C_12  and  C_13
REMARK    6  A    between atoms: C_16  and  O_17
REMARK    7  A    between atoms: O_17  and  C_18
REMARK                            x       y       z     vdW  Elec       q    Type
REMARK                         _______ _______ _______ _____ _____    ______ ____
ROOT
ATOM      1  N   UNL     1      43.773   4.786  10.038  0.00  0.00    +0.000 N 
ATOM      2  H   UNL     1      42.827   4.680   9.699  0.00  0.00    +0.000 HD
ENDROOT
BRANCH   1   9
ATOM      3  C   UNL     1      43.866   1.881  10.170  0.00  0.00    +0.000 C 
ATOM      4  C   UNL     1      44.792   2.699   9.317  0.00  0.00    +0.000 A 
ATOM      5  C   UNL     1      45.742   2.025   8.530  0.00  0.00    +0.000 A 
ATOM      6  C   UNL     1      46.585   2.728   7.673  0.00  0.00    +0.000 A 
ATOM      7  C   UNL     1      46.420   4.101   7.636  0.00  0.00    +0.000 A 
ATOM      8  N   UNL     1      45.523   4.789   8.398  0.00  0.00    +0.000 NA
ATOM      9  C   UNL     1      44.730   4.102   9.254  0.00  0.00    +0.000 A 
BRANCH   6  10
ATOM     10  C   UNL     1      47.582   1.967   6.879  0.00  0.00    +0.000 C 
ATOM     11  N   UNL     1      48.695   2.603   6.408  0.00  0.00    +0.000 N 
ATOM     12  O   UNL     1      47.428   0.772   6.649  0.00  0.00    +0.000 OA
ATOM     13  H   UNL     1      48.933   3.572   6.545  0.00  0.00    +0.000 HD
ATOM     14  H   UNL     1      49.351   2.028   5.891  0.00  0.00    +0.000 HD
ENDBRANCH   6  10
ENDBRANCH   1   9
BRANCH   1  15
ATOM     15  C   UNL     1      43.942   5.002  11.486  0.00  0.00    +0.000 C 
ATOM     16  C   UNL     1      43.509   3.948  12.490  0.00  0.00    +0.000 C 
ATOM     17  C   UNL     1      42.701   5.192  12.361  0.00  0.00    +0.000 C 
BRANCH  15  18
ATOM     18  C   UNL     1      45.093   5.941  11.815  0.00  0.00    +0.000 A 
ATOM     19  C   UNL     1      46.283   5.463  12.402  0.00  0.00    +0.000 A 
ATOM     20  C   UNL     1      47.372   6.312  12.652  0.00  0.00    +0.000 A 
ATOM     21  C   UNL     1      47.301   7.649  12.291  0.00  0.00    +0.000 A 
ATOM     22  C   UNL     1      46.108   8.154  11.772  0.00  0.00    +0.000 A 
ATOM     23  C   UNL     1      45.018   7.311  11.541  0.00  0.00    +0.000 A 
BRANCH  21  24
ATOM     24  O   UNL     1      48.286   8.576  12.436  0.00  0.00    +0.000 OA
BRANCH  24  25
ATOM     25  C   UNL     1      49.613   8.255  12.044  0.00  0.00    +0.000 C 
ATOM     26  F   UNL     1      50.428   9.319  11.904  0.00  0.00    +0.000 F 
ATOM     27  F   UNL     1      50.151   7.445  12.987  0.00  0.00    +0.000 F 
ATOM     28  F   UNL     1      49.579   7.573  10.879  0.00  0.00    +0.000 F 
ENDBRANCH  24  25
ENDBRANCH  21  24
ENDBRANCH  15  18
ENDBRANCH   1  15
TORSDOF 6
ENDMDL
MODEL 3
REMARK VINA RESULT:    -7.397      4.309      7.009
REMARK INTER + INTRA:         -10.807
REMARK INTER:                 -10.215
REMARK INTRA:                  -0.592
REMARK UNBOUND:                -0.815
REMARK  Name = 
REMARK  7 active torsions:
REMARK  status: ('A' for Active; 'I' for Inactive)
REMARK    1  A    between atoms: C_1  and  C_2
REMARK    2  A    between atoms: C_4  and  C_5
REMARK    3  A    between atoms: C_10  and  N_11
REMARK    4  A    between atoms: N_11  and  C_12
REMARK    5  A    between atoms: C_12  and  C_13
REMARK    6  A    between atoms: C_16  and  O_17
REMARK    7  A    between atoms: O_17  and  C_18
REMARK                            x       y       z     vdW  Elec       q    Type
REMARK                         _______ _______ _______ _____ _____    ______ ____
ROOT
ATOM      1  N   UNL     1      45.351   4.646  12.596  0.00  0.00    +0.000 N 
ATOM      2  H   UNL     1      45.000   4.215  13.440  0.00  0.00    +0.000 HD
ENDROOT
BRANCH   1   9
ATOM      3  C   UNL     1      46.961   4.335  14.997  0.00  0.00    +0.000 C 
ATOM      4  C   UNL     1      47.181   5.428  13.991  0.00  0.00    +0.000 A 
ATOM      5  C   UNL     1      48.230   6.338  14.215  0.00  0.00    +0.000 A 
ATOM      6  C   UNL     1      48.518   7.333  13.285  0.00  0.00    +0.000 A 
ATOM      7  C   UNL     1      47.734   7.359  12.147  0.00  0.00    +0.000 A 
ATOM      8  N   UNL     1      46.699   6.506  11.905  0.00  0.00    +0.000 NA
ATOM      9  C   UNL     1      46.402   5.561  12.829  0.00  0.00    +0.000 A 
BRANCH   6  10
ATOM     10  C   UNL     1      49.624   8.278  13.581  0.00  0.00    +0.000 C 
ATOM     11  N   UNL     1      50.901   7.807  13.691  0.00  0.00    +0.000 N 
ATOM     12  O   UNL     1      49.411   9.479  13.718  0.00  0.00    +0.000 OA
ATOM     13  H   UNL     1      51.196   6.850  13.587  0.00  0.00    +0.000 HD
ATOM     14  H   UNL     1      51.618   8.502  13.873  0.00  0.00    +0.000 HD
ENDBRANCH   6  10
ENDBRANCH   1   9
BRANCH   1  15
ATOM     15  C   UNL     1      44.400   4.796  11.479  0.00  0.00    +0.000 C 
ATOM     16  C   UNL     1      43.393   5.933  11.457  0.00  0.00    +0.000 C 
ATOM     17  C   UNL     1      42.911   4.550  11.729  0.00  0.00    +0.000 C 
BRANCH  15  18
ATOM     18  C   UNL     1      44.924   4.215  10.174  0.00  0.00    +0.000 A 
ATOM     19  C   UNL     1      44.810   2.839   9.888  0.00  0.00    +0.000 A 
ATOM     20  C   UNL     1      45.236   2.306   8.661  0.00  0.00    +0.000 A 
ATOM     21  C   UNL     1      45.756   3.145   7.687  0.00  0.00    +0.000 A 
ATOM     22  C   UNL     1      45.939   4.498   7.979  0.00  0.00    +0.000 A 
ATOM     23  C   UNL     1      45.532   5.024   9.208  0.00  0.00    +0.000 A 
BRANCH  21  24
ATOM     24  O   UNL     1      46.172   2.778   6.445  0.00  0.00    +0.000 OA
BRANCH  24  25
ATOM     25  C   UNL     1      47.359   2.011   6.303  0.00  0.00    +0.000 C 
ATOM     26  F   UNL     1      48.302   2.263   7.233  0.00  0.00    +0.000 F 
ATOM     27  F   UNL     1      47.031   0.700   6.395  0.00  0.00    +0.000 F 
ATOM     28  F   UNL     1      47.884   2.225   5.078  0.00  0.00    +0.000 F 
ENDBRANCH  24  25
ENDBRANCH  21  24
ENDBRANCH  15  18
ENDBRANCH   1  15
TORSDOF 6
ENDMDL
MODEL 4
REMARK VINA RESULT:    -7.278      4.543      7.321
REMARK INTER + INTRA:         -10.647
REMARK INTER:                 -10.537
REMARK INTRA:                  -0.109
REMARK UNBOUND:                -0.815
REMARK  Name = 
REMARK  7 active torsions:
REMARK  status: ('A' for Active; 'I' for Inactive)
REMARK    1  A    between atoms: C_1  and  C_2
REMARK    2  A    between atoms: C_4  and  C_5
REMARK    3  A    between atoms: C_10  and  N_11
REMARK    4  A    between atoms: N_11  and  C_12
REMARK    5  A    between atoms: C_12  and  C_13
REMARK    6  A    between atoms: C_16  and  O_17
REMARK    7  A    between atoms: O_17  and  C_18
REMARK                            x       y       z     vdW  Elec       q    Type
REMARK                         _______ _______ _______ _____ _____    ______ ____
ROOT
ATOM      1  N   UNL     1      45.348   5.140  12.324  0.00  0.00    +0.000 N 
ATOM      2  H   UNL     1      45.638   4.780  13.223  0.00  0.00    +0.000 HD
ENDROOT
BRANCH   1   9
ATOM      3  C   UNL     1      47.477   6.577  13.689  0.00  0.00    +0.000 C 
ATOM      4  C   UNL     1      46.383   7.258  12.918  0.00  0.00    +0.000 A 
ATOM      5  C   UNL     1      46.399   8.662  12.838  0.00  0.00    +0.000 A 
ATOM      6  C   UNL     1      45.445   9.342  12.086  0.00  0.00    +0.000 A 
ATOM      7  C   UNL     1      44.513   8.565  11.423  0.00  0.00    +0.000 A 
ATOM      8  N   UNL     1      44.456   7.205  11.492  0.00  0.00    +0.000 NA
ATOM      9  C   UNL     1      45.366   6.551  12.253  0.00  0.00    +0.000 A 
BRANCH   6  10
ATOM     10  C   UNL     1      45.498  10.826  12.052  0.00  0.00    +0.000 C 
ATOM     11  N   UNL     1      46.692  11.462  12.240  0.00  0.00    +0.000 N 
ATOM     12  O   UNL     1      44.487  11.490  11.847  0.00  0.00    +0.000 OA
ATOM     13  H   UNL     1      47.583  11.023  12.402  0.00  0.00    +0.000 HD
ATOM     14  H   UNL     1      46.670  12.474  12.185  0.00  0.00    +0.000 HD
ENDBRANCH   6  10
ENDBRANCH   1   9
BRANCH   1  15
ATOM     15  C   UNL     1      44.400   4.317  11.552  0.00  0.00    +0.000 C 
ATOM     16  C   UNL     1      42.901   4.449  11.758  0.00  0.00    +0.000 C 
ATOM     17  C   UNL     1      43.594   3.234  12.272  0.00  0.00    +0.000 C 
BRANCH  15  18
ATOM     18  C   UNL     1      44.949   3.897  10.196  0.00  0.00    +0.000 A 
ATOM     19  C   UNL     1      44.967   2.543   9.802  0.00  0.00    +0.000 A 
ATOM     20  C   UNL     1      45.416   2.153   8.530  0.00  0.00    +0.000 A 
ATOM     21  C   UNL     1      45.828   3.116   7.620  0.00  0.00    +0.000 A 
ATOM     22  C   UNL     1      45.882   4.453   8.017  0.00  0.00    +0.000 A 
ATOM     23  C   UNL     1      45.452   4.837   9.290  0.00  0.00    +0.000 A 
BRANCH  21  24
ATOM     24  O   UNL     1      46.250   2.892   6.346  0.00  0.00    +0.000 OA
BRANCH  24  25
ATOM     25  C   UNL     1      47.487   2.229   6.126  0.00  0.00    +0.000 C 
ATOM     26  F   UNL     1      48.003   2.404   4.893  0.00  0.00    +0.000 F 
ATOM     27  F   UNL     1      48.388   2.702   7.020  0.00  0.00    +0.000 F 
ATOM     28  F   UNL     1      47.329   0.907   6.351  0.00  0.00    +0.000 F 
ENDBRANCH  24  25
ENDBRANCH  21  24
ENDBRANCH  15  18
ENDBRANCH   1  15
TORSDOF 6
ENDMDL
MODEL 5
REMARK VINA RESULT:    -6.875      4.220      6.985
REMARK INTER + INTRA:         -10.102
REMARK INTER:                 -10.413
REMARK INTRA:                   0.311
REMARK UNBOUND:                -0.815
REMARK  Name = 
REMARK  7 active torsions:
REMARK  status: ('A' for Active; 'I' for Inactive)
REMARK    1  A    between atoms: C_1  and  C_2
REMARK    2  A    between atoms: C_4  and  C_5
REMARK    3  A    between atoms: C_10  and  N_11
REMARK    4  A    between atoms: N_11  and  C_12
REMARK    5  A    between atoms: C_12  and  C_13
REMARK    6  A    between atoms: C_16  and  O_17
REMARK    7  A    between atoms: O_17  and  C_18
REMARK                            x       y       z     vdW  Elec       q    Type
REMARK                         _______ _______ _______ _____ _____    ______ ____
ROOT
ATOM      1  N   UNL     1      44.593   6.788  11.406  0.00  0.00    +0.000 N 
ATOM      2  H   UNL     1      44.617   7.360  10.573  0.00  0.00    +0.000 HD
ENDROOT
BRANCH   1   9
ATOM      3  C   UNL     1      45.192   9.393  12.553  0.00  0.00    +0.000 C 
ATOM      4  C   UNL     1      46.052   8.180  12.764  0.00  0.00    +0.000 A 
ATOM      5  C   UNL     1      47.197   8.308  13.570  0.00  0.00    +0.000 A 
ATOM      6  C   UNL     1      47.997   7.203  13.850  0.00  0.00    +0.000 A 
ATOM      7  C   UNL     1      47.593   5.997  13.309  0.00  0.00    +0.000 A 
ATOM      8  N   UNL     1      46.500   5.839  12.509  0.00  0.00    +0.000 NA
ATOM      9  C   UNL     1      45.746   6.924  12.213  0.00  0.00    +0.000 A 
BRANCH   6  10
ATOM     10  C   UNL     1      49.204   7.399  14.692  0.00  0.00    +0.000 C 
ATOM     11  N   UNL     1      50.435   7.443  14.103  0.00  0.00    +0.000 N 
ATOM     12  O   UNL     1      49.113   7.534  15.908  0.00  0.00    +0.000 OA
ATOM     13  H   UNL     1      50.631   7.358  13.119  0.00  0.00    +0.000 HD
ATOM     14  H   UNL     1      51.221   7.600  14.725  0.00  0.00    +0.000 HD
ENDBRANCH   6  10
ENDBRANCH   1   9
BRANCH   1  15
ATOM     15  C   UNL     1      43.817   5.537  11.334  0.00  0.00    +0.000 C 
ATOM     16  C   UNL     1      42.342   5.510  11.692  0.00  0.00    +0.000 C 
ATOM     17  C   UNL     1      43.321   4.891  12.629  0.00  0.00    +0.000 C 
BRANCH  15  18
ATOM     18  C   UNL     1      44.373   4.554  10.313  0.00  0.00    +0.000 A 
ATOM     19  C   UNL     1      45.147   4.994   9.220  0.00  0.00    +0.000 A 
ATOM     20  C   UNL     1      45.713   4.089   8.308  0.00  0.00    +0.000 A 
ATOM     21  C   UNL     1      45.538   2.726   8.492  0.00  0.00    +0.000 A 
ATOM     22  C   UNL     1      44.719   2.276   9.528  0.00  0.00    +0.000 A 
ATOM     23  C   UNL     1      44.141   3.179  10.424  0.00  0.00    +0.000 A 
BRANCH  21  24
ATOM     24  O   UNL     1      46.056   1.735   7.716  0.00  0.00    +0.000 OA
BRANCH  24  25
ATOM     25  C   UNL     1      47.032   2.054   6.734  0.00  0.00    +0.000 C 
ATOM     26  F   UNL     1      48.024   2.854   7.170  0.00  0.00    +0.000 F 
ATOM     27  F   UNL     1      47.594   0.900   6.302  0.00  0.00    +0.000 F 
ATOM     28  F   UNL     1      46.426   2.642   5.680  0.00  0.00    +0.000 F 
ENDBRANCH  24  25
ENDBRANCH  21  24
ENDBRANCH  15  18
ENDBRANCH   1  15
TORSDOF 6
ENDMDL
MODEL 6
REMARK VINA RESULT:    -6.807      5.343      7.869
REMARK INTER + INTRA:         -10.010
REMARK INTER:                  -9.218
REMARK INTRA:                  -0.792
REMARK UNBOUND:                -0.815
REMARK  Name = 
REMARK  7 active torsions:
REMARK  status: ('A' for Active; 'I' for Inactive)
REMARK    1  A    between atoms: C_1  and  C_2
REMARK    2  A    between atoms: C_4  and  C_5
REMARK    3  A    between atoms: C_10  and  N_11
REMARK    4  A    between atoms: N_11  and  C_12
REMARK    5  A    between atoms: C_12  and  C_13
REMARK    6  A    between atoms: C_16  and  O_17
REMARK    7  A    between atoms: O_17  and  C_18
REMARK                            x       y       z     vdW  Elec       q    Type
REMARK                         _______ _______ _______ _____ _____    ______ ____
ROOT
ATOM      1  N   UNL     1      47.025   5.130  15.286  0.00  0.00    +0.000 N 
ATOM      2  H   UNL     1      46.444   5.616  15.955  0.00  0.00    +0.000 HD
ENDROOT
BRANCH   1   9
ATOM      3  C   UNL     1      48.745   6.362  17.281  0.00  0.00    +0.000 C 
ATOM      4  C   UNL     1      48.881   4.932  16.844  0.00  0.00    +0.000 A 
ATOM      5  C   UNL     1      49.880   4.145  17.441  0.00  0.00    +0.000 A 
ATOM      6  C   UNL     1      50.012   2.796  17.119  0.00  0.00    +0.000 A 
ATOM      7  C   UNL     1      49.106   2.290  16.206  0.00  0.00    +0.000 A 
ATOM      8  N   UNL     1      48.136   3.027  15.593  0.00  0.00    +0.000 NA
ATOM      9  C   UNL     1      48.035   4.345  15.886  0.00  0.00    +0.000 A 
BRANCH   6  10
ATOM     10  C   UNL     1      51.097   2.017  17.766  0.00  0.00    +0.000 C 
ATOM     11  N   UNL     1      52.039   2.666  18.513  0.00  0.00    +0.000 N 
ATOM     12  O   UNL     1      51.155   0.797  17.651  0.00  0.00    +0.000 OA
ATOM     13  H   UNL     1      52.085   3.656  18.688  0.00  0.00    +0.000 HD
ATOM     14  H   UNL     1      52.743   2.079  18.948  0.00  0.00    +0.000 HD
ENDBRANCH   6  10
ENDBRANCH   1   9
BRANCH   1  15
ATOM     15  C   UNL     1      47.188   5.760  13.963  0.00  0.00    +0.000 C 
ATOM     16  C   UNL     1      48.493   6.433  13.573  0.00  0.00    +0.000 C 
ATOM     17  C   UNL     1      47.307   7.283  13.873  0.00  0.00    +0.000 C 
BRANCH  15  18
ATOM     18  C   UNL     1      46.304   5.133  12.895  0.00  0.00    +0.000 A 
ATOM     19  C   UNL     1      46.054   5.791  11.673  0.00  0.00    +0.000 A 
ATOM     20  C   UNL     1      45.289   5.193  10.659  0.00  0.00    +0.000 A 
ATOM     21  C   UNL     1      44.785   3.913  10.840  0.00  0.00    +0.000 A 
ATOM     22  C   UNL     1      44.964   3.276  12.068  0.00  0.00    +0.000 A 
ATOM     23  C   UNL     1      45.711   3.880  13.084  0.00  0.00    +0.000 A 
BRANCH  21  24
ATOM     24  O   UNL     1      44.063   3.197   9.936  0.00  0.00    +0.000 OA
BRANCH  24  25
ATOM     25  C   UNL     1      44.740   2.449   8.935  0.00  0.00    +0.000 C 
ATOM     26  F   UNL     1      46.072   2.352   9.115  0.00  0.00    +0.000 F 
ATOM     27  F   UNL     1      44.233   1.194   8.927  0.00  0.00    +0.000 F 
ATOM     28  F   UNL     1      44.500   3.005   7.728  0.00  0.00    +0.000 F 
ENDBRANCH  24  25
ENDBRANCH  21  24
ENDBRANCH  15  18
ENDBRANCH   1  15
TORSDOF 6
ENDMDL
MODEL 7
REMARK VINA RESULT:    -6.309      4.631      7.454
REMARK INTER + INTRA:          -9.337
REMARK INTER:                  -9.326
REMARK INTRA:                  -0.010
REMARK UNBOUND:                -0.815
REMARK  Name = 
REMARK  7 active torsions:
REMARK  status: ('A' for Active; 'I' for Inactive)
REMARK    1  A    between atoms: C_1  and  C_2
REMARK    2  A    between atoms: C_4  and  C_5
REMARK    3  A    between atoms: C_10  and  N_11
REMARK    4  A    between atoms: N_11  and  C_12
REMARK    5  A    between atoms: C_12  and  C_13
REMARK    6  A    between atoms: C_16  and  O_17
REMARK    7  A    between atoms: O_17  and  C_18
REMARK                            x       y       z     vdW  Elec       q    Type
REMARK                         _______ _______ _______ _____ _____    ______ ____
ROOT
ATOM      1  N   UNL     1      46.698   6.053  12.351  0.00  0.00    +0.000 N 
ATOM      2  H   UNL     1      47.468   6.166  11.706  0.00  0.00    +0.000 HD
ENDROOT
BRANCH   1   9
ATOM      3  C   UNL     1      48.270   7.678  14.181  0.00  0.00    +0.000 C 
ATOM      4  C   UNL     1      47.851   6.267  14.480  0.00  0.00    +0.000 A 
ATOM      5  C   UNL     1      48.226   5.710  15.715  0.00  0.00    +0.000 A 
ATOM      6  C   UNL     1      47.814   4.429  16.072  0.00  0.00    +0.000 A 
ATOM      7  C   UNL     1      47.018   3.761  15.160  0.00  0.00    +0.000 A 
ATOM      8  N   UNL     1      46.650   4.262  13.947  0.00  0.00    +0.000 NA
ATOM      9  C   UNL     1      47.083   5.496  13.592  0.00  0.00    +0.000 A 
BRANCH   6  10
ATOM     10  C   UNL     1      48.255   3.882  17.380  0.00  0.00    +0.000 C 
ATOM     11  N   UNL     1      47.418   3.064  18.084  0.00  0.00    +0.000 N 
ATOM     12  O   UNL     1      49.364   4.145  17.834  0.00  0.00    +0.000 OA
ATOM     13  H   UNL     1      46.496   2.770  17.807  0.00  0.00    +0.000 HD
ATOM     14  H   UNL     1      47.782   2.704  18.960  0.00  0.00    +0.000 HD
ENDBRANCH   6  10
ENDBRANCH   1   9
BRANCH   1  15
ATOM     15  C   UNL     1      45.363   5.838  11.763  0.00  0.00    +0.000 C 
ATOM     16  C   UNL     1      44.302   6.924  11.814  0.00  0.00    +0.000 C 
ATOM     17  C   UNL     1      44.150   5.728  12.689  0.00  0.00    +0.000 C 
BRANCH  15  18
ATOM     18  C   UNL     1      45.375   4.836  10.618  0.00  0.00    +0.000 A 
ATOM     19  C   UNL     1      45.726   5.225   9.309  0.00  0.00    +0.000 A 
ATOM     20  C   UNL     1      45.798   4.294   8.260  0.00  0.00    +0.000 A 
ATOM     21  C   UNL     1      45.548   2.953   8.510  0.00  0.00    +0.000 A 
ATOM     22  C   UNL     1      45.131   2.562   9.783  0.00  0.00    +0.000 A 
ATOM     23  C   UNL     1      45.043   3.492  10.822  0.00  0.00    +0.000 A 
BRANCH  21  24
ATOM     24  O   UNL     1      45.616   1.939   7.606  0.00  0.00    +0.000 OA
BRANCH  24  25
ATOM     25  C   UNL     1      46.782   1.790   6.809  0.00  0.00    +0.000 C 
ATOM     26  F   UNL     1      47.913   2.247   7.381  0.00  0.00    +0.000 F 
ATOM     27  F   UNL     1      46.956   0.472   6.551  0.00  0.00    +0.000 F 
ATOM     28  F   UNL     1      46.599   2.425   5.631  0.00  0.00    +0.000 F 
ENDBRANCH  24  25
ENDBRANCH  21  24
ENDBRANCH  15  18
ENDBRANCH   1  15
TORSDOF 6
ENDMDL
MODEL 8
REMARK VINA RESULT:    -6.241      4.500      7.197
REMARK INTER + INTRA:          -9.246
REMARK INTER:                  -9.733
REMARK INTRA:                   0.488
REMARK UNBOUND:                -0.815
REMARK  Name = 
REMARK  7 active torsions:
REMARK  status: ('A' for Active; 'I' for Inactive)
REMARK    1  A    between atoms: C_1  and  C_2
REMARK    2  A    between atoms: C_4  and  C_5
REMARK    3  A    between atoms: C_10  and  N_11
REMARK    4  A    between atoms: N_11  and  C_12
REMARK    5  A    between atoms: C_12  and  C_13
REMARK    6  A    between atoms: C_16  and  O_17
REMARK    7  A    between atoms: O_17  and  C_18
REMARK                            x       y       z     vdW  Elec       q    Type
REMARK                         _______ _______ _______ _____ _____    ______ ____
ROOT
ATOM      1  N   UNL     1      43.838   6.874  11.496  0.00  0.00    +0.000 N 
ATOM      2  H   UNL     1      43.297   7.145  10.686  0.00  0.00    +0.000 HD
ENDROOT
BRANCH   1   9
ATOM      3  C   UNL     1      43.491   9.684  10.830  0.00  0.00    +0.000 C 
ATOM      4  C   UNL     1      44.732   9.134  11.473  0.00  0.00    +0.000 A 
ATOM      5  C   UNL     1      45.772  10.028  11.783  0.00  0.00    +0.000 A 
ATOM      6  C   UNL     1      46.920   9.585  12.435  0.00  0.00    +0.000 A 
ATOM      7  C   UNL     1      46.962   8.243  12.765  0.00  0.00    +0.000 A 
ATOM      8  N   UNL     1      45.982   7.345  12.464  0.00  0.00    +0.000 NA
ATOM      9  C   UNL     1      44.883   7.776  11.800  0.00  0.00    +0.000 A 
BRANCH   6  10
ATOM     10  C   UNL     1      47.995  10.568  12.721  0.00  0.00    +0.000 C 
ATOM     11  N   UNL     1      48.292  10.883  14.017  0.00  0.00    +0.000 N 
ATOM     12  O   UNL     1      48.630  11.093  11.813  0.00  0.00    +0.000 OA
ATOM     13  H   UNL     1      47.850  10.508  14.840  0.00  0.00    +0.000 HD
ATOM     14  H   UNL     1      49.050  11.544  14.151  0.00  0.00    +0.000 HD
ENDBRANCH   6  10
ENDBRANCH   1   9
BRANCH   1  15
ATOM     15  C   UNL     1      43.924   5.431  11.787  0.00  0.00    +0.000 C 
ATOM     16  C   UNL     1      43.028   4.790  12.832  0.00  0.00    +0.000 C 
ATOM     17  C   UNL     1      44.474   4.975  13.140  0.00  0.00    +0.000 C 
BRANCH  15  18
ATOM     18  C   UNL     1      44.417   4.616  10.600  0.00  0.00    +0.000 A 
ATOM     19  C   UNL     1      45.284   5.175   9.638  0.00  0.00    +0.000 A 
ATOM     20  C   UNL     1      45.791   4.412   8.574  0.00  0.00    +0.000 A 
ATOM     21  C   UNL     1      45.462   3.069   8.471  0.00  0.00    +0.000 A 
ATOM     22  C   UNL     1      44.551   2.517   9.373  0.00  0.00    +0.000 A 
ATOM     23  C   UNL     1      44.033   3.283  10.422  0.00  0.00    +0.000 A 
BRANCH  21  24
ATOM     24  O   UNL     1      45.905   2.201   7.521  0.00  0.00    +0.000 OA
BRANCH  24  25
ATOM     25  C   UNL     1      46.901   2.622   6.599  0.00  0.00    +0.000 C 
ATOM     26  F   UNL     1      46.535   3.653   5.812  0.00  0.00    +0.000 F 
ATOM     27  F   UNL     1      47.993   3.007   7.301  0.00  0.00    +0.000 F 
ATOM     28  F   UNL     1      47.253   1.578   5.818  0.00  0.00    +0.000 F 
ENDBRANCH  24  25
ENDBRANCH  21  24
ENDBRANCH  15  18
ENDBRANCH   1  15
TORSDOF 6
ENDMDL
MODEL 9
REMARK VINA RESULT:    -6.152      4.809      8.039
REMARK INTER + INTRA:          -9.125
REMARK INTER:                  -8.796
REMARK INTRA:                  -0.329
REMARK UNBOUND:                -0.815
REMARK  Name = 
REMARK  7 active torsions:
REMARK  status: ('A' for Active; 'I' for Inactive)
REMARK    1  A    between atoms: C_1  and  C_2
REMARK    2  A    between atoms: C_4  and  C_5
REMARK    3  A    between atoms: C_10  and  N_11
REMARK    4  A    between atoms: N_11  and  C_12
REMARK    5  A    between atoms: C_12  and  C_13
REMARK    6  A    between atoms: C_16  and  O_17
REMARK    7  A    between atoms: O_17  and  C_18
REMARK                            x       y       z     vdW  Elec       q    Type
REMARK                         _______ _______ _______ _____ _____    ______ ____
ROOT
ATOM      1  N   UNL     1      48.391   6.606  13.326  0.00  0.00    +0.000 N 
ATOM      2  H   UNL     1      49.022   6.072  12.743  0.00  0.00    +0.000 HD
ENDROOT
BRANCH   1   9
ATOM      3  C   UNL     1      49.523   8.434  15.285  0.00  0.00    +0.000 C 
ATOM      4  C   UNL     1      48.969   7.084  15.638  0.00  0.00    +0.000 A 
ATOM      5  C   UNL     1      48.984   6.691  16.988  0.00  0.00    +0.000 A 
ATOM      6  C   UNL     1      48.429   5.477  17.382  0.00  0.00    +0.000 A 
ATOM      7  C   UNL     1      47.859   4.707  16.384  0.00  0.00    +0.000 A 
ATOM      8  N   UNL     1      47.842   5.047  15.064  0.00  0.00    +0.000 NA
ATOM      9  C   UNL     1      48.415   6.214  14.683  0.00  0.00    +0.000 A 
BRANCH   6  10
ATOM     10  C   UNL     1      48.489   5.103  18.817  0.00  0.00    +0.000 C 
ATOM     11  N   UNL     1      48.793   3.818  19.167  0.00  0.00    +0.000 N 
ATOM     12  O   UNL     1      48.282   5.933  19.696  0.00  0.00    +0.000 OA
ATOM     13  H   UNL     1      48.994   3.059  18.537  0.00  0.00    +0.000 HD
ATOM     14  H   UNL     1      48.841   3.627  20.162  0.00  0.00    +0.000 HD
ENDBRANCH   6  10
ENDBRANCH   1   9
BRANCH   1  15
ATOM     15  C   UNL     1      47.185   7.152  12.677  0.00  0.00    +0.000 C 
ATOM     16  C   UNL     1      47.148   8.584  12.173  0.00  0.00    +0.000 C 
ATOM     17  C   UNL     1      46.375   8.232  13.397  0.00  0.00    +0.000 C 
BRANCH  15  18
ATOM     18  C   UNL     1      46.343   6.081  11.997  0.00  0.00    +0.000 A 
ATOM     19  C   UNL     1      46.043   6.151  10.621  0.00  0.00    +0.000 A 
ATOM     20  C   UNL     1      45.318   5.137   9.974  0.00  0.00    +0.000 A 
ATOM     21  C   UNL     1      44.907   4.021  10.688  0.00  0.00    +0.000 A 
ATOM     22  C   UNL     1      45.136   3.968  12.064  0.00  0.00    +0.000 A 
ATOM     23  C   UNL     1      45.841   4.987  12.710  0.00  0.00    +0.000 A 
BRANCH  21  24
ATOM     24  O   UNL     1      44.235   2.949  10.189  0.00  0.00    +0.000 OA
BRANCH  24  25
ATOM     25  C   UNL     1      44.750   2.266   9.055  0.00  0.00    +0.000 C 
ATOM     26  F   UNL     1      46.090   2.124   9.049  0.00  0.00    +0.000 F 
ATOM     27  F   UNL     1      44.205   1.026   9.022  0.00  0.00    +0.000 F 
ATOM     28  F   UNL     1      44.373   2.918   7.935  0.00  0.00    +0.000 F 
ENDBRANCH  24  25
ENDBRANCH  21  24
ENDBRANCH  15  18
ENDBRANCH   1  15
TORSDOF 6
ENDMDL
