MODEL 1
REMARK VINA RESULT:    -8.741      0.000      0.000
REMARK INTER + INTRA:         -12.155
REMARK INTER:                 -11.808
REMARK INTRA:                  -0.347
REMARK UNBOUND:                -0.347
REMARK  Name = 
REMARK  7 active torsions:
REMARK  status: ('A' for Active; 'I' for Inactive)
REMARK    1  A    between atoms: C_1  and  C_2
REMARK    2  A    between atoms: C_2  and  N_3
REMARK    3  A    between atoms: C_2  and  C_16
REMARK    4  A    between atoms: C_4  and  C_6
REMARK    5  A    between atoms: C_19  and  C_20
REMARK    6  A    between atoms: C_20  and  N_21
REMARK    7  A    between atoms: C_22  and  C_24
REMARK                            x       y       z     vdW  Elec       q    Type
REMARK                         _______ _______ _______ _____ _____    ______ ____
ROOT
ATOM      1  C   UNL     1      47.939   8.866  12.180  0.00  0.00    +0.000 C 
ATOM      2  C   UNL     1      46.857   8.319  13.121  0.00  0.00    +0.000 C 
ENDROOT
BRANCH   2   3
ATOM      3  C   UNL     1      46.056   7.174  12.521  0.00  0.00    +0.000 A 
ATOM      4  C   UNL     1      46.379   6.701  11.238  0.00  0.00    +0.000 A 
ATOM      5  C   UNL     1      45.707   5.603  10.686  0.00  0.00    +0.000 A 
ATOM      6  C   UNL     1      44.684   4.962  11.396  0.00  0.00    +0.000 A 
ATOM      7  C   UNL     1      44.334   5.456  12.658  0.00  0.00    +0.000 A 
ATOM      8  C   UNL     1      44.994   6.560  13.201  0.00  0.00    +0.000 A 
BRANCH   6   9
ATOM      9  C   UNL     1      43.974   3.762  10.831  0.00  0.00    +0.000 C 
BRANCH   9  10
ATOM     10  N   UNL     1      44.846   2.923  10.054  0.00  0.00    +0.000 N 
ATOM     11  C   UNL     1      45.016   3.132   8.703  0.00  0.00    +0.000 C 
ATOM     12  O   UNL     1      44.430   4.012   8.080  0.00  0.00    +0.000 OA
ATOM     13  H   UNL     1      45.421   2.204  10.483  0.00  0.00    +0.000 HD
BRANCH  11  14
ATOM     14  C   UNL     1      45.964   2.204   8.065  0.00  0.00    +0.000 A 
ATOM     15  C   UNL     1      46.933   2.531   7.078  0.00  0.00    +0.000 A 
ATOM     16  C   UNL     1      47.563   1.349   6.777  0.00  0.00    +0.000 A 
ATOM     17  N   UNL     1      46.972   0.403   7.559  0.00  0.00    +0.000 N 
ATOM     18  N   UNL     1      46.009   0.887   8.362  0.00  0.00    +0.000 NA
ATOM     19  H   UNL     1      47.176  -0.591   7.595  0.00  0.00    +0.000 HD
ENDBRANCH  11  14
ENDBRANCH   9  10
ENDBRANCH   6   9
ENDBRANCH   2   3
BRANCH   2  20
ATOM     20  N   UNL     1      47.456   7.901  14.377  0.00  0.00    +0.000 N 
ATOM     21  C   UNL     1      48.340   6.857  14.449  0.00  0.00    +0.000 C 
ATOM     22  O   UNL     1      48.848   6.345  13.456  0.00  0.00    +0.000 OA
ATOM     23  H   UNL     1      46.954   8.181  15.211  0.00  0.00    +0.000 HD
BRANCH  21  24
ATOM     24  C   UNL     1      48.667   6.384  15.799  0.00  0.00    +0.000 A 
ATOM     25  C   UNL     1      49.544   7.101  16.600  0.00  0.00    +0.000 A 
ATOM     26  S   UNL     1      49.850   6.355  18.105  0.00  0.00    +0.000 S 
ATOM     27  C   UNL     1      48.860   5.027  17.711  0.00  0.00    +0.000 A 
ATOM     28  N   UNL     1      48.742   3.963  18.553  0.00  0.00    +0.000 NA
ATOM     29  C   UNL     1      47.996   3.010  18.107  0.00  0.00    +0.000 A 
ATOM     30  N   UNL     1      47.332   3.033  16.906  0.00  0.00    +0.000 N 
ATOM     31  C   UNL     1      47.362   4.115  16.060  0.00  0.00    +0.000 A 
ATOM     32  O   UNL     1      46.655   4.156  15.057  0.00  0.00    +0.000 OA
ATOM     33  C   UNL     1      48.250   5.181  16.481  0.00  0.00    +0.000 A 
ATOM     34  H   UNL     1      46.727   2.271  16.638  0.00  0.00    +0.000 HD
ENDBRANCH  21  24
ENDBRANCH   2  20
TORSDOF 6
ENDMDL
MODEL 2
REMARK VINA RESULT:    -8.197      2.392      2.718
REMARK INTER + INTRA:         -11.419
REMARK INTER:                 -10.369
REMARK INTRA:                  -1.050
REMARK UNBOUND:                -0.347
REMARK  Name = 
REMARK  7 active torsions:
REMARK  status: ('A' for Active; 'I' for Inactive)
REMARK    1  A    between atoms: C_1  and  C_2
REMARK    2  A    between atoms: C_2  and  N_3
REMARK    3  A    between atoms: C_2  and  C_16
REMARK    4  A    between atoms: C_4  and  C_6
REMARK    5  A    between atoms: C_19  and  C_20
REMARK    6  A    between atoms: C_20  and  N_21
REMARK    7  A    between atoms: C_22  and  C_24
REMARK                            x       y       z     vdW  Elec       q    Type
REMARK                         _______ _______ _______ _____ _____    ______ ____
ROOT
ATOM      1  C   UNL     1      49.092   7.906  14.058  0.00  0.00    +0.000 C 
ATOM      2  C   UNL     1      48.340   6.837  14.863  0.00  0.00    +0.000 C 
ENDROOT
BRANCH   2   3
ATOM      3  C   UNL     1      47.391   6.001  14.017  0.00  0.00    +0.000 A 
ATOM      4  C   UNL     1      46.828   6.553  12.856  0.00  0.00    +0.000 A 
ATOM      5  C   UNL     1      46.006   5.787  12.019  0.00  0.00    +0.000 A 
ATOM      6  C   UNL     1      45.715   4.455  12.333  0.00  0.00    +0.000 A 
ATOM      7  C   UNL     1      46.242   3.913  13.510  0.00  0.00    +0.000 A 
ATOM      8  C   UNL     1      47.049   4.682  14.351  0.00  0.00    +0.000 A 
BRANCH   6   9
ATOM      9  C   UNL     1      44.860   3.608  11.429  0.00  0.00    +0.000 C 
BRANCH   9  10
ATOM     10  N   UNL     1      45.552   3.210  10.233  0.00  0.00    +0.000 N 
ATOM     11  C   UNL     1      45.148   3.658   8.994  0.00  0.00    +0.000 C 
ATOM     12  O   UNL     1      44.177   4.391   8.829  0.00  0.00    +0.000 OA
ATOM     13  H   UNL     1      46.401   2.654  10.265  0.00  0.00    +0.000 HD
BRANCH  11  14
ATOM     14  C   UNL     1      45.982   3.180   7.879  0.00  0.00    +0.000 A 
ATOM     15  C   UNL     1      46.470   1.857   7.695  0.00  0.00    +0.000 A 
ATOM     16  C   UNL     1      47.206   1.897   6.537  0.00  0.00    +0.000 A 
ATOM     17  N   UNL     1      47.134   3.183   6.094  0.00  0.00    +0.000 N 
ATOM     18  N   UNL     1      46.389   3.985   6.875  0.00  0.00    +0.000 NA
ATOM     19  H   UNL     1      47.569   3.583   5.269  0.00  0.00    +0.000 HD
ENDBRANCH  11  14
ENDBRANCH   9  10
ENDBRANCH   6   9
ENDBRANCH   2   3
BRANCH   2  20
ATOM     20  N   UNL     1      49.286   5.973  15.547  0.00  0.00    +0.000 N 
ATOM     21  C   UNL     1      49.217   5.744  16.896  0.00  0.00    +0.000 C 
ATOM     22  O   UNL     1      48.249   6.068  17.578  0.00  0.00    +0.000 OA
ATOM     23  H   UNL     1      50.165   5.825  15.067  0.00  0.00    +0.000 HD
BRANCH  21  24
ATOM     24  C   UNL     1      50.373   5.064  17.493  0.00  0.00    +0.000 A 
ATOM     25  C   UNL     1      51.362   5.794  18.135  0.00  0.00    +0.000 A 
ATOM     26  S   UNL     1      52.654   4.833  18.701  0.00  0.00    +0.000 S 
ATOM     27  C   UNL     1      51.956   3.418  18.059  0.00  0.00    +0.000 A 
ATOM     28  N   UNL     1      52.602   2.222  18.128  0.00  0.00    +0.000 NA
ATOM     29  C   UNL     1      51.977   1.246  17.563  0.00  0.00    +0.000 A 
ATOM     30  N   UNL     1      50.750   1.348  16.957  0.00  0.00    +0.000 N 
ATOM     31  C   UNL     1      50.030   2.517  16.929  0.00  0.00    +0.000 A 
ATOM     32  O   UNL     1      48.882   2.545  16.494  0.00  0.00    +0.000 OA
ATOM     33  C   UNL     1      50.724   3.663  17.484  0.00  0.00    +0.000 A 
ATOM     34  H   UNL     1      50.296   0.533  16.572  0.00  0.00    +0.000 HD
ENDBRANCH  21  24
ENDBRANCH   2  20
TORSDOF 6
ENDMDL
MODEL 3
REMARK VINA RESULT:    -7.859      1.747      2.129
REMARK INTER + INTRA:         -10.964
REMARK INTER:                 -10.065
REMARK INTRA:                  -0.898
REMARK UNBOUND:                -0.347
REMARK  Name = 
REMARK  7 active torsions:
REMARK  status: ('A' for Active; 'I' for Inactive)
REMARK    1  A    between atoms: C_1  and  C_2
REMARK    2  A    between atoms: C_2  and  N_3
REMARK    3  A    between atoms: C_2  and  C_16
REMARK    4  A    between atoms: C_4  and  C_6
REMARK    5  A    between atoms: C_19  and  C_20
REMARK    6  A    between atoms: C_20  and  N_21
REMARK    7  A    between atoms: C_22  and  C_24
REMARK                            x       y       z     vdW  Elec       q    Type
REMARK                         _______ _______ _______ _____ _____    ______ ____
ROOT
ATOM      1  C   UNL     1      49.576   7.722  13.367  0.00  0.00    +0.000 C 
ATOM      2  C   UNL     1      48.087   7.849  13.718  0.00  0.00    +0.000 C 
ENDROOT
BRANCH   2   3
ATOM      3  C   UNL     1      47.206   6.852  12.981  0.00  0.00    +0.000 A 
ATOM      4  C   UNL     1      46.999   5.574  13.526  0.00  0.00    +0.000 A 
ATOM      5  C   UNL     1      46.138   4.659  12.908  0.00  0.00    +0.000 A 
ATOM      6  C   UNL     1      45.476   4.993  11.721  0.00  0.00    +0.000 A 
ATOM      7  C   UNL     1      45.710   6.250  11.154  0.00  0.00    +0.000 A 
ATOM      8  C   UNL     1      46.581   7.157  11.763  0.00  0.00    +0.000 A 
BRANCH   6   9
ATOM      9  C   UNL     1      44.523   4.033  11.061  0.00  0.00    +0.000 C 
BRANCH   9  10
ATOM     10  N   UNL     1      45.194   3.101  10.195  0.00  0.00    +0.000 N 
ATOM     11  C   UNL     1      45.333   3.355   8.848  0.00  0.00    +0.000 C 
ATOM     12  O   UNL     1      44.883   4.359   8.304  0.00  0.00    +0.000 OA
ATOM     13  H   UNL     1      45.652   2.269  10.554  0.00  0.00    +0.000 HD
BRANCH  11  14
ATOM     14  C   UNL     1      46.069   2.315   8.112  0.00  0.00    +0.000 A 
ATOM     15  C   UNL     1      46.918   2.514   6.989  0.00  0.00    +0.000 A 
ATOM     16  C   UNL     1      47.362   1.262   6.639  0.00  0.00    +0.000 A 
ATOM     17  N   UNL     1      46.785   0.402   7.524  0.00  0.00    +0.000 N 
ATOM     18  N   UNL     1      46.007   1.006   8.440  0.00  0.00    +0.000 NA
ATOM     19  H   UNL     1      46.879  -0.608   7.562  0.00  0.00    +0.000 HD
ENDBRANCH  11  14
ENDBRANCH   9  10
ENDBRANCH   6   9
ENDBRANCH   2   3
BRANCH   2  20
ATOM     20  N   UNL     1      47.901   7.710  15.152  0.00  0.00    +0.000 N 
ATOM     21  C   UNL     1      48.567   8.499  16.052  0.00  0.00    +0.000 C 
ATOM     22  O   UNL     1      49.193   9.502  15.723  0.00  0.00    +0.000 OA
ATOM     23  H   UNL     1      47.533   6.817  15.457  0.00  0.00    +0.000 HD
BRANCH  21  24
ATOM     24  C   UNL     1      48.479   8.086  17.458  0.00  0.00    +0.000 A 
ATOM     25  C   UNL     1      48.072   8.988  18.430  0.00  0.00    +0.000 A 
ATOM     26  S   UNL     1      48.100   8.340  20.009  0.00  0.00    +0.000 S 
ATOM     27  C   UNL     1      48.706   6.851  19.447  0.00  0.00    +0.000 A 
ATOM     28  N   UNL     1      49.034   5.854  20.314  0.00  0.00    +0.000 NA
ATOM     29  C   UNL     1      49.523   4.800  19.753  0.00  0.00    +0.000 A 
ATOM     30  N   UNL     1      49.688   4.639  18.401  0.00  0.00    +0.000 N 
ATOM     31  C   UNL     1      49.303   5.587  17.486  0.00  0.00    +0.000 A 
ATOM     32  O   UNL     1      49.345   5.361  16.279  0.00  0.00    +0.000 OA
ATOM     33  C   UNL     1      48.820   6.823  18.071  0.00  0.00    +0.000 A 
ATOM     34  H   UNL     1      50.035   3.769  18.024  0.00  0.00    +0.000 HD
ENDBRANCH  21  24
ENDBRANCH   2  20
TORSDOF 6
ENDMDL
MODEL 4
REMARK VINA RESULT:    -7.426      2.664      3.727
REMARK INTER + INTRA:         -10.378
REMARK INTER:                  -9.155
REMARK INTRA:                  -1.223
REMARK UNBOUND:                -0.347
REMARK  Name = 
REMARK  7 active torsions:
REMARK  status: ('A' for Active; 'I' for Inactive)
REMARK    1  A    between atoms: C_1  and  C_2
REMARK    2  A    between atoms: C_2  and  N_3
REMARK    3  A    between atoms: C_2  and  C_16
REMARK    4  A    between atoms: C_4  and  C_6
REMARK    5  A    between atoms: C_19  and  C_20
REMARK    6  A    between atoms: C_20  and  N_21
REMARK    7  A    between atoms: C_22  and  C_24
REMARK                            x       y       z     vdW  Elec       q    Type
REMARK                         _______ _______ _______ _____ _____    ______ ____
ROOT
ATOM      1  C   UNL     1      48.254   9.081  11.961  0.00  0.00    +0.000 C 
ATOM      2  C   UNL     1      47.843   8.136  13.098  0.00  0.00    +0.000 C 
ENDROOT
BRANCH   2   3
ATOM      3  C   UNL     1      46.898   7.030  12.654  0.00  0.00    +0.000 A 
ATOM      4  C   UNL     1      46.001   7.268  11.600  0.00  0.00    +0.000 A 
ATOM      5  C   UNL     1      45.166   6.249  11.121  0.00  0.00    +0.000 A 
ATOM      6  C   UNL     1      45.197   4.973  11.696  0.00  0.00    +0.000 A 
ATOM      7  C   UNL     1      46.062   4.744  12.772  0.00  0.00    +0.000 A 
ATOM      8  C   UNL     1      46.883   5.764  13.258  0.00  0.00    +0.000 A 
BRANCH   6   9
ATOM      9  C   UNL     1      44.331   3.860  11.173  0.00  0.00    +0.000 C 
BRANCH   9  10
ATOM     10  N   UNL     1      45.055   2.954  10.322  0.00  0.00    +0.000 N 
ATOM     11  C   UNL     1      45.120   3.155   8.961  0.00  0.00    +0.000 C 
ATOM     12  O   UNL     1      44.557   4.086   8.392  0.00  0.00    +0.000 OA
ATOM     13  H   UNL     1      45.603   2.187  10.699  0.00  0.00    +0.000 HD
BRANCH  11  14
ATOM     14  C   UNL     1      45.924   2.154   8.241  0.00  0.00    +0.000 A 
ATOM     15  C   UNL     1      46.890   2.412   7.231  0.00  0.00    +0.000 A 
ATOM     16  C   UNL     1      47.360   1.180   6.849  0.00  0.00    +0.000 A 
ATOM     17  N   UNL     1      46.686   0.273   7.611  0.00  0.00    +0.000 N 
ATOM     18  N   UNL     1      45.818   0.828   8.475  0.00  0.00    +0.000 NA
ATOM     19  H   UNL     1      46.768  -0.738   7.593  0.00  0.00    +0.000 HD
ENDBRANCH  11  14
ENDBRANCH   9  10
ENDBRANCH   6   9
ENDBRANCH   2   3
BRANCH   2  20
ATOM     20  N   UNL     1      49.024   7.560  13.717  0.00  0.00    +0.000 N 
ATOM     21  C   UNL     1      49.323   7.759  15.039  0.00  0.00    +0.000 C 
ATOM     22  O   UNL     1      48.527   8.248  15.835  0.00  0.00    +0.000 OA
ATOM     23  H   UNL     1      49.765   7.298  13.078  0.00  0.00    +0.000 HD
BRANCH  21  24
ATOM     24  C   UNL     1      50.663   7.337  15.466  0.00  0.00    +0.000 A 
ATOM     25  C   UNL     1      50.813   6.397  16.475  0.00  0.00    +0.000 A 
ATOM     26  S   UNL     1      52.444   6.089  16.875  0.00  0.00    +0.000 S 
ATOM     27  C   UNL     1      52.996   7.240  15.748  0.00  0.00    +0.000 A 
ATOM     28  N   UNL     1      54.320   7.534  15.635  0.00  0.00    +0.000 NA
ATOM     29  C   UNL     1      54.590   8.456  14.775  0.00  0.00    +0.000 A 
ATOM     30  N   UNL     1      53.659   9.093  13.993  0.00  0.00    +0.000 N 
ATOM     31  C   UNL     1      52.323   8.777  14.021  0.00  0.00    +0.000 A 
ATOM     32  O   UNL     1      51.536   9.274  13.219  0.00  0.00    +0.000 OA
ATOM     33  C   UNL     1      51.959   7.800  15.028  0.00  0.00    +0.000 A 
ATOM     34  H   UNL     1      53.944   9.775  13.306  0.00  0.00    +0.000 HD
ENDBRANCH  21  24
ENDBRANCH   2  20
TORSDOF 6
ENDMDL
MODEL 5
REMARK VINA RESULT:    -7.295      2.650      4.036
REMARK INTER + INTRA:         -10.202
REMARK INTER:                  -9.466
REMARK INTRA:                  -0.736
REMARK UNBOUND:                -0.347
REMARK  Name = 
REMARK  7 active torsions:
REMARK  status: ('A' for Active; 'I' for Inactive)
REMARK    1  A    between atoms: C_1  and  C_2
REMARK    2  A    between atoms: C_2  and  N_3
REMARK    3  A    between atoms: C_2  and  C_16
REMARK    4  A    between atoms: C_4  and  C_6
REMARK    5  A    between atoms: C_19  and  C_20
REMARK    6  A    between atoms: C_20  and  N_21
REMARK    7  A    between atoms: C_22  and  C_24
REMARK                            x       y       z     vdW  Elec       q    Type
REMARK                         _______ _______ _______ _____ _____    ______ ____
ROOT
ATOM      1  C   UNL     1      45.532   9.187  12.833  0.00  0.00    +0.000 C 
ATOM      2  C   UNL     1      46.195   7.894  13.327  0.00  0.00    +0.000 C 
ENDROOT
BRANCH   2   3
ATOM      3  C   UNL     1      45.780   6.662  12.538  0.00  0.00    +0.000 A 
ATOM      4  C   UNL     1      45.018   5.662  13.164  0.00  0.00    +0.000 A 
ATOM      5  C   UNL     1      44.561   4.550  12.447  0.00  0.00    +0.000 A 
ATOM      6  C   UNL     1      44.869   4.401  11.090  0.00  0.00    +0.000 A 
ATOM      7  C   UNL     1      45.662   5.375  10.472  0.00  0.00    +0.000 A 
ATOM      8  C   UNL     1      46.129   6.476  11.192  0.00  0.00    +0.000 A 
BRANCH   6   9
ATOM      9  C   UNL     1      44.359   3.228  10.297  0.00  0.00    +0.000 C 
BRANCH   9  10
ATOM     10  N   UNL     1      45.325   2.746   9.347  0.00  0.00    +0.000 N 
ATOM     11  C   UNL     1      45.331   3.197   8.046  0.00  0.00    +0.000 C 
ATOM     12  O   UNL     1      44.515   4.005   7.612  0.00  0.00    +0.000 OA
ATOM     13  H   UNL     1      46.079   2.121   9.619  0.00  0.00    +0.000 HD
BRANCH  11  14
ATOM     14  C   UNL     1      46.402   2.625   7.214  0.00  0.00    +0.000 A 
ATOM     15  C   UNL     1      46.821   3.091   5.938  0.00  0.00    +0.000 A 
ATOM     16  C   UNL     1      47.827   2.240   5.550  0.00  0.00    +0.000 A 
ATOM     17  N   UNL     1      47.962   1.338   6.562  0.00  0.00    +0.000 N 
ATOM     18  N   UNL     1      47.125   1.550   7.593  0.00  0.00    +0.000 NA
ATOM     19  H   UNL     1      48.604   0.554   6.615  0.00  0.00    +0.000 HD
ENDBRANCH  11  14
ENDBRANCH   9  10
ENDBRANCH   6   9
ENDBRANCH   2   3
BRANCH   2  20
ATOM     20  N   UNL     1      47.640   8.036  13.301  0.00  0.00    +0.000 N 
ATOM     21  C   UNL     1      48.465   7.218  14.027  0.00  0.00    +0.000 C 
ATOM     22  O   UNL     1      48.071   6.192  14.575  0.00  0.00    +0.000 OA
ATOM     23  H   UNL     1      47.983   8.941  13.003  0.00  0.00    +0.000 HD
BRANCH  21  24
ATOM     24  C   UNL     1      49.872   7.629  14.107  0.00  0.00    +0.000 A 
ATOM     25  C   UNL     1      50.509   7.714  15.337  0.00  0.00    +0.000 A 
ATOM     26  S   UNL     1      52.118   8.275  15.227  0.00  0.00    +0.000 S 
ATOM     27  C   UNL     1      51.994   8.471  13.541  0.00  0.00    +0.000 A 
ATOM     28  N   UNL     1      53.018   9.001  12.818  0.00  0.00    +0.000 NA
ATOM     29  C   UNL     1      52.770   9.133  11.559  0.00  0.00    +0.000 A 
ATOM     30  N   UNL     1      51.600   8.756  10.949  0.00  0.00    +0.000 N 
ATOM     31  C   UNL     1      50.570   8.149  11.625  0.00  0.00    +0.000 A 
ATOM     32  O   UNL     1      49.592   7.707  11.029  0.00  0.00    +0.000 OA
ATOM     33  C   UNL     1      50.770   8.049  13.058  0.00  0.00    +0.000 A 
ATOM     34  H   UNL     1      51.489   8.845   9.949  0.00  0.00    +0.000 HD
ENDBRANCH  21  24
ENDBRANCH   2  20
TORSDOF 6
ENDMDL
MODEL 6
REMARK VINA RESULT:    -7.077      5.257      7.865
REMARK INTER + INTRA:          -9.907
REMARK INTER:                  -8.909
REMARK INTRA:                  -0.998
REMARK UNBOUND:                -0.347
REMARK  Name = 
REMARK  7 active torsions:
REMARK  status: ('A' for Active; 'I' for Inactive)
REMARK    1  A    between atoms: C_1  and  C_2
REMARK    2  A    between atoms: C_2  and  N_3
REMARK    3  A    between atoms: C_2  and  C_16
REMARK    4  A    between atoms: C_4  and  C_6
REMARK    5  A    between atoms: C_19  and  C_20
REMARK    6  A    between atoms: C_20  and  N_21
REMARK    7  A    between atoms: C_22  and  C_24
REMARK                            x       y       z     vdW  Elec       q    Type
REMARK                         _______ _______ _______ _____ _____    ______ ____
ROOT
ATOM      1  C   UNL     1      50.934  10.748  11.537  0.00  0.00    +0.000 C 
ATOM      2  C   UNL     1      51.418   9.310  11.763  0.00  0.00    +0.000 C 
ENDROOT
BRANCH   2   3
ATOM      3  C   UNL     1      50.425   8.452  12.533  0.00  0.00    +0.000 A 
ATOM      4  C   UNL     1      49.416   7.767  11.837  0.00  0.00    +0.000 A 
ATOM      5  C   UNL     1      48.530   6.914  12.508  0.00  0.00    +0.000 A 
ATOM      6  C   UNL     1      48.621   6.739  13.893  0.00  0.00    +0.000 A 
ATOM      7  C   UNL     1      49.601   7.450  14.595  0.00  0.00    +0.000 A 
ATOM      8  C   UNL     1      50.474   8.312  13.927  0.00  0.00    +0.000 A 
BRANCH   6   9
ATOM      9  C   UNL     1      47.698   5.803  14.625  0.00  0.00    +0.000 C 
BRANCH   9  10
ATOM     10  N   UNL     1      46.446   5.620  13.942  0.00  0.00    +0.000 N 
ATOM     11  C   UNL     1      46.029   4.369  13.543  0.00  0.00    +0.000 C 
ATOM     12  O   UNL     1      46.694   3.352  13.718  0.00  0.00    +0.000 OA
ATOM     13  H   UNL     1      45.796   6.387  13.800  0.00  0.00    +0.000 HD
BRANCH  11  14
ATOM     14  C   UNL     1      44.713   4.354  12.884  0.00  0.00    +0.000 A 
ATOM     15  C   UNL     1      43.940   5.488  12.514  0.00  0.00    +0.000 A 
ATOM     16  C   UNL     1      42.794   4.983  11.953  0.00  0.00    +0.000 A 
ATOM     17  N   UNL     1      42.919   3.627  12.008  0.00  0.00    +0.000 N 
ATOM     18  N   UNL     1      44.076   3.211  12.553  0.00  0.00    +0.000 NA
ATOM     19  H   UNL     1      42.255   2.927  11.692  0.00  0.00    +0.000 HD
ENDBRANCH  11  14
ENDBRANCH   9  10
ENDBRANCH   6   9
ENDBRANCH   2   3
BRANCH   2  20
ATOM     20  N   UNL     1      51.731   8.685  10.490  0.00  0.00    +0.000 N 
ATOM     21  C   UNL     1      53.021   8.473  10.080  0.00  0.00    +0.000 C 
ATOM     22  O   UNL     1      53.986   8.596  10.829  0.00  0.00    +0.000 OA
ATOM     23  H   UNL     1      50.993   8.719   9.796  0.00  0.00    +0.000 HD
BRANCH  21  24
ATOM     24  C   UNL     1      53.193   8.071   8.679  0.00  0.00    +0.000 A 
ATOM     25  C   UNL     1      52.992   8.987   7.657  0.00  0.00    +0.000 A 
ATOM     26  S   UNL     1      53.173   8.312   6.099  0.00  0.00    +0.000 S 
ATOM     27  C   UNL     1      53.474   6.765   6.743  0.00  0.00    +0.000 A 
ATOM     28  N   UNL     1      53.639   5.685   5.931  0.00  0.00    +0.000 NA
ATOM     29  C   UNL     1      53.815   4.570   6.555  0.00  0.00    +0.000 A 
ATOM     30  N   UNL     1      53.869   4.438   7.920  0.00  0.00    +0.000 N 
ATOM     31  C   UNL     1      53.782   5.509   8.775  0.00  0.00    +0.000 A 
ATOM     32  O   UNL     1      53.963   5.374   9.982  0.00  0.00    +0.000 OA
ATOM     33  C   UNL     1      53.506   6.775   8.124  0.00  0.00    +0.000 A 
ATOM     34  H   UNL     1      54.056   3.541   8.343  0.00  0.00    +0.000 HD
ENDBRANCH  21  24
ENDBRANCH   2  20
TORSDOF 6
ENDMDL
MODEL 7
REMARK VINA RESULT:    -6.919      2.020      2.714
REMARK INTER + INTRA:          -9.694
REMARK INTER:                  -8.574
REMARK INTRA:                  -1.120
REMARK UNBOUND:                -0.347
REMARK  Name = 
REMARK  7 active torsions:
REMARK  status: ('A' for Active; 'I' for Inactive)
REMARK    1  A    between atoms: C_1  and  C_2
REMARK    2  A    between atoms: C_2  and  N_3
REMARK    3  A    between atoms: C_2  and  C_16
REMARK    4  A    between atoms: C_4  and  C_6
REMARK    5  A    between atoms: C_19  and  C_20
REMARK    6  A    between atoms: C_20  and  N_21
REMARK    7  A    between atoms: C_22  and  C_24
REMARK                            x       y       z     vdW  Elec       q    Type
REMARK                         _______ _______ _______ _____ _____    ______ ____
ROOT
ATOM      1  C   UNL     1      50.690   8.251  14.031  0.00  0.00    +0.000 C 
ATOM      2  C   UNL     1      49.300   8.472  14.644  0.00  0.00    +0.000 C 
ENDROOT
BRANCH   2   3
ATOM      3  C   UNL     1      48.161   8.108  13.704  0.00  0.00    +0.000 A 
ATOM      4  C   UNL     1      48.303   7.016  12.833  0.00  0.00    +0.000 A 
ATOM      5  C   UNL     1      47.248   6.612  12.005  0.00  0.00    +0.000 A 
ATOM      6  C   UNL     1      46.029   7.301  12.016  0.00  0.00    +0.000 A 
ATOM      7  C   UNL     1      45.897   8.414  12.855  0.00  0.00    +0.000 A 
ATOM      8  C   UNL     1      46.956   8.825  13.668  0.00  0.00    +0.000 A 
BRANCH   6   9
ATOM      9  C   UNL     1      44.875   6.862  11.158  0.00  0.00    +0.000 C 
BRANCH   9  10
ATOM     10  N   UNL     1      45.256   5.867  10.192  0.00  0.00    +0.000 N 
ATOM     11  C   UNL     1      44.724   4.597  10.231  0.00  0.00    +0.000 C 
ATOM     12  O   UNL     1      43.925   4.230  11.087  0.00  0.00    +0.000 OA
ATOM     13  H   UNL     1      45.865   6.085   9.409  0.00  0.00    +0.000 HD
BRANCH  11  14
ATOM     14  C   UNL     1      45.197   3.712   9.154  0.00  0.00    +0.000 A 
ATOM     15  C   UNL     1      45.279   2.293   9.201  0.00  0.00    +0.000 A 
ATOM     16  C   UNL     1      45.790   1.916   7.983  0.00  0.00    +0.000 A 
ATOM     17  N   UNL     1      45.985   3.071   7.288  0.00  0.00    +0.000 N 
ATOM     18  N   UNL     1      45.624   4.178   7.961  0.00  0.00    +0.000 NA
ATOM     19  H   UNL     1      46.362   3.178   6.351  0.00  0.00    +0.000 HD
ENDBRANCH  11  14
ENDBRANCH   9  10
ENDBRANCH   6   9
ENDBRANCH   2   3
BRANCH   2  20
ATOM     20  N   UNL     1      49.178   7.725  15.883  0.00  0.00    +0.000 N 
ATOM     21  C   UNL     1      48.591   8.259  17.000  0.00  0.00    +0.000 C 
ATOM     22  O   UNL     1      47.947   9.304  16.978  0.00  0.00    +0.000 OA
ATOM     23  H   UNL     1      49.821   6.950  15.988  0.00  0.00    +0.000 HD
BRANCH  21  24
ATOM     24  C   UNL     1      48.762   7.497  18.243  0.00  0.00    +0.000 A 
ATOM     25  C   UNL     1      49.193   8.129  19.400  0.00  0.00    +0.000 A 
ATOM     26  S   UNL     1      49.395   7.064  20.718  0.00  0.00    +0.000 S 
ATOM     27  C   UNL     1      48.963   5.718  19.769  0.00  0.00    +0.000 A 
ATOM     28  N   UNL     1      49.005   4.456  20.278  0.00  0.00    +0.000 NA
ATOM     29  C   UNL     1      48.696   3.531  19.435  0.00  0.00    +0.000 A 
ATOM     30  N   UNL     1      48.318   3.752  18.134  0.00  0.00    +0.000 N 
ATOM     31  C   UNL     1      48.190   5.011  17.600  0.00  0.00    +0.000 A 
ATOM     32  O   UNL     1      47.727   5.180  16.476  0.00  0.00    +0.000 OA
ATOM     33  C   UNL     1      48.602   6.082  18.486  0.00  0.00    +0.000 A 
ATOM     34  H   UNL     1      48.044   2.984  17.539  0.00  0.00    +0.000 HD
ENDBRANCH  21  24
ENDBRANCH   2  20
TORSDOF 6
ENDMDL
MODEL 8
REMARK VINA RESULT:    -6.829      4.601      7.328
REMARK INTER + INTRA:          -9.571
REMARK INTER:                  -8.411
REMARK INTRA:                  -1.160
REMARK UNBOUND:                -0.347
REMARK  Name = 
REMARK  7 active torsions:
REMARK  status: ('A' for Active; 'I' for Inactive)
REMARK    1  A    between atoms: C_1  and  C_2
REMARK    2  A    between atoms: C_2  and  N_3
REMARK    3  A    between atoms: C_2  and  C_16
REMARK    4  A    between atoms: C_4  and  C_6
REMARK    5  A    between atoms: C_19  and  C_20
REMARK    6  A    between atoms: C_20  and  N_21
REMARK    7  A    between atoms: C_22  and  C_24
REMARK                            x       y       z     vdW  Elec       q    Type
REMARK                         _______ _______ _______ _____ _____    ______ ____
ROOT
ATOM      1  C   UNL     1      48.230   6.320  15.183  0.00  0.00    +0.000 C 
ATOM      2  C   UNL     1      47.815   6.924  13.834  0.00  0.00    +0.000 C 
ENDROOT
BRANCH   2   3
ATOM      3  C   UNL     1      48.990   7.424  13.008  0.00  0.00    +0.000 A 
ATOM      4  C   UNL     1      50.121   7.946  13.657  0.00  0.00    +0.000 A 
ATOM      5  C   UNL     1      51.247   8.350  12.928  0.00  0.00    +0.000 A 
ATOM      6  C   UNL     1      51.263   8.256  11.532  0.00  0.00    +0.000 A 
ATOM      7  C   UNL     1      50.124   7.773  10.879  0.00  0.00    +0.000 A 
ATOM      8  C   UNL     1      48.996   7.385  11.606  0.00  0.00    +0.000 A 
BRANCH   6   9
ATOM      9  C   UNL     1      52.476   8.656  10.736  0.00  0.00    +0.000 C 
BRANCH   9  10
ATOM     10  N   UNL     1      52.808   7.693   9.721  0.00  0.00    +0.000 N 
ATOM     11  C   UNL     1      53.705   6.677   9.968  0.00  0.00    +0.000 C 
ATOM     12  O   UNL     1      54.287   6.542  11.041  0.00  0.00    +0.000 OA
ATOM     13  H   UNL     1      52.340   7.681   8.819  0.00  0.00    +0.000 HD
BRANCH  11  14
ATOM     14  C   UNL     1      53.910   5.764   8.833  0.00  0.00    +0.000 A 
ATOM     15  C   UNL     1      53.166   5.740   7.622  0.00  0.00    +0.000 A 
ATOM     16  C   UNL     1      53.704   4.717   6.881  0.00  0.00    +0.000 A 
ATOM     17  N   UNL     1      54.703   4.191   7.644  0.00  0.00    +0.000 N 
ATOM     18  N   UNL     1      54.866   4.810   8.827  0.00  0.00    +0.000 NA
ATOM     19  H   UNL     1      55.313   3.411   7.420  0.00  0.00    +0.000 HD
ENDBRANCH  11  14
ENDBRANCH   9  10
ENDBRANCH   6   9
ENDBRANCH   2   3
BRANCH   2  20
ATOM     20  N   UNL     1      47.049   5.955  13.070  0.00  0.00    +0.000 N 
ATOM     21  C   UNL     1      45.770   6.208  12.649  0.00  0.00    +0.000 C 
ATOM     22  O   UNL     1      45.262   7.324  12.696  0.00  0.00    +0.000 OA
ATOM     23  H   UNL     1      47.360   4.994  13.151  0.00  0.00    +0.000 HD
BRANCH  21  24
ATOM     24  C   UNL     1      45.030   5.059  12.114  0.00  0.00    +0.000 A 
ATOM     25  C   UNL     1      44.270   4.260  12.956  0.00  0.00    +0.000 A 
ATOM     26  S   UNL     1      43.543   2.937  12.160  0.00  0.00    +0.000 S 
ATOM     27  C   UNL     1      44.263   3.361  10.677  0.00  0.00    +0.000 A 
ATOM     28  N   UNL     1      44.109   2.582   9.572  0.00  0.00    +0.000 NA
ATOM     29  C   UNL     1      44.746   3.000   8.531  0.00  0.00    +0.000 A 
ATOM     30  N   UNL     1      45.502   4.144   8.484  0.00  0.00    +0.000 N 
ATOM     31  C   UNL     1      45.625   4.999   9.552  0.00  0.00    +0.000 A 
ATOM     32  O   UNL     1      46.201   6.077   9.439  0.00  0.00    +0.000 OA
ATOM     33  C   UNL     1      44.990   4.532  10.769  0.00  0.00    +0.000 A 
ATOM     34  H   UNL     1      45.938   4.438   7.623  0.00  0.00    +0.000 HD
ENDBRANCH  21  24
ENDBRANCH   2  20
TORSDOF 6
ENDMDL
MODEL 9
REMARK VINA RESULT:    -6.669      3.541      5.018
REMARK INTER + INTRA:          -9.355
REMARK INTER:                  -8.170
REMARK INTRA:                  -1.185
REMARK UNBOUND:                -0.347
REMARK  Name = 
REMARK  7 active torsions:
REMARK  status: ('A' for Active; 'I' for Inactive)
REMARK    1  A    between atoms: C_1  and  C_2
REMARK    2  A    between atoms: C_2  and  N_3
REMARK    3  A    between atoms: C_2  and  C_16
REMARK    4  A    between atoms: C_4  and  C_6
REMARK    5  A    between atoms: C_19  and  C_20
REMARK    6  A    between atoms: C_20  and  N_21
REMARK    7  A    between atoms: C_22  and  C_24
REMARK                            x       y       z     vdW  Elec       q    Type
REMARK                         _______ _______ _______ _____ _____    ______ ____
ROOT
ATOM      1  C   UNL     1      47.986   9.540  15.521  0.00  0.00    +0.000 C 
ATOM      2  C   UNL     1      48.484   8.238  14.878  0.00  0.00    +0.000 C 
ENDROOT
BRANCH   2   3
ATOM      3  C   UNL     1      47.540   7.686  13.821  0.00  0.00    +0.000 A 
ATOM      4  C   UNL     1      47.665   6.349  13.411  0.00  0.00    +0.000 A 
ATOM      5  C   UNL     1      46.768   5.791  12.491  0.00  0.00    +0.000 A 
ATOM      6  C   UNL     1      45.734   6.561  11.947  0.00  0.00    +0.000 A 
ATOM      7  C   UNL     1      45.630   7.905  12.324  0.00  0.00    +0.000 A 
ATOM      8  C   UNL     1      46.534   8.464  13.229  0.00  0.00    +0.000 A 
BRANCH   6   9
ATOM      9  C   UNL     1      44.742   5.969  10.983  0.00  0.00    +0.000 C 
BRANCH   9  10
ATOM     10  N   UNL     1      45.378   5.359   9.846  0.00  0.00    +0.000 N 
ATOM     11  C   UNL     1      45.157   4.036   9.531  0.00  0.00    +0.000 C 
ATOM     12  O   UNL     1      44.437   3.299  10.199  0.00  0.00    +0.000 OA
ATOM     13  H   UNL     1      45.945   5.896   9.196  0.00  0.00    +0.000 HD
BRANCH  11  14
ATOM     14  C   UNL     1      45.860   3.579   8.322  0.00  0.00    +0.000 A 
ATOM     15  C   UNL     1      46.137   2.231   7.964  0.00  0.00    +0.000 A 
ATOM     16  C   UNL     1      46.820   2.301   6.775  0.00  0.00    +0.000 A 
ATOM     17  N   UNL     1      46.922   3.628   6.482  0.00  0.00    +0.000 N 
ATOM     18  N   UNL     1      46.340   4.430   7.390  0.00  0.00    +0.000 NA
ATOM     19  H   UNL     1      47.376   4.055   5.681  0.00  0.00    +0.000 HD
ENDBRANCH  11  14
ENDBRANCH   9  10
ENDBRANCH   6   9
ENDBRANCH   2   3
BRANCH   2  20
ATOM     20  N   UNL     1      49.804   8.438  14.307  0.00  0.00    +0.000 N 
ATOM     21  C   UNL     1      50.902   7.750  14.753  0.00  0.00    +0.000 C 
ATOM     22  O   UNL     1      50.821   6.781  15.501  0.00  0.00    +0.000 OA
ATOM     23  H   UNL     1      49.938   9.316  13.820  0.00  0.00    +0.000 HD
BRANCH  21  24
ATOM     24  C   UNL     1      52.202   8.229  14.268  0.00  0.00    +0.000 A 
ATOM     25  C   UNL     1      53.220   8.521  15.165  0.00  0.00    +0.000 A 
ATOM     26  S   UNL     1      54.628   9.129  14.414  0.00  0.00    +0.000 S 
ATOM     27  C   UNL     1      53.901   9.070  12.876  0.00  0.00    +0.000 A 
ATOM     28  N   UNL     1      54.551   9.533  11.773  0.00  0.00    +0.000 NA
ATOM     29  C   UNL     1      53.865   9.468  10.683  0.00  0.00    +0.000 A 
ATOM     30  N   UNL     1      52.596   8.955  10.587  0.00  0.00    +0.000 N 
ATOM     31  C   UNL     1      51.931   8.409  11.658  0.00  0.00    +0.000 A 
ATOM     32  O   UNL     1      50.851   7.843  11.514  0.00  0.00    +0.000 OA
ATOM     33  C   UNL     1      52.631   8.530  12.922  0.00  0.00    +0.000 A 
ATOM     34  H   UNL     1      52.132   8.892   9.693  0.00  0.00    +0.000 HD
ENDBRANCH  21  24
ENDBRANCH   2  20
TORSDOF 6
ENDMDL
