MODEL 1
REMARK VINA RESULT:    -7.390      0.000      0.000
REMARK INTER + INTRA:         -11.243
REMARK INTER:                  -9.982
REMARK INTRA:                  -1.261
REMARK UNBOUND:                -1.261
REMARK  Name = 
REMARK  6 active torsions:
REMARK  status: ('A' for Active; 'I' for Inactive)
REMARK    1  A    between atoms: C_2  and  C_18
REMARK    2  A    between atoms: N_3  and  C_4
REMARK    3  A    between atoms: C_4  and  C_5
REMARK    4  A    between atoms: C_8  and  C_9
REMARK    5  A    between atoms: C_9  and  N_10
REMARK    6  A    between atoms: N_10  and  C_11
REMARK                            x       y       z     vdW  Elec       q    Type
REMARK                         _______ _______ _______ _____ _____    ______ ____
ROOT
ATOM      1  C   UNL     1      46.811   7.935  13.245  0.00  0.00    +0.000 C 
ENDROOT
BRANCH   1   2
ATOM      2  C   UNL     1      46.103   6.805  12.541  0.00  0.00    +0.000 A 
ATOM      3  C   UNL     1      46.314   6.575  11.174  0.00  0.00    +0.000 A 
ATOM      4  C   UNL     1      45.700   5.497  10.529  0.00  0.00    +0.000 A 
ATOM      5  C   UNL     1      44.867   4.622  11.239  0.00  0.00    +0.000 A 
ATOM      6  C   UNL     1      44.641   4.863  12.599  0.00  0.00    +0.000 A 
ATOM      7  C   UNL     1      45.245   5.947  13.242  0.00  0.00    +0.000 A 
BRANCH   5   8
ATOM      8  C   UNL     1      44.153   3.492  10.539  0.00  0.00    +0.000 C 
BRANCH   8   9
ATOM      9  N   UNL     1      45.072   2.444  10.083  0.00  0.00    +0.000 NA
ATOM     10  H   UNL     1      44.974   1.647  10.709  0.00  0.00    +0.000 HD
BRANCH   9  11
ATOM     11  C   UNL     1      44.762   2.017   8.730  0.00  0.00    +0.000 C 
ATOM     12  C   UNL     1      44.852   3.117   7.679  0.00  0.00    +0.000 C 
ATOM     13  C   UNL     1      46.344   3.307   7.503  0.00  0.00    +0.000 C 
ATOM     14  C   UNL     1      46.914   1.920   7.754  0.00  0.00    +0.000 C 
ATOM     15  N   UNL     1      45.828   1.114   8.327  0.00  0.00    +0.000 NA
ATOM     16  H   UNL     1      46.166   0.590   9.127  0.00  0.00    +0.000 HD
ENDBRANCH   9  11
ENDBRANCH   8   9
ENDBRANCH   5   8
ENDBRANCH   1   2
BRANCH   1  19
ATOM     17  O   UNL     1      49.372   6.749  13.390  0.00  0.00    +0.000 OA
ATOM     18  C   UNL     1      48.755   6.975  14.426  0.00  0.00    +0.000 C 
ATOM     19  N   UNL     1      47.494   7.515  14.438  0.00  0.00    +0.000 N 
ATOM     20  H   UNL     1      47.083   7.811  15.316  0.00  0.00    +0.000 HD
BRANCH  18  21
ATOM     21  C   UNL     1      49.318   6.638  15.738  0.00  0.00    +0.000 A 
ATOM     22  C   UNL     1      50.359   7.382  16.282  0.00  0.00    +0.000 A 
ATOM     23  S   UNL     1      50.833   6.839  17.831  0.00  0.00    +0.000 S 
ATOM     24  C   UNL     1      49.653   5.614  17.829  0.00  0.00    +0.000 A 
ATOM     25  N   UNL     1      49.488   4.779  18.895  0.00  0.00    +0.000 NA
ATOM     26  C   UNL     1      48.532   3.926  18.757  0.00  0.00    +0.000 A 
ATOM     27  N   UNL     1      47.729   3.810  17.655  0.00  0.00    +0.000 N 
ATOM     28  C   UNL     1      47.916   4.564  16.533  0.00  0.00    +0.000 A 
ATOM     29  O   UNL     1      47.291   4.316  15.503  0.00  0.00    +0.000 OA
ATOM     30  C   UNL     1      48.934   5.592  16.649  0.00  0.00    +0.000 A 
ATOM     31  H   UNL     1      47.034   3.088  17.589  0.00  0.00    +0.000 HD
ENDBRANCH  18  21
ENDBRANCH   1  19
TORSDOF 6
ENDMDL
MODEL 2
REMARK VINA RESULT:    -7.015      2.247      2.724
REMARK INTER + INTRA:         -10.737
REMARK INTER:                  -9.638
REMARK INTRA:                  -1.099
REMARK UNBOUND:                -1.261
REMARK  Name = 
REMARK  6 active torsions:
REMARK  status: ('A' for Active; 'I' for Inactive)
REMARK    1  A    between atoms: C_2  and  C_18
REMARK    2  A    between atoms: N_3  and  C_4
REMARK    3  A    between atoms: C_4  and  C_5
REMARK    4  A    between atoms: C_8  and  C_9
REMARK    5  A    between atoms: C_9  and  N_10
REMARK    6  A    between atoms: N_10  and  C_11
REMARK                            x       y       z     vdW  Elec       q    Type
REMARK                         _______ _______ _______ _____ _____    ______ ____
ROOT
ATOM      1  C   UNL     1      48.005   7.109  13.812  0.00  0.00    +0.000 C 
ENDROOT
BRANCH   1   2
ATOM      2  C   UNL     1      47.094   6.224  12.999  0.00  0.00    +0.000 A 
ATOM      3  C   UNL     1      46.619   5.015  13.529  0.00  0.00    +0.000 A 
ATOM      4  C   UNL     1      45.734   4.216  12.800  0.00  0.00    +0.000 A 
ATOM      5  C   UNL     1      45.299   4.612  11.528  0.00  0.00    +0.000 A 
ATOM      6  C   UNL     1      45.787   5.809  10.991  0.00  0.00    +0.000 A 
ATOM      7  C   UNL     1      46.682   6.603  11.715  0.00  0.00    +0.000 A 
BRANCH   5   8
ATOM      8  C   UNL     1      44.391   3.729  10.709  0.00  0.00    +0.000 C 
BRANCH   8   9
ATOM      9  N   UNL     1      45.064   2.515  10.235  0.00  0.00    +0.000 NA
ATOM     10  H   UNL     1      44.796   1.748  10.847  0.00  0.00    +0.000 HD
BRANCH   9  11
ATOM     11  C   UNL     1      44.675   2.188   8.875  0.00  0.00    +0.000 C 
ATOM     12  C   UNL     1      44.804   3.337   7.882  0.00  0.00    +0.000 C 
ATOM     13  C   UNL     1      46.297   3.433   7.654  0.00  0.00    +0.000 C 
ATOM     14  C   UNL     1      46.776   1.998   7.807  0.00  0.00    +0.000 C 
ATOM     15  N   UNL     1      45.658   1.238   8.380  0.00  0.00    +0.000 NA
ATOM     16  H   UNL     1      45.988   0.647   9.136  0.00  0.00    +0.000 HD
ENDBRANCH   9  11
ENDBRANCH   8   9
ENDBRANCH   5   8
ENDBRANCH   1   2
BRANCH   1  19
ATOM     17  O   UNL     1      50.159   6.517  15.543  0.00  0.00    +0.000 OA
ATOM     18  C   UNL     1      49.026   6.607  16.003  0.00  0.00    +0.000 C 
ATOM     19  N   UNL     1      47.924   6.856  15.225  0.00  0.00    +0.000 N 
ATOM     20  H   UNL     1      47.034   7.058  15.665  0.00  0.00    +0.000 HD
BRANCH  18  21
ATOM     21  C   UNL     1      48.766   6.408  17.433  0.00  0.00    +0.000 A 
ATOM     22  C   UNL     1      48.994   5.177  18.037  0.00  0.00    +0.000 A 
ATOM     23  S   UNL     1      48.660   5.180  19.713  0.00  0.00    +0.000 S 
ATOM     24  C   UNL     1      48.225   6.824  19.685  0.00  0.00    +0.000 A 
ATOM     25  N   UNL     1      47.855   7.485  20.820  0.00  0.00    +0.000 NA
ATOM     26  C   UNL     1      47.588   8.732  20.641  0.00  0.00    +0.000 A 
ATOM     27  N   UNL     1      47.637   9.390  19.442  0.00  0.00    +0.000 N 
ATOM     28  C   UNL     1      47.915   8.748  18.270  0.00  0.00    +0.000 A 
ATOM     29  O   UNL     1      47.782   9.329  17.194  0.00  0.00    +0.000 OA
ATOM     30  C   UNL     1      48.294   7.354  18.410  0.00  0.00    +0.000 A 
ATOM     31  H   UNL     1      47.365  10.353  19.363  0.00  0.00    +0.000 HD
ENDBRANCH  18  21
ENDBRANCH   1  19
TORSDOF 6
ENDMDL
MODEL 3
REMARK VINA RESULT:    -6.996      4.031      8.796
REMARK INTER + INTRA:         -10.711
REMARK INTER:                  -9.829
REMARK INTRA:                  -0.881
REMARK UNBOUND:                -1.261
REMARK  Name = 
REMARK  6 active torsions:
REMARK  status: ('A' for Active; 'I' for Inactive)
REMARK    1  A    between atoms: C_2  and  C_18
REMARK    2  A    between atoms: N_3  and  C_4
REMARK    3  A    between atoms: C_4  and  C_5
REMARK    4  A    between atoms: C_8  and  C_9
REMARK    5  A    between atoms: C_9  and  N_10
REMARK    6  A    between atoms: N_10  and  C_11
REMARK                            x       y       z     vdW  Elec       q    Type
REMARK                         _______ _______ _______ _____ _____    ______ ____
ROOT
ATOM      1  C   UNL     1      47.149   3.399  16.811  0.00  0.00    +0.000 C 
ENDROOT
BRANCH   1   2
ATOM      2  C   UNL     1      48.629   3.365  17.101  0.00  0.00    +0.000 A 
ATOM      3  C   UNL     1      49.291   4.516  17.551  0.00  0.00    +0.000 A 
ATOM      4  C   UNL     1      50.652   4.477  17.870  0.00  0.00    +0.000 A 
ATOM      5  C   UNL     1      51.377   3.284  17.752  0.00  0.00    +0.000 A 
ATOM      6  C   UNL     1      50.720   2.139  17.284  0.00  0.00    +0.000 A 
ATOM      7  C   UNL     1      49.363   2.181  16.954  0.00  0.00    +0.000 A 
BRANCH   5   8
ATOM      8  C   UNL     1      52.858   3.245  18.037  0.00  0.00    +0.000 C 
BRANCH   8   9
ATOM      9  N   UNL     1      53.246   2.083  18.843  0.00  0.00    +0.000 NA
ATOM     10  H   UNL     1      52.598   1.327  18.635  0.00  0.00    +0.000 HD
BRANCH   9  11
ATOM     11  C   UNL     1      54.594   1.644  18.529  0.00  0.00    +0.000 C 
ATOM     12  C   UNL     1      54.967   0.279  19.096  0.00  0.00    +0.000 C 
ATOM     13  C   UNL     1      54.219  -0.685  18.200  0.00  0.00    +0.000 C 
ATOM     14  C   UNL     1      54.193   0.023  16.855  0.00  0.00    +0.000 C 
ATOM     15  N   UNL     1      54.629   1.405  17.096  0.00  0.00    +0.000 NA
ATOM     16  H   UNL     1      54.014   2.054  16.616  0.00  0.00    +0.000 HD
ENDBRANCH   9  11
ENDBRANCH   8   9
ENDBRANCH   5   8
ENDBRANCH   1   2
BRANCH   1  19
ATOM     17  O   UNL     1      47.224   3.116  14.001  0.00  0.00    +0.000 OA
ATOM     18  C   UNL     1      46.821   4.167  14.487  0.00  0.00    +0.000 C 
ATOM     19  N   UNL     1      46.787   4.395  15.840  0.00  0.00    +0.000 N 
ATOM     20  H   UNL     1      46.320   5.219  16.198  0.00  0.00    +0.000 HD
BRANCH  18  21
ATOM     21  C   UNL     1      46.382   5.281  13.641  0.00  0.00    +0.000 A 
ATOM     22  C   UNL     1      47.205   6.378  13.419  0.00  0.00    +0.000 A 
ATOM     23  S   UNL     1      46.510   7.538  12.373  0.00  0.00    +0.000 S 
ATOM     24  C   UNL     1      45.105   6.601  12.170  0.00  0.00    +0.000 A 
ATOM     25  N   UNL     1      44.089   7.005  11.354  0.00  0.00    +0.000 NA
ATOM     26  C   UNL     1      43.109   6.172  11.279  0.00  0.00    +0.000 A 
ATOM     27  N   UNL     1      43.029   4.980  11.945  0.00  0.00    +0.000 N 
ATOM     28  C   UNL     1      43.980   4.579  12.839  0.00  0.00    +0.000 A 
ATOM     29  O   UNL     1      43.794   3.591  13.546  0.00  0.00    +0.000 OA
ATOM     30  C   UNL     1      45.146   5.440  12.919  0.00  0.00    +0.000 A 
ATOM     31  H   UNL     1      42.212   4.400  11.884  0.00  0.00    +0.000 HD
ENDBRANCH  18  21
ENDBRANCH   1  19
TORSDOF 6
ENDMDL
MODEL 4
REMARK VINA RESULT:    -6.903      4.107      8.471
REMARK INTER + INTRA:         -10.585
REMARK INTER:                  -9.682
REMARK INTRA:                  -0.902
REMARK UNBOUND:                -1.261
REMARK  Name = 
REMARK  6 active torsions:
REMARK  status: ('A' for Active; 'I' for Inactive)
REMARK    1  A    between atoms: C_2  and  C_18
REMARK    2  A    between atoms: N_3  and  C_4
REMARK    3  A    between atoms: C_4  and  C_5
REMARK    4  A    between atoms: C_8  and  C_9
REMARK    5  A    between atoms: C_9  and  N_10
REMARK    6  A    between atoms: N_10  and  C_11
REMARK                            x       y       z     vdW  Elec       q    Type
REMARK                         _______ _______ _______ _____ _____    ______ ____
ROOT
ATOM      1  C   UNL     1      48.852   6.090  17.005  0.00  0.00    +0.000 C 
ENDROOT
BRANCH   1   2
ATOM      2  C   UNL     1      49.576   4.775  17.153  0.00  0.00    +0.000 A 
ATOM      3  C   UNL     1      50.953   4.747  17.413  0.00  0.00    +0.000 A 
ATOM      4  C   UNL     1      51.618   3.532  17.603  0.00  0.00    +0.000 A 
ATOM      5  C   UNL     1      50.918   2.319  17.543  0.00  0.00    +0.000 A 
ATOM      6  C   UNL     1      49.546   2.347  17.265  0.00  0.00    +0.000 A 
ATOM      7  C   UNL     1      48.883   3.561  17.064  0.00  0.00    +0.000 A 
BRANCH   5   8
ATOM      8  C   UNL     1      51.636   1.001  17.687  0.00  0.00    +0.000 C 
BRANCH   8   9
ATOM      9  N   UNL     1      52.897   1.125  18.426  0.00  0.00    +0.000 NA
ATOM     10  H   UNL     1      52.850   0.505  19.232  0.00  0.00    +0.000 HD
BRANCH   9  11
ATOM     11  C   UNL     1      54.034   0.744  17.608  0.00  0.00    +0.000 C 
ATOM     12  C   UNL     1      55.377   0.783  18.326  0.00  0.00    +0.000 C 
ATOM     13  C   UNL     1      55.334  -0.447  19.209  0.00  0.00    +0.000 C 
ATOM     14  C   UNL     1      54.496  -1.432  18.410  0.00  0.00    +0.000 C 
ATOM     15  N   UNL     1      53.878  -0.671  17.316  0.00  0.00    +0.000 NA
ATOM     16  H   UNL     1      52.895  -0.908  17.237  0.00  0.00    +0.000 HD
ENDBRANCH   9  11
ENDBRANCH   8   9
ENDBRANCH   5   8
ENDBRANCH   1   2
BRANCH   1  19
ATOM     17  O   UNL     1      49.411   6.625  14.287  0.00  0.00    +0.000 OA
ATOM     18  C   UNL     1      48.267   6.334  14.618  0.00  0.00    +0.000 C 
ATOM     19  N   UNL     1      47.908   6.095  15.921  0.00  0.00    +0.000 N 
ATOM     20  H   UNL     1      46.988   5.725  16.128  0.00  0.00    +0.000 HD
BRANCH  18  21
ATOM     21  C   UNL     1      47.182   6.263  13.634  0.00  0.00    +0.000 A 
ATOM     22  C   UNL     1      46.696   7.412  13.022  0.00  0.00    +0.000 A 
ATOM     23  S   UNL     1      45.462   7.095  11.883  0.00  0.00    +0.000 S 
ATOM     24  C   UNL     1      45.556   5.418  12.157  0.00  0.00    +0.000 A 
ATOM     25  N   UNL     1      44.776   4.537  11.469  0.00  0.00    +0.000 NA
ATOM     26  C   UNL     1      44.988   3.300  11.764  0.00  0.00    +0.000 A 
ATOM     27  N   UNL     1      45.892   2.851  12.688  0.00  0.00    +0.000 N 
ATOM     28  C   UNL     1      46.628   3.701  13.462  0.00  0.00    +0.000 A 
ATOM     29  O   UNL     1      47.299   3.270  14.398  0.00  0.00    +0.000 OA
ATOM     30  C   UNL     1      46.487   5.107  13.131  0.00  0.00    +0.000 A 
ATOM     31  H   UNL     1      45.971   1.874  12.909  0.00  0.00    +0.000 HD
ENDBRANCH  18  21
ENDBRANCH   1  19
TORSDOF 6
ENDMDL
MODEL 5
REMARK VINA RESULT:    -6.704      3.073      7.846
REMARK INTER + INTRA:         -10.316
REMARK INTER:                  -9.184
REMARK INTRA:                  -1.132
REMARK UNBOUND:                -1.261
REMARK  Name = 
REMARK  6 active torsions:
REMARK  status: ('A' for Active; 'I' for Inactive)
REMARK    1  A    between atoms: C_2  and  C_18
REMARK    2  A    between atoms: N_3  and  C_4
REMARK    3  A    between atoms: C_4  and  C_5
REMARK    4  A    between atoms: C_8  and  C_9
REMARK    5  A    between atoms: C_9  and  N_10
REMARK    6  A    between atoms: N_10  and  C_11
REMARK                            x       y       z     vdW  Elec       q    Type
REMARK                         _______ _______ _______ _____ _____    ______ ____
ROOT
ATOM      1  C   UNL     1      48.291   7.798  12.290  0.00  0.00    +0.000 C 
ENDROOT
BRANCH   1   2
ATOM      2  C   UNL     1      48.915   7.394  13.602  0.00  0.00    +0.000 A 
ATOM      3  C   UNL     1      50.217   7.803  13.926  0.00  0.00    +0.000 A 
ATOM      4  C   UNL     1      50.780   7.475  15.163  0.00  0.00    +0.000 A 
ATOM      5  C   UNL     1      50.050   6.737  16.105  0.00  0.00    +0.000 A 
ATOM      6  C   UNL     1      48.758   6.313  15.774  0.00  0.00    +0.000 A 
ATOM      7  C   UNL     1      48.199   6.631  14.533  0.00  0.00    +0.000 A 
BRANCH   5   8
ATOM      8  C   UNL     1      50.670   6.327  17.418  0.00  0.00    +0.000 C 
BRANCH   8   9
ATOM      9  N   UNL     1      51.343   5.026  17.340  0.00  0.00    +0.000 NA
ATOM     10  H   UNL     1      52.344   5.184  17.441  0.00  0.00    +0.000 HD
BRANCH   9  11
ATOM     11  C   UNL     1      50.901   4.134  18.397  0.00  0.00    +0.000 C 
ATOM     12  C   UNL     1      49.413   3.808  18.374  0.00  0.00    +0.000 C 
ATOM     13  C   UNL     1      49.288   2.839  17.217  0.00  0.00    +0.000 C 
ATOM     14  C   UNL     1      50.618   2.102  17.222  0.00  0.00    +0.000 C 
ATOM     15  N   UNL     1      51.507   2.841  18.128  0.00  0.00    +0.000 NA
ATOM     16  H   UNL     1      52.419   2.962  17.700  0.00  0.00    +0.000 HD
ENDBRANCH   9  11
ENDBRANCH   8   9
ENDBRANCH   5   8
ENDBRANCH   1   2
BRANCH   1  19
ATOM     17  O   UNL     1      45.517   7.828  11.755  0.00  0.00    +0.000 OA
ATOM     18  C   UNL     1      46.181   6.850  11.427  0.00  0.00    +0.000 C 
ATOM     19  N   UNL     1      47.524   6.745  11.683  0.00  0.00    +0.000 N 
ATOM     20  H   UNL     1      48.055   5.985  11.272  0.00  0.00    +0.000 HD
BRANCH  18  21
ATOM     21  C   UNL     1      45.563   5.695  10.767  0.00  0.00    +0.000 A 
ATOM     22  C   UNL     1      45.738   5.471   9.407  0.00  0.00    +0.000 A 
ATOM     23  S   UNL     1      44.964   4.050   8.856  0.00  0.00    +0.000 S 
ATOM     24  C   UNL     1      44.393   3.684  10.416  0.00  0.00    +0.000 A 
ATOM     25  N   UNL     1      43.666   2.557  10.665  0.00  0.00    +0.000 NA
ATOM     26  C   UNL     1      43.335   2.403  11.900  0.00  0.00    +0.000 A 
ATOM     27  N   UNL     1      43.644   3.266  12.916  0.00  0.00    +0.000 N 
ATOM     28  C   UNL     1      44.291   4.448  12.698  0.00  0.00    +0.000 A 
ATOM     29  O   UNL     1      44.399   5.276  13.600  0.00  0.00    +0.000 OA
ATOM     30  C   UNL     1      44.753   4.650  11.337  0.00  0.00    +0.000 A 
ATOM     31  H   UNL     1      43.310   3.114  13.851  0.00  0.00    +0.000 HD
ENDBRANCH  18  21
ENDBRANCH   1  19
TORSDOF 6
ENDMDL
MODEL 6
REMARK VINA RESULT:    -6.658      2.116      3.698
REMARK INTER + INTRA:         -10.254
REMARK INTER:                  -9.199
REMARK INTRA:                  -1.055
REMARK UNBOUND:                -1.261
REMARK  Name = 
REMARK  6 active torsions:
REMARK  status: ('A' for Active; 'I' for Inactive)
REMARK    1  A    between atoms: C_2  and  C_18
REMARK    2  A    between atoms: N_3  and  C_4
REMARK    3  A    between atoms: C_4  and  C_5
REMARK    4  A    between atoms: C_8  and  C_9
REMARK    5  A    between atoms: C_9  and  N_10
REMARK    6  A    between atoms: N_10  and  C_11
REMARK                            x       y       z     vdW  Elec       q    Type
REMARK                         _______ _______ _______ _____ _____    ______ ____
ROOT
ATOM      1  C   UNL     1      46.370   4.692  14.247  0.00  0.00    +0.000 C 
ENDROOT
BRANCH   1   2
ATOM      2  C   UNL     1      45.911   4.569  12.816  0.00  0.00    +0.000 A 
ATOM      3  C   UNL     1      45.341   3.375  12.352  0.00  0.00    +0.000 A 
ATOM      4  C   UNL     1      44.867   3.273  11.041  0.00  0.00    +0.000 A 
ATOM      5  C   UNL     1      44.947   4.366  10.167  0.00  0.00    +0.000 A 
ATOM      6  C   UNL     1      45.533   5.552  10.625  0.00  0.00    +0.000 A 
ATOM      7  C   UNL     1      46.017   5.651  11.932  0.00  0.00    +0.000 A 
BRANCH   5   8
ATOM      8  C   UNL     1      44.492   4.248   8.734  0.00  0.00    +0.000 C 
BRANCH   8   9
ATOM      9  N   UNL     1      45.041   3.063   8.066  0.00  0.00    +0.000 NA
ATOM     10  H   UNL     1      44.645   3.019   7.129  0.00  0.00    +0.000 HD
BRANCH   9  11
ATOM     11  C   UNL     1      46.487   3.133   7.960  0.00  0.00    +0.000 C 
ATOM     12  C   UNL     1      47.150   1.863   7.441  0.00  0.00    +0.000 C 
ATOM     13  C   UNL     1      46.831   1.884   5.961  0.00  0.00    +0.000 C 
ATOM     14  C   UNL     1      46.787   3.367   5.626  0.00  0.00    +0.000 C 
ATOM     15  N   UNL     1      46.779   4.089   6.905  0.00  0.00    +0.000 NA
ATOM     16  H   UNL     1      46.077   4.821   6.889  0.00  0.00    +0.000 HD
ENDBRANCH   9  11
ENDBRANCH   8   9
ENDBRANCH   5   8
ENDBRANCH   1   2
BRANCH   1  19
ATOM     17  O   UNL     1      48.484   4.957  16.104  0.00  0.00    +0.000 OA
ATOM     18  C   UNL     1      48.192   5.909  15.387  0.00  0.00    +0.000 C 
ATOM     19  N   UNL     1      47.157   5.871  14.487  0.00  0.00    +0.000 N 
ATOM     20  H   UNL     1      47.042   6.628  13.823  0.00  0.00    +0.000 HD
BRANCH  18  21
ATOM     21  C   UNL     1      48.913   7.182  15.479  0.00  0.00    +0.000 A 
ATOM     22  C   UNL     1      48.962   7.893  16.672  0.00  0.00    +0.000 A 
ATOM     23  S   UNL     1      49.887   9.326  16.563  0.00  0.00    +0.000 S 
ATOM     24  C   UNL     1      50.265   9.029  14.931  0.00  0.00    +0.000 A 
ATOM     25  N   UNL     1      51.068   9.871  14.219  0.00  0.00    +0.000 NA
ATOM     26  C   UNL     1      51.289   9.492  13.007  0.00  0.00    +0.000 A 
ATOM     27  N   UNL     1      50.778   8.364  12.425  0.00  0.00    +0.000 N 
ATOM     28  C   UNL     1      49.900   7.543  13.071  0.00  0.00    +0.000 A 
ATOM     29  O   UNL     1      49.328   6.640  12.464  0.00  0.00    +0.000 OA
ATOM     30  C   UNL     1      49.663   7.875  14.464  0.00  0.00    +0.000 A 
ATOM     31  H   UNL     1      50.947   8.154  11.457  0.00  0.00    +0.000 HD
ENDBRANCH  18  21
ENDBRANCH   1  19
TORSDOF 6
ENDMDL
MODEL 7
REMARK VINA RESULT:    -6.449      3.929      8.622
REMARK INTER + INTRA:          -9.972
REMARK INTER:                  -8.849
REMARK INTRA:                  -1.123
REMARK UNBOUND:                -1.261
REMARK  Name = 
REMARK  6 active torsions:
REMARK  status: ('A' for Active; 'I' for Inactive)
REMARK    1  A    between atoms: C_2  and  C_18
REMARK    2  A    between atoms: N_3  and  C_4
REMARK    3  A    between atoms: C_4  and  C_5
REMARK    4  A    between atoms: C_8  and  C_9
REMARK    5  A    between atoms: C_9  and  N_10
REMARK    6  A    between atoms: N_10  and  C_11
REMARK                            x       y       z     vdW  Elec       q    Type
REMARK                         _______ _______ _______ _____ _____    ______ ____
ROOT
ATOM      1  C   UNL     1      47.151   3.507  16.749  0.00  0.00    +0.000 C 
ENDROOT
BRANCH   1   2
ATOM      2  C   UNL     1      48.617   3.435  17.092  0.00  0.00    +0.000 A 
ATOM      3  C   UNL     1      49.285   4.559  17.599  0.00  0.00    +0.000 A 
ATOM      4  C   UNL     1      50.631   4.483  17.967  0.00  0.00    +0.000 A 
ATOM      5  C   UNL     1      51.337   3.278  17.843  0.00  0.00    +0.000 A 
ATOM      6  C   UNL     1      50.676   2.161  17.320  0.00  0.00    +0.000 A 
ATOM      7  C   UNL     1      49.333   2.240  16.940  0.00  0.00    +0.000 A 
BRANCH   5   8
ATOM      8  C   UNL     1      52.805   3.201  18.182  0.00  0.00    +0.000 C 
BRANCH   8   9
ATOM      9  N   UNL     1      53.170   1.932  18.819  0.00  0.00    +0.000 NA
ATOM     10  H   UNL     1      52.546   1.211  18.462  0.00  0.00    +0.000 HD
BRANCH   9  11
ATOM     11  C   UNL     1      54.539   1.558  18.516  0.00  0.00    +0.000 C 
ATOM     12  C   UNL     1      54.959   0.193  19.047  0.00  0.00    +0.000 C 
ATOM     13  C   UNL     1      54.267  -0.773  18.109  0.00  0.00    +0.000 C 
ATOM     14  C   UNL     1      54.234  -0.024  16.786  0.00  0.00    +0.000 C 
ATOM     15  N   UNL     1      54.608   1.366  17.077  0.00  0.00    +0.000 NA
ATOM     16  H   UNL     1      53.975   2.004  16.607  0.00  0.00    +0.000 HD
ENDBRANCH   9  11
ENDBRANCH   8   9
ENDBRANCH   5   8
ENDBRANCH   1   2
BRANCH   1  19
ATOM     17  O   UNL     1      47.248   3.201  13.941  0.00  0.00    +0.000 OA
ATOM     18  C   UNL     1      46.890   4.274  14.416  0.00  0.00    +0.000 C 
ATOM     19  N   UNL     1      46.851   4.513  15.766  0.00  0.00    +0.000 N 
ATOM     20  H   UNL     1      46.419   5.362  16.113  0.00  0.00    +0.000 HD
BRANCH  18  21
ATOM     21  C   UNL     1      46.517   5.402  13.557  0.00  0.00    +0.000 A 
ATOM     22  C   UNL     1      45.370   5.356  12.774  0.00  0.00    +0.000 A 
ATOM     23  S   UNL     1      45.108   6.790  11.882  0.00  0.00    +0.000 S 
ATOM     24  C   UNL     1      46.501   7.519  12.530  0.00  0.00    +0.000 A 
ATOM     25  N   UNL     1      46.858   8.795  12.203  0.00  0.00    +0.000 NA
ATOM     26  C   UNL     1      47.918   9.217  12.801  0.00  0.00    +0.000 A 
ATOM     27  N   UNL     1      48.671   8.492  13.684  0.00  0.00    +0.000 N 
ATOM     28  C   UNL     1      48.402   7.185  13.971  0.00  0.00    +0.000 A 
ATOM     29  O   UNL     1      49.194   6.515  14.630  0.00  0.00    +0.000 OA
ATOM     30  C   UNL     1      47.179   6.669  13.383  0.00  0.00    +0.000 A 
ATOM     31  H   UNL     1      49.518   8.863  14.076  0.00  0.00    +0.000 HD
ENDBRANCH  18  21
ENDBRANCH   1  19
TORSDOF 6
ENDMDL
MODEL 8
REMARK VINA RESULT:    -6.290      4.888      7.842
REMARK INTER + INTRA:          -9.756
REMARK INTER:                  -8.679
REMARK INTRA:                  -1.077
REMARK UNBOUND:                -1.261
REMARK  Name = 
REMARK  6 active torsions:
REMARK  status: ('A' for Active; 'I' for Inactive)
REMARK    1  A    between atoms: C_2  and  C_18
REMARK    2  A    between atoms: N_3  and  C_4
REMARK    3  A    between atoms: C_4  and  C_5
REMARK    4  A    between atoms: C_8  and  C_9
REMARK    5  A    between atoms: C_9  and  N_10
REMARK    6  A    between atoms: N_10  and  C_11
REMARK                            x       y       z     vdW  Elec       q    Type
REMARK                         _______ _______ _______ _____ _____    ______ ____
ROOT
ATOM      1  C   UNL     1      46.696   8.419  12.158  0.00  0.00    +0.000 C 
ENDROOT
BRANCH   1   2
ATOM      2  C   UNL     1      48.150   8.567  11.788  0.00  0.00    +0.000 A 
ATOM      3  C   UNL     1      48.710   9.838  11.596  0.00  0.00    +0.000 A 
ATOM      4  C   UNL     1      50.069   9.983  11.304  0.00  0.00    +0.000 A 
ATOM      5  C   UNL     1      50.900   8.859  11.206  0.00  0.00    +0.000 A 
ATOM      6  C   UNL     1      50.338   7.588  11.379  0.00  0.00    +0.000 A 
ATOM      7  C   UNL     1      48.977   7.443  11.659  0.00  0.00    +0.000 A 
BRANCH   5   8
ATOM      8  C   UNL     1      52.355   9.000  10.833  0.00  0.00    +0.000 C 
BRANCH   8   9
ATOM      9  N   UNL     1      52.565   9.013   9.381  0.00  0.00    +0.000 NA
ATOM     10  H   UNL     1      52.906   9.936   9.121  0.00  0.00    +0.000 HD
BRANCH   9  11
ATOM     11  C   UNL     1      53.546   8.022   8.977  0.00  0.00    +0.000 C 
ATOM     12  C   UNL     1      52.992   6.613   8.797  0.00  0.00    +0.000 C 
ATOM     13  C   UNL     1      52.235   6.703   7.489  0.00  0.00    +0.000 C 
ATOM     14  C   UNL     1      53.021   7.730   6.690  0.00  0.00    +0.000 C 
ATOM     15  N   UNL     1      53.955   8.370   7.627  0.00  0.00    +0.000 NA
ATOM     16  H   UNL     1      53.940   9.376   7.503  0.00  0.00    +0.000 HD
ENDBRANCH   9  11
ENDBRANCH   8   9
ENDBRANCH   5   8
ENDBRANCH   1   2
BRANCH   1  19
ATOM     17  O   UNL     1      44.079   7.666  11.403  0.00  0.00    +0.000 OA
ATOM     18  C   UNL     1      44.924   6.796  11.587  0.00  0.00    +0.000 C 
ATOM     19  N   UNL     1      46.205   7.078  11.988  0.00  0.00    +0.000 N 
ATOM     20  H   UNL     1      46.903   6.343  11.993  0.00  0.00    +0.000 HD
BRANCH  18  21
ATOM     21  C   UNL     1      44.602   5.374  11.428  0.00  0.00    +0.000 A 
ATOM     22  C   UNL     1      43.880   4.692  12.399  0.00  0.00    +0.000 A 
ATOM     23  S   UNL     1      43.586   3.058  11.993  0.00  0.00    +0.000 S 
ATOM     24  C   UNL     1      44.393   3.220  10.504  0.00  0.00    +0.000 A 
ATOM     25  N   UNL     1      44.487   2.181   9.625  0.00  0.00    +0.000 NA
ATOM     26  C   UNL     1      45.098   2.471   8.528  0.00  0.00    +0.000 A 
ATOM     27  N   UNL     1      45.640   3.689   8.221  0.00  0.00    +0.000 N 
ATOM     28  C   UNL     1      45.648   4.728   9.106  0.00  0.00    +0.000 A 
ATOM     29  O   UNL     1      46.293   5.747   8.867  0.00  0.00    +0.000 OA
ATOM     30  C   UNL     1      44.914   4.489  10.336  0.00  0.00    +0.000 A 
ATOM     31  H   UNL     1      46.151   3.834   7.369  0.00  0.00    +0.000 HD
ENDBRANCH  18  21
ENDBRANCH   1  19
TORSDOF 6
ENDMDL
MODEL 9
REMARK VINA RESULT:    -6.213      3.475      8.882
REMARK INTER + INTRA:          -9.653
REMARK INTER:                  -8.701
REMARK INTRA:                  -0.951
REMARK UNBOUND:                -1.261
REMARK  Name = 
REMARK  6 active torsions:
REMARK  status: ('A' for Active; 'I' for Inactive)
REMARK    1  A    between atoms: C_2  and  C_18
REMARK    2  A    between atoms: N_3  and  C_4
REMARK    3  A    between atoms: C_4  and  C_5
REMARK    4  A    between atoms: C_8  and  C_9
REMARK    5  A    between atoms: C_9  and  N_10
REMARK    6  A    between atoms: N_10  and  C_11
REMARK                            x       y       z     vdW  Elec       q    Type
REMARK                         _______ _______ _______ _____ _____    ______ ____
ROOT
ATOM      1  C   UNL     1      47.162   3.401  16.810  0.00  0.00    +0.000 C 
ENDROOT
BRANCH   1   2
ATOM      2  C   UNL     1      48.614   3.505  17.205  0.00  0.00    +0.000 A 
ATOM      3  C   UNL     1      49.479   2.416  17.027  0.00  0.00    +0.000 A 
ATOM      4  C   UNL     1      50.836   2.524  17.343  0.00  0.00    +0.000 A 
ATOM      5  C   UNL     1      51.358   3.727  17.840  0.00  0.00    +0.000 A 
ATOM      6  C   UNL     1      50.491   4.808  18.036  0.00  0.00    +0.000 A 
ATOM      7  C   UNL     1      49.131   4.696  17.730  0.00  0.00    +0.000 A 
BRANCH   5   8
ATOM      8  C   UNL     1      52.809   3.835  18.240  0.00  0.00    +0.000 C 
BRANCH   8   9
ATOM      9  N   UNL     1      53.566   4.744  17.373  0.00  0.00    +0.000 NA
ATOM     10  H   UNL     1      52.900   5.337  16.883  0.00  0.00    +0.000 HD
BRANCH   9  11
ATOM     11  C   UNL     1      54.466   5.585  18.140  0.00  0.00    +0.000 C 
ATOM     12  C   UNL     1      55.086   6.736  17.355  0.00  0.00    +0.000 C 
ATOM     13  C   UNL     1      53.943   7.720  17.222  0.00  0.00    +0.000 C 
ATOM     14  C   UNL     1      53.139   7.510  18.495  0.00  0.00    +0.000 C 
ATOM     15  N   UNL     1      53.649   6.282  19.119  0.00  0.00    +0.000 NA
ATOM     16  H   UNL     1      52.877   5.694  19.415  0.00  0.00    +0.000 HD
ENDBRANCH   9  11
ENDBRANCH   8   9
ENDBRANCH   5   8
ENDBRANCH   1   2
BRANCH   1  19
ATOM     17  O   UNL     1      47.251   3.122  13.999  0.00  0.00    +0.000 OA
ATOM     18  C   UNL     1      46.814   4.159  14.486  0.00  0.00    +0.000 C 
ATOM     19  N   UNL     1      46.771   4.385  15.838  0.00  0.00    +0.000 N 
ATOM     20  H   UNL     1      46.277   5.195  16.196  0.00  0.00    +0.000 HD
BRANCH  18  21
ATOM     21  C   UNL     1      46.342   5.259  13.639  0.00  0.00    +0.000 A 
ATOM     22  C   UNL     1      47.132   6.382  13.418  0.00  0.00    +0.000 A 
ATOM     23  S   UNL     1      46.403   7.520  12.372  0.00  0.00    +0.000 S 
ATOM     24  C   UNL     1      45.027   6.541  12.167  0.00  0.00    +0.000 A 
ATOM     25  N   UNL     1      44.001   6.913  11.349  0.00  0.00    +0.000 NA
ATOM     26  C   UNL     1      43.047   6.051  11.272  0.00  0.00    +0.000 A 
ATOM     27  N   UNL     1      43.003   4.856  11.938  0.00  0.00    +0.000 N 
ATOM     28  C   UNL     1      43.965   4.485  12.833  0.00  0.00    +0.000 A 
ATOM     29  O   UNL     1      43.809   3.491  13.540  0.00  0.00    +0.000 OA
ATOM     30  C   UNL     1      45.103   5.381  12.915  0.00  0.00    +0.000 A 
ATOM     31  H   UNL     1      42.204   4.251  11.875  0.00  0.00    +0.000 HD
ENDBRANCH  18  21
ENDBRANCH   1  19
TORSDOF 6
ENDMDL
