MODEL 1
REMARK VINA RESULT:    -8.393      0.000      0.000
REMARK INTER + INTRA:         -13.983
REMARK INTER:                 -13.054
REMARK INTRA:                  -0.929
REMARK UNBOUND:                -0.929
REMARK  Name = 
REMARK  11 active torsions:
REMARK  status: ('A' for Active; 'I' for Inactive)
REMARK    1  A    between atoms: C_1  and  C_2
REMARK    2  A    between atoms: C_2  and  N_3
REMARK    3  A    between atoms: C_2  and  C_22
REMARK    4  A    between atoms: N_3  and  C_4
REMARK    5  A    between atoms: C_4  and  C_5
REMARK    6  A    between atoms: C_8  and  C_9
REMARK    7  A    between atoms: C_9  and  N_10
REMARK    8  A    between atoms: N_10  and  CA_11
REMARK    9  A    between atoms: CA_11  and  C_12
REMARK   10  A    between atoms: CA_11  and  C_14
REMARK   11  A    between atoms: C_12  and  O_13
REMARK                            x       y       z     vdW  Elec       q    Type
REMARK                         _______ _______ _______ _____ _____    ______ ____
ROOT
ATOM      1  C   UNL     1      47.659   6.246  13.915  0.00  0.00    +0.000 A 
ATOM      2  C   UNL     1      47.841   7.001  12.746  0.00  0.00    +0.000 A 
ATOM      3  C   UNL     1      46.983   6.844  11.653  0.00  0.00    +0.000 A 
ATOM      4  C   UNL     1      45.921   5.930  11.709  0.00  0.00    +0.000 A 
ATOM      5  C   UNL     1      45.740   5.177  12.877  0.00  0.00    +0.000 A 
ATOM      6  C   UNL     1      46.597   5.335  13.968  0.00  0.00    +0.000 A 
ENDROOT
BRANCH   1   7
ATOM      7  C   UNL     1      48.641   6.340  15.059  0.00  0.00    +0.000 C 
BRANCH   7   8
ATOM      8  N   UNL     1      48.646   5.132  15.882  0.00  0.00    +0.000 NA
ATOM      9  H   UNL     1      49.463   4.579  15.620  0.00  0.00    +0.000 HD
BRANCH   8  11
ATOM     10  C   UNL     1      47.596   4.782  18.132  0.00  0.00    +0.000 C 
ATOM     11  C   UNL     1      48.729   5.426  17.320  0.00  0.00    +0.000 C 
BRANCH  11  12
ATOM     12  C   UNL     1      50.078   4.916  17.789  0.00  0.00    +0.000 A 
ATOM     13  C   UNL     1      51.010   5.691  18.464  0.00  0.00    +0.000 A 
ATOM     14  S   UNL     1      52.443   4.853  18.844  0.00  0.00    +0.000 S 
ATOM     15  C   UNL     1      51.864   3.419  18.132  0.00  0.00    +0.000 A 
ATOM     16  N   UNL     1      52.616   2.288  18.119  0.00  0.00    +0.000 NA
ATOM     17  C   UNL     1      52.045   1.277  17.550  0.00  0.00    +0.000 A 
ATOM     18  N   UNL     1      50.791   1.297  16.992  0.00  0.00    +0.000 N 
ATOM     19  C   UNL     1      49.994   2.420  16.973  0.00  0.00    +0.000 A 
ATOM     20  O   UNL     1      48.882   2.401  16.455  0.00  0.00    +0.000 OA
ATOM     21  C   UNL     1      50.593   3.579  17.607  0.00  0.00    +0.000 A 
ATOM     22  H   UNL     1      50.402   0.471  16.564  0.00  0.00    +0.000 HD
ENDBRANCH  11  12
ENDBRANCH   8  11
ENDBRANCH   7   8
ENDBRANCH   1   7
BRANCH   4  23
ATOM     23  C   UNL     1      44.942   5.795  10.564  0.00  0.00    +0.000 C 
BRANCH  23  24
ATOM     24  N   UNL     1      45.561   5.212   9.372  0.00  0.00    +0.000 NA
ATOM     25  H   UNL     1      46.509   4.933   9.645  0.00  0.00    +0.000 HD
BRANCH  24  26
ATOM     26  CA  UNL     1      44.896   3.951   8.930  0.00  0.00    +0.000 C 
BRANCH  26  27
ATOM     27  C   UNL     1      45.790   3.070   8.050  0.00  0.00    +0.000 A 
ATOM     28  C   UNL     1      46.437   3.541   6.909  0.00  0.00    +0.000 A 
ATOM     29  C   UNL     1      47.241   2.674   6.170  0.00  0.00    +0.000 A 
ATOM     30  C   UNL     1      47.381   1.357   6.580  0.00  0.00    +0.000 A 
ATOM     31  C   UNL     1      46.705   0.955   7.718  0.00  0.00    +0.000 A 
ATOM     32  N   UNL     1      45.922   1.773   8.457  0.00  0.00    +0.000 NA
ENDBRANCH  26  27
BRANCH  26  33
ATOM     33  C   UNL     1      44.105   3.243  10.062  0.00  0.00    +0.000 C 
BRANCH  33  34
ATOM     34  O   UNL     1      44.910   2.485  10.964  0.00  0.00    +0.000 OA
ATOM     35  H   UNL     1      45.014   1.601  10.571  0.00  0.00    +0.000 HD
ENDBRANCH  33  34
ENDBRANCH  26  33
ENDBRANCH  24  26
ENDBRANCH  23  24
ENDBRANCH   4  23
TORSDOF 10
ENDMDL
MODEL 2
REMARK VINA RESULT:    -8.369      2.430      3.005
REMARK INTER + INTRA:         -13.946
REMARK INTER:                 -12.523
REMARK INTRA:                  -1.423
REMARK UNBOUND:                -0.929
REMARK  Name = 
REMARK  11 active torsions:
REMARK  status: ('A' for Active; 'I' for Inactive)
REMARK    1  A    between atoms: C_1  and  C_2
REMARK    2  A    between atoms: C_2  and  N_3
REMARK    3  A    between atoms: C_2  and  C_22
REMARK    4  A    between atoms: N_3  and  C_4
REMARK    5  A    between atoms: C_4  and  C_5
REMARK    6  A    between atoms: C_8  and  C_9
REMARK    7  A    between atoms: C_9  and  N_10
REMARK    8  A    between atoms: N_10  and  CA_11
REMARK    9  A    between atoms: CA_11  and  C_12
REMARK   10  A    between atoms: CA_11  and  C_14
REMARK   11  A    between atoms: C_12  and  O_13
REMARK                            x       y       z     vdW  Elec       q    Type
REMARK                         _______ _______ _______ _____ _____    ______ ____
ROOT
ATOM      1  C   UNL     1      46.775   7.867  12.269  0.00  0.00    +0.000 A 
ATOM      2  C   UNL     1      47.055   6.800  11.403  0.00  0.00    +0.000 A 
ATOM      3  C   UNL     1      46.037   5.944  10.971  0.00  0.00    +0.000 A 
ATOM      4  C   UNL     1      44.715   6.142  11.395  0.00  0.00    +0.000 A 
ATOM      5  C   UNL     1      44.436   7.209  12.260  0.00  0.00    +0.000 A 
ATOM      6  C   UNL     1      45.454   8.064  12.689  0.00  0.00    +0.000 A 
ENDROOT
BRANCH   1   7
ATOM      7  C   UNL     1      47.885   8.733  12.817  0.00  0.00    +0.000 C 
BRANCH   7   8
ATOM      8  N   UNL     1      48.170   8.442  14.221  0.00  0.00    +0.000 NA
ATOM      9  H   UNL     1      47.303   8.124  14.656  0.00  0.00    +0.000 HD
BRANCH   8  11
ATOM     10  C   UNL     1      50.617   7.898  14.179  0.00  0.00    +0.000 C 
ATOM     11  C   UNL     1      49.183   7.390  14.387  0.00  0.00    +0.000 C 
BRANCH  11  12
ATOM     12  C   UNL     1      49.010   6.842  15.791  0.00  0.00    +0.000 A 
ATOM     13  C   UNL     1      49.533   7.441  16.929  0.00  0.00    +0.000 A 
ATOM     14  S   UNL     1      49.196   6.585  18.362  0.00  0.00    +0.000 S 
ATOM     15  C   UNL     1      48.327   5.391  17.516  0.00  0.00    +0.000 A 
ATOM     16  N   UNL     1      47.755   4.345  18.166  0.00  0.00    +0.000 NA
ATOM     17  C   UNL     1      47.123   3.521  17.395  0.00  0.00    +0.000 A 
ATOM     18  N   UNL     1      47.014   3.649  16.034  0.00  0.00    +0.000 N 
ATOM     19  C   UNL     1      47.583   4.686  15.328  0.00  0.00    +0.000 A 
ATOM     20  O   UNL     1      47.471   4.761  14.108  0.00  0.00    +0.000 OA
ATOM     21  C   UNL     1      48.298   5.640  16.154  0.00  0.00    +0.000 A 
ATOM     22  H   UNL     1      46.504   2.970  15.489  0.00  0.00    +0.000 HD
ENDBRANCH  11  12
ENDBRANCH   8  11
ENDBRANCH   7   8
ENDBRANCH   1   7
BRANCH   4  23
ATOM     23  C   UNL     1      43.589   5.270  10.884  0.00  0.00    +0.000 C 
BRANCH  23  24
ATOM     24  N   UNL     1      43.878   4.711   9.563  0.00  0.00    +0.000 NA
ATOM     25  H   UNL     1      44.755   5.142   9.251  0.00  0.00    +0.000 HD
BRANCH  24  26
ATOM     26  CA  UNL     1      44.157   3.245   9.600  0.00  0.00    +0.000 C 
BRANCH  26  27
ATOM     27  C   UNL     1      45.261   2.812   8.630  0.00  0.00    +0.000 A 
ATOM     28  C   UNL     1      45.851   3.679   7.712  0.00  0.00    +0.000 A 
ATOM     29  C   UNL     1      46.857   3.205   6.870  0.00  0.00    +0.000 A 
ATOM     30  C   UNL     1      47.253   1.879   6.958  0.00  0.00    +0.000 A 
ATOM     31  C   UNL     1      46.620   1.073   7.887  0.00  0.00    +0.000 A 
ATOM     32  N   UNL     1      45.645   1.504   8.718  0.00  0.00    +0.000 NA
ENDBRANCH  26  27
BRANCH  26  33
ATOM     33  C   UNL     1      44.219   2.667  11.040  0.00  0.00    +0.000 C 
BRANCH  33  34
ATOM     34  O   UNL     1      43.079   1.898  11.420  0.00  0.00    +0.000 OA
ATOM     35  H   UNL     1      43.352   0.964  11.398  0.00  0.00    +0.000 HD
ENDBRANCH  33  34
ENDBRANCH  26  33
ENDBRANCH  24  26
ENDBRANCH  23  24
ENDBRANCH   4  23
TORSDOF 10
ENDMDL
MODEL 3
REMARK VINA RESULT:    -8.146      2.105      2.867
REMARK INTER + INTRA:         -13.598
REMARK INTER:                 -12.060
REMARK INTRA:                  -1.539
REMARK UNBOUND:                -0.929
REMARK  Name = 
REMARK  11 active torsions:
REMARK  status: ('A' for Active; 'I' for Inactive)
REMARK    1  A    between atoms: C_1  and  C_2
REMARK    2  A    between atoms: C_2  and  N_3
REMARK    3  A    between atoms: C_2  and  C_22
REMARK    4  A    between atoms: N_3  and  C_4
REMARK    5  A    between atoms: C_4  and  C_5
REMARK    6  A    between atoms: C_8  and  C_9
REMARK    7  A    between atoms: C_9  and  N_10
REMARK    8  A    between atoms: N_10  and  CA_11
REMARK    9  A    between atoms: CA_11  and  C_12
REMARK   10  A    between atoms: CA_11  and  C_14
REMARK   11  A    between atoms: C_12  and  O_13
REMARK                            x       y       z     vdW  Elec       q    Type
REMARK                         _______ _______ _______ _____ _____    ______ ____
ROOT
ATOM      1  C   UNL     1      47.805   6.843  13.188  0.00  0.00    +0.000 A 
ATOM      2  C   UNL     1      47.113   7.646  12.270  0.00  0.00    +0.000 A 
ATOM      3  C   UNL     1      45.839   7.285  11.822  0.00  0.00    +0.000 A 
ATOM      4  C   UNL     1      45.229   6.111  12.288  0.00  0.00    +0.000 A 
ATOM      5  C   UNL     1      45.921   5.310  13.206  0.00  0.00    +0.000 A 
ATOM      6  C   UNL     1      47.193   5.673  13.653  0.00  0.00    +0.000 A 
ENDROOT
BRANCH   1   7
ATOM      7  C   UNL     1      49.221   7.177  13.598  0.00  0.00    +0.000 C 
BRANCH   7   8
ATOM      8  N   UNL     1      49.613   6.496  14.831  0.00  0.00    +0.000 NA
ATOM      9  H   UNL     1      50.313   5.793  14.590  0.00  0.00    +0.000 HD
BRANCH   8  11
ATOM     10  C   UNL     1      50.261   8.866  15.334  0.00  0.00    +0.000 C 
ATOM     11  C   UNL     1      50.200   7.411  15.821  0.00  0.00    +0.000 C 
BRANCH  11  12
ATOM     12  C   UNL     1      49.347   7.302  17.070  0.00  0.00    +0.000 A 
ATOM     13  C   UNL     1      48.519   8.314  17.536  0.00  0.00    +0.000 A 
ATOM     14  S   UNL     1      47.699   7.912  18.974  0.00  0.00    +0.000 S 
ATOM     15  C   UNL     1      48.412   6.367  19.019  0.00  0.00    +0.000 A 
ATOM     16  N   UNL     1      48.125   5.490  20.016  0.00  0.00    +0.000 NA
ATOM     17  C   UNL     1      48.735   4.354  19.916  0.00  0.00    +0.000 A 
ATOM     18  N   UNL     1      49.605   4.017  18.910  0.00  0.00    +0.000 N 
ATOM     19  C   UNL     1      49.934   4.874  17.882  0.00  0.00    +0.000 A 
ATOM     20  O   UNL     1      50.725   4.540  17.005  0.00  0.00    +0.000 OA
ATOM     21  C   UNL     1      49.267   6.160  17.950  0.00  0.00    +0.000 A 
ATOM     22  H   UNL     1      50.047   3.111  18.889  0.00  0.00    +0.000 HD
ENDBRANCH  11  12
ENDBRANCH   8  11
ENDBRANCH   7   8
ENDBRANCH   1   7
BRANCH   4  23
ATOM     23  C   UNL     1      43.824   5.739  11.869  0.00  0.00    +0.000 C 
BRANCH  23  24
ATOM     24  N   UNL     1      43.753   5.342  10.462  0.00  0.00    +0.000 NA
ATOM     25  H   UNL     1      44.625   5.662  10.026  0.00  0.00    +0.000 HD
BRANCH  24  26
ATOM     26  CA  UNL     1      43.745   3.861  10.274  0.00  0.00    +0.000 C 
BRANCH  26  27
ATOM     27  C   UNL     1      44.782   3.372   9.258  0.00  0.00    +0.000 A 
ATOM     28  C   UNL     1      45.443   4.224   8.375  0.00  0.00    +0.000 A 
ATOM     29  C   UNL     1      46.380   3.697   7.487  0.00  0.00    +0.000 A 
ATOM     30  C   UNL     1      46.638   2.335   7.495  0.00  0.00    +0.000 A 
ATOM     31  C   UNL     1      45.940   1.548   8.393  0.00  0.00    +0.000 A 
ATOM     32  N   UNL     1      45.029   2.029   9.267  0.00  0.00    +0.000 NA
ENDBRANCH  26  27
BRANCH  26  33
ATOM     33  C   UNL     1      43.640   3.073  11.608  0.00  0.00    +0.000 C 
BRANCH  33  34
ATOM     34  O   UNL     1      43.025   1.791  11.492  0.00  0.00    +0.000 OA
ATOM     35  H   UNL     1      42.115   1.885  11.825  0.00  0.00    +0.000 HD
ENDBRANCH  33  34
ENDBRANCH  26  33
ENDBRANCH  24  26
ENDBRANCH  23  24
ENDBRANCH   4  23
TORSDOF 10
ENDMDL
MODEL 4
REMARK VINA RESULT:    -7.410      2.738      3.810
REMARK INTER + INTRA:         -12.455
REMARK INTER:                 -11.062
REMARK INTRA:                  -1.392
REMARK UNBOUND:                -0.929
REMARK  Name = 
REMARK  11 active torsions:
REMARK  status: ('A' for Active; 'I' for Inactive)
REMARK    1  A    between atoms: C_1  and  C_2
REMARK    2  A    between atoms: C_2  and  N_3
REMARK    3  A    between atoms: C_2  and  C_22
REMARK    4  A    between atoms: N_3  and  C_4
REMARK    5  A    between atoms: C_4  and  C_5
REMARK    6  A    between atoms: C_8  and  C_9
REMARK    7  A    between atoms: C_9  and  N_10
REMARK    8  A    between atoms: N_10  and  CA_11
REMARK    9  A    between atoms: CA_11  and  C_12
REMARK   10  A    between atoms: CA_11  and  C_14
REMARK   11  A    between atoms: C_12  and  O_13
REMARK                            x       y       z     vdW  Elec       q    Type
REMARK                         _______ _______ _______ _____ _____    ______ ____
ROOT
ATOM      1  C   UNL     1      47.779   9.055  12.996  0.00  0.00    +0.000 A 
ATOM      2  C   UNL     1      46.445   8.801  13.348  0.00  0.00    +0.000 A 
ATOM      3  C   UNL     1      45.786   7.660  12.879  0.00  0.00    +0.000 A 
ATOM      4  C   UNL     1      46.452   6.746  12.050  0.00  0.00    +0.000 A 
ATOM      5  C   UNL     1      47.785   7.000  11.700  0.00  0.00    +0.000 A 
ATOM      6  C   UNL     1      48.442   8.140  12.169  0.00  0.00    +0.000 A 
ENDROOT
BRANCH   1   7
ATOM      7  C   UNL     1      48.462  10.335  13.417  0.00  0.00    +0.000 C 
BRANCH   7   8
ATOM      8  N   UNL     1      48.648  10.410  14.865  0.00  0.00    +0.000 NA
ATOM      9  H   UNL     1      47.742  10.246  15.305  0.00  0.00    +0.000 HD
BRANCH   8  11
ATOM     10  C   UNL     1      51.003   9.966  15.605  0.00  0.00    +0.000 C 
ATOM     11  C   UNL     1      49.594   9.403  15.367  0.00  0.00    +0.000 C 
BRANCH  11  12
ATOM     12  C   UNL     1      49.009   8.866  16.660  0.00  0.00    +0.000 A 
ATOM     13  C   UNL     1      48.707   9.655  17.762  0.00  0.00    +0.000 A 
ATOM     14  S   UNL     1      48.082   8.772  19.078  0.00  0.00    +0.000 S 
ATOM     15  C   UNL     1      48.180   7.306  18.218  0.00  0.00    +0.000 A 
ATOM     16  N   UNL     1      47.787   6.134  18.780  0.00  0.00    +0.000 NA
ATOM     17  C   UNL     1      47.913   5.105  18.008  0.00  0.00    +0.000 A 
ATOM     18  N   UNL     1      48.397   5.143  16.724  0.00  0.00    +0.000 N 
ATOM     19  C   UNL     1      48.816   6.305  16.113  0.00  0.00    +0.000 A 
ATOM     20  O   UNL     1      49.253   6.297  14.966  0.00  0.00    +0.000 OA
ATOM     21  C   UNL     1      48.687   7.488  16.942  0.00  0.00    +0.000 A 
ATOM     22  H   UNL     1      48.468   4.302  16.173  0.00  0.00    +0.000 HD
ENDBRANCH  11  12
ENDBRANCH   8  11
ENDBRANCH   7   8
ENDBRANCH   1   7
BRANCH   4  23
ATOM     23  C   UNL     1      45.780   5.471  11.590  0.00  0.00    +0.000 C 
BRANCH  23  24
ATOM     24  N   UNL     1      44.960   5.680  10.395  0.00  0.00    +0.000 NA
ATOM     25  H   UNL     1      45.602   5.966   9.649  0.00  0.00    +0.000 HD
BRANCH  24  26
ATOM     26  CA  UNL     1      44.325   4.423   9.899  0.00  0.00    +0.000 C 
BRANCH  26  27
ATOM     27  C   UNL     1      45.217   3.629   8.939  0.00  0.00    +0.000 A 
ATOM     28  C   UNL     1      45.392   2.249   9.027  0.00  0.00    +0.000 A 
ATOM     29  C   UNL     1      46.215   1.603   8.106  0.00  0.00    +0.000 A 
ATOM     30  C   UNL     1      46.848   2.342   7.119  0.00  0.00    +0.000 A 
ATOM     31  C   UNL     1      46.634   3.709   7.094  0.00  0.00    +0.000 A 
ATOM     32  N   UNL     1      45.840   4.363   7.971  0.00  0.00    +0.000 NA
ENDBRANCH  26  27
BRANCH  26  33
ATOM     33  C   UNL     1      43.600   3.620  11.013  0.00  0.00    +0.000 C 
BRANCH  33  34
ATOM     34  O   UNL     1      42.425   4.247  11.527  0.00  0.00    +0.000 OA
ATOM     35  H   UNL     1      42.393   5.140  11.141  0.00  0.00    +0.000 HD
ENDBRANCH  33  34
ENDBRANCH  26  33
ENDBRANCH  24  26
ENDBRANCH  23  24
ENDBRANCH   4  23
TORSDOF 10
ENDMDL
MODEL 5
REMARK VINA RESULT:    -7.083      2.089      2.751
REMARK INTER + INTRA:         -11.946
REMARK INTER:                 -11.275
REMARK INTRA:                  -0.671
REMARK UNBOUND:                -0.929
REMARK  Name = 
REMARK  11 active torsions:
REMARK  status: ('A' for Active; 'I' for Inactive)
REMARK    1  A    between atoms: C_1  and  C_2
REMARK    2  A    between atoms: C_2  and  N_3
REMARK    3  A    between atoms: C_2  and  C_22
REMARK    4  A    between atoms: N_3  and  C_4
REMARK    5  A    between atoms: C_4  and  C_5
REMARK    6  A    between atoms: C_8  and  C_9
REMARK    7  A    between atoms: C_9  and  N_10
REMARK    8  A    between atoms: N_10  and  CA_11
REMARK    9  A    between atoms: CA_11  and  C_12
REMARK   10  A    between atoms: CA_11  and  C_14
REMARK   11  A    between atoms: C_12  and  O_13
REMARK                            x       y       z     vdW  Elec       q    Type
REMARK                         _______ _______ _______ _____ _____    ______ ____
ROOT
ATOM      1  C   UNL     1      48.076   7.701  14.634  0.00  0.00    +0.000 A 
ATOM      2  C   UNL     1      48.178   6.356  14.251  0.00  0.00    +0.000 A 
ATOM      3  C   UNL     1      47.497   5.879  13.127  0.00  0.00    +0.000 A 
ATOM      4  C   UNL     1      46.701   6.742  12.359  0.00  0.00    +0.000 A 
ATOM      5  C   UNL     1      46.600   8.086  12.743  0.00  0.00    +0.000 A 
ATOM      6  C   UNL     1      47.283   8.561  13.865  0.00  0.00    +0.000 A 
ENDROOT
BRANCH   1   7
ATOM      7  C   UNL     1      48.730   8.197  15.902  0.00  0.00    +0.000 C 
BRANCH   7   8
ATOM      8  N   UNL     1      48.236   7.499  17.087  0.00  0.00    +0.000 NA
ATOM      9  H   UNL     1      47.503   6.854  16.787  0.00  0.00    +0.000 HD
BRANCH   8  11
ATOM     10  C   UNL     1      49.408   7.055  19.260  0.00  0.00    +0.000 C 
ATOM     11  C   UNL     1      49.284   6.722  17.766  0.00  0.00    +0.000 C 
BRANCH  11  12
ATOM     12  C   UNL     1      48.933   5.259  17.572  0.00  0.00    +0.000 A 
ATOM     13  C   UNL     1      47.636   4.783  17.440  0.00  0.00    +0.000 A 
ATOM     14  S   UNL     1      47.549   3.092  17.258  0.00  0.00    +0.000 S 
ATOM     15  C   UNL     1      49.243   2.937  17.335  0.00  0.00    +0.000 A 
ATOM     16  N   UNL     1      49.842   1.722  17.236  0.00  0.00    +0.000 NA
ATOM     17  C   UNL     1      51.133   1.759  17.305  0.00  0.00    +0.000 A 
ATOM     18  N   UNL     1      51.877   2.901  17.466  0.00  0.00    +0.000 N 
ATOM     19  C   UNL     1      51.316   4.154  17.580  0.00  0.00    +0.000 A 
ATOM     20  O   UNL     1      52.014   5.151  17.733  0.00  0.00    +0.000 OA
ATOM     21  C   UNL     1      49.867   4.161  17.501  0.00  0.00    +0.000 A 
ATOM     22  H   UNL     1      52.884   2.861  17.510  0.00  0.00    +0.000 HD
ENDBRANCH  11  12
ENDBRANCH   8  11
ENDBRANCH   7   8
ENDBRANCH   1   7
BRANCH   4  23
ATOM     23  C   UNL     1      46.012   6.262  11.101  0.00  0.00    +0.000 C 
BRANCH  23  24
ATOM     24  N   UNL     1      44.571   6.521  11.127  0.00  0.00    +0.000 NA
ATOM     25  H   UNL     1      44.359   7.066  10.284  0.00  0.00    +0.000 HD
BRANCH  24  26
ATOM     26  CA  UNL     1      43.754   5.278  11.003  0.00  0.00    +0.000 C 
BRANCH  26  27
ATOM     27  C   UNL     1      44.348   4.256  10.027  0.00  0.00    +0.000 A 
ATOM     28  C   UNL     1      45.061   4.619   8.885  0.00  0.00    +0.000 A 
ATOM     29  C   UNL     1      45.576   3.625   8.055  0.00  0.00    +0.000 A 
ATOM     30  C   UNL     1      45.369   2.292   8.376  0.00  0.00    +0.000 A 
ATOM     31  C   UNL     1      44.646   2.004   9.520  0.00  0.00    +0.000 A 
ATOM     32  N   UNL     1      44.138   2.945  10.346  0.00  0.00    +0.000 NA
ENDBRANCH  26  27
BRANCH  26  33
ATOM     33  C   UNL     1      43.246   4.737  12.366  0.00  0.00    +0.000 C 
BRANCH  33  34
ATOM     34  O   UNL     1      42.909   5.747  13.316  0.00  0.00    +0.000 OA
ATOM     35  H   UNL     1      42.300   6.361  12.868  0.00  0.00    +0.000 HD
ENDBRANCH  33  34
ENDBRANCH  26  33
ENDBRANCH  24  26
ENDBRANCH  23  24
ENDBRANCH   4  23
TORSDOF 10
ENDMDL
MODEL 6
REMARK VINA RESULT:    -6.870      2.009      2.871
REMARK INTER + INTRA:         -11.615
REMARK INTER:                 -10.749
REMARK INTRA:                  -0.866
REMARK UNBOUND:                -0.929
REMARK  Name = 
REMARK  11 active torsions:
REMARK  status: ('A' for Active; 'I' for Inactive)
REMARK    1  A    between atoms: C_1  and  C_2
REMARK    2  A    between atoms: C_2  and  N_3
REMARK    3  A    between atoms: C_2  and  C_22
REMARK    4  A    between atoms: N_3  and  C_4
REMARK    5  A    between atoms: C_4  and  C_5
REMARK    6  A    between atoms: C_8  and  C_9
REMARK    7  A    between atoms: C_9  and  N_10
REMARK    8  A    between atoms: N_10  and  CA_11
REMARK    9  A    between atoms: CA_11  and  C_12
REMARK   10  A    between atoms: CA_11  and  C_14
REMARK   11  A    between atoms: C_12  and  O_13
REMARK                            x       y       z     vdW  Elec       q    Type
REMARK                         _______ _______ _______ _____ _____    ______ ____
ROOT
ATOM      1  C   UNL     1      48.496   5.915  15.652  0.00  0.00    +0.000 A 
ATOM      2  C   UNL     1      47.736   4.765  15.913  0.00  0.00    +0.000 A 
ATOM      3  C   UNL     1      46.813   4.291  14.976  0.00  0.00    +0.000 A 
ATOM      4  C   UNL     1      46.635   4.957  13.754  0.00  0.00    +0.000 A 
ATOM      5  C   UNL     1      47.395   6.105  13.495  0.00  0.00    +0.000 A 
ATOM      6  C   UNL     1      48.318   6.577  14.432  0.00  0.00    +0.000 A 
ENDROOT
BRANCH   1   7
ATOM      7  C   UNL     1      49.421   6.487  16.701  0.00  0.00    +0.000 C 
BRANCH   7   8
ATOM      8  N   UNL     1      50.734   5.845  16.689  0.00  0.00    +0.000 NA
ATOM      9  H   UNL     1      51.411   6.525  16.340  0.00  0.00    +0.000 HD
BRANCH   8  11
ATOM     10  C   UNL     1      50.101   5.649  19.107  0.00  0.00    +0.000 C 
ATOM     11  C   UNL     1      51.164   5.409  18.025  0.00  0.00    +0.000 C 
BRANCH  11  12
ATOM     12  C   UNL     1      51.488   3.931  17.915  0.00  0.00    +0.000 A 
ATOM     13  C   UNL     1      50.656   2.996  17.316  0.00  0.00    +0.000 A 
ATOM     14  S   UNL     1      51.274   1.410  17.360  0.00  0.00    +0.000 S 
ATOM     15  C   UNL     1      52.683   1.917  18.169  0.00  0.00    +0.000 A 
ATOM     16  N   UNL     1      53.655   1.032  18.510  0.00  0.00    +0.000 NA
ATOM     17  C   UNL     1      54.668   1.562  19.114  0.00  0.00    +0.000 A 
ATOM     18  N   UNL     1      54.795   2.896  19.408  0.00  0.00    +0.000 N 
ATOM     19  C   UNL     1      53.834   3.831  19.091  0.00  0.00    +0.000 A 
ATOM     20  O   UNL     1      53.980   5.015  19.381  0.00  0.00    +0.000 OA
ATOM     21  C   UNL     1      52.680   3.281  18.406  0.00  0.00    +0.000 A 
ATOM     22  H   UNL     1      55.615   3.246  19.881  0.00  0.00    +0.000 HD
ENDBRANCH  11  12
ENDBRANCH   8  11
ENDBRANCH   7   8
ENDBRANCH   1   7
BRANCH   4  23
ATOM     23  C   UNL     1      45.692   4.421  12.700  0.00  0.00    +0.000 C 
BRANCH  23  24
ATOM     24  N   UNL     1      45.416   5.406  11.652  0.00  0.00    +0.000 NA
ATOM     25  H   UNL     1      46.291   5.527  11.131  0.00  0.00    +0.000 HD
BRANCH  24  26
ATOM     26  CA  UNL     1      44.426   4.922  10.645  0.00  0.00    +0.000 C 
BRANCH  26  27
ATOM     27  C   UNL     1      45.043   4.016   9.574  0.00  0.00    +0.000 A 
ATOM     28  C   UNL     1      45.665   4.507   8.427  0.00  0.00    +0.000 A 
ATOM     29  C   UNL     1      46.209   3.613   7.507  0.00  0.00    +0.000 A 
ATOM     30  C   UNL     1      46.121   2.250   7.745  0.00  0.00    +0.000 A 
ATOM     31  C   UNL     1      45.484   1.833   8.900  0.00  0.00    +0.000 A 
ATOM     32  N   UNL     1      44.950   2.675   9.812  0.00  0.00    +0.000 NA
ENDBRANCH  26  27
BRANCH  26  33
ATOM     33  C   UNL     1      43.086   4.457  11.275  0.00  0.00    +0.000 C 
BRANCH  33  34
ATOM     34  O   UNL     1      42.923   3.041  11.345  0.00  0.00    +0.000 OA
ATOM     35  H   UNL     1      42.730   2.737  10.441  0.00  0.00    +0.000 HD
ENDBRANCH  33  34
ENDBRANCH  26  33
ENDBRANCH  24  26
ENDBRANCH  23  24
ENDBRANCH   4  23
TORSDOF 10
ENDMDL
MODEL 7
REMARK VINA RESULT:    -6.765      3.123      8.641
REMARK INTER + INTRA:         -11.451
REMARK INTER:                 -10.301
REMARK INTRA:                  -1.150
REMARK UNBOUND:                -0.929
REMARK  Name = 
REMARK  11 active torsions:
REMARK  status: ('A' for Active; 'I' for Inactive)
REMARK    1  A    between atoms: C_1  and  C_2
REMARK    2  A    between atoms: C_2  and  N_3
REMARK    3  A    between atoms: C_2  and  C_22
REMARK    4  A    between atoms: N_3  and  C_4
REMARK    5  A    between atoms: C_4  and  C_5
REMARK    6  A    between atoms: C_8  and  C_9
REMARK    7  A    between atoms: C_9  and  N_10
REMARK    8  A    between atoms: N_10  and  CA_11
REMARK    9  A    between atoms: CA_11  and  C_12
REMARK   10  A    between atoms: CA_11  and  C_14
REMARK   11  A    between atoms: C_12  and  O_13
REMARK                            x       y       z     vdW  Elec       q    Type
REMARK                         _______ _______ _______ _____ _____    ______ ____
ROOT
ATOM      1  C   UNL     1      48.181   7.756  13.383  0.00  0.00    +0.000 A 
ATOM      2  C   UNL     1      49.379   7.107  13.718  0.00  0.00    +0.000 A 
ATOM      3  C   UNL     1      49.955   7.278  14.981  0.00  0.00    +0.000 A 
ATOM      4  C   UNL     1      49.341   8.100  15.936  0.00  0.00    +0.000 A 
ATOM      5  C   UNL     1      48.145   8.748  15.600  0.00  0.00    +0.000 A 
ATOM      6  C   UNL     1      47.569   8.575  14.339  0.00  0.00    +0.000 A 
ENDROOT
BRANCH   1   7
ATOM      7  C   UNL     1      47.608   7.654  11.988  0.00  0.00    +0.000 C 
BRANCH   7   8
ATOM      8  N   UNL     1      46.871   6.408  11.785  0.00  0.00    +0.000 NA
ATOM      9  H   UNL     1      47.277   5.701  12.399  0.00  0.00    +0.000 HD
BRANCH   8  11
ATOM     10  C   UNL     1      44.738   7.635  11.301  0.00  0.00    +0.000 C 
ATOM     11  C   UNL     1      45.442   6.536  12.110  0.00  0.00    +0.000 C 
BRANCH  11  12
ATOM     12  C   UNL     1      44.813   5.183  11.833  0.00  0.00    +0.000 A 
ATOM     13  C   UNL     1      44.063   4.472  12.758  0.00  0.00    +0.000 A 
ATOM     14  S   UNL     1      43.503   2.975  12.171  0.00  0.00    +0.000 S 
ATOM     15  C   UNL     1      44.232   3.229  10.654  0.00  0.00    +0.000 A 
ATOM     16  N   UNL     1      44.130   2.308   9.661  0.00  0.00    +0.000 NA
ATOM     17  C   UNL     1      44.728   2.639   8.564  0.00  0.00    +0.000 A 
ATOM     18  N   UNL     1      45.420   3.808   8.372  0.00  0.00    +0.000 N 
ATOM     19  C   UNL     1      45.560   4.770   9.349  0.00  0.00    +0.000 A 
ATOM     20  O   UNL     1      46.196   5.798   9.142  0.00  0.00    +0.000 OA
ATOM     21  C   UNL     1      44.898   4.442  10.597  0.00  0.00    +0.000 A 
ATOM     22  H   UNL     1      45.865   4.007   7.488  0.00  0.00    +0.000 HD
ENDBRANCH  11  12
ENDBRANCH   8  11
ENDBRANCH   7   8
ENDBRANCH   1   7
BRANCH   4  23
ATOM     23  C   UNL     1      49.911   8.244  17.330  0.00  0.00    +0.000 C 
BRANCH  23  24
ATOM     24  N   UNL     1      49.773   7.015  18.113  0.00  0.00    +0.000 NA
ATOM     25  H   UNL     1      49.683   7.304  19.093  0.00  0.00    +0.000 HD
BRANCH  24  26
ATOM     26  CA  UNL     1      48.514   6.271  17.810  0.00  0.00    +0.000 C 
BRANCH  26  27
ATOM     27  C   UNL     1      48.754   4.812  17.407  0.00  0.00    +0.000 A 
ATOM     28  C   UNL     1      49.855   4.074  17.838  0.00  0.00    +0.000 A 
ATOM     29  C   UNL     1      49.992   2.747  17.431  0.00  0.00    +0.000 A 
ATOM     30  C   UNL     1      49.033   2.184  16.603  0.00  0.00    +0.000 A 
ATOM     31  C   UNL     1      47.970   2.977  16.209  0.00  0.00    +0.000 A 
ATOM     32  N   UNL     1      47.808   4.264  16.589  0.00  0.00    +0.000 NA
ENDBRANCH  26  27
BRANCH  26  33
ATOM     33  C   UNL     1      47.379   6.542  18.833  0.00  0.00    +0.000 C 
BRANCH  33  34
ATOM     34  O   UNL     1      46.330   5.573  18.826  0.00  0.00    +0.000 OA
ATOM     35  H   UNL     1      45.941   5.589  17.934  0.00  0.00    +0.000 HD
ENDBRANCH  33  34
ENDBRANCH  26  33
ENDBRANCH  24  26
ENDBRANCH  23  24
ENDBRANCH   4  23
TORSDOF 10
ENDMDL
MODEL 8
REMARK VINA RESULT:    -6.749      2.497      3.262
REMARK INTER + INTRA:         -11.426
REMARK INTER:                 -10.052
REMARK INTRA:                  -1.374
REMARK UNBOUND:                -0.929
REMARK  Name = 
REMARK  11 active torsions:
REMARK  status: ('A' for Active; 'I' for Inactive)
REMARK    1  A    between atoms: C_1  and  C_2
REMARK    2  A    between atoms: C_2  and  N_3
REMARK    3  A    between atoms: C_2  and  C_22
REMARK    4  A    between atoms: N_3  and  C_4
REMARK    5  A    between atoms: C_4  and  C_5
REMARK    6  A    between atoms: C_8  and  C_9
REMARK    7  A    between atoms: C_9  and  N_10
REMARK    8  A    between atoms: N_10  and  CA_11
REMARK    9  A    between atoms: CA_11  and  C_12
REMARK   10  A    between atoms: CA_11  and  C_14
REMARK   11  A    between atoms: C_12  and  O_13
REMARK                            x       y       z     vdW  Elec       q    Type
REMARK                         _______ _______ _______ _____ _____    ______ ____
ROOT
ATOM      1  C   UNL     1      49.216   8.338  13.725  0.00  0.00    +0.000 A 
ATOM      2  C   UNL     1      48.015   8.883  14.204  0.00  0.00    +0.000 A 
ATOM      3  C   UNL     1      46.799   8.594  13.579  0.00  0.00    +0.000 A 
ATOM      4  C   UNL     1      46.759   7.749  12.460  0.00  0.00    +0.000 A 
ATOM      5  C   UNL     1      47.958   7.205  11.982  0.00  0.00    +0.000 A 
ATOM      6  C   UNL     1      49.173   7.493  12.609  0.00  0.00    +0.000 A 
ENDROOT
BRANCH   1   7
ATOM      7  C   UNL     1      50.542   8.726  14.336  0.00  0.00    +0.000 C 
BRANCH   7   8
ATOM      8  N   UNL     1      50.673   8.256  15.713  0.00  0.00    +0.000 NA
ATOM      9  H   UNL     1      49.734   8.106  16.083  0.00  0.00    +0.000 HD
BRANCH   8  11
ATOM     10  C   UNL     1      52.936   7.174  15.694  0.00  0.00    +0.000 C 
ATOM     11  C   UNL     1      51.416   6.991  15.812  0.00  0.00    +0.000 C 
BRANCH  11  12
ATOM     12  C   UNL     1      51.054   6.381  17.153  0.00  0.00    +0.000 A 
ATOM     13  C   UNL     1      51.857   6.456  18.282  0.00  0.00    +0.000 A 
ATOM     14  S   UNL     1      51.201   5.658  19.636  0.00  0.00    +0.000 S 
ATOM     15  C   UNL     1      49.813   5.196  18.766  0.00  0.00    +0.000 A 
ATOM     16  N   UNL     1      48.822   4.476  19.354  0.00  0.00    +0.000 NA
ATOM     17  C   UNL     1      47.828   4.203  18.573  0.00  0.00    +0.000 A 
ATOM     18  N   UNL     1      47.737   4.585  17.258  0.00  0.00    +0.000 N 
ATOM     19  C   UNL     1      48.717   5.308  16.615  0.00  0.00    +0.000 A 
ATOM     20  O   UNL     1      48.604   5.622  15.434  0.00  0.00    +0.000 OA
ATOM     21  C   UNL     1      49.851   5.642  17.456  0.00  0.00    +0.000 A 
ATOM     22  H   UNL     1      46.931   4.341  16.703  0.00  0.00    +0.000 HD
ENDBRANCH  11  12
ENDBRANCH   8  11
ENDBRANCH   7   8
ENDBRANCH   1   7
BRANCH   4  23
ATOM     23  C   UNL     1      45.446   7.369  11.812  0.00  0.00    +0.000 C 
BRANCH  23  24
ATOM     24  N   UNL     1      45.099   5.966  12.045  0.00  0.00    +0.000 NA
ATOM     25  H   UNL     1      44.688   5.921  12.983  0.00  0.00    +0.000 HD
BRANCH  24  26
ATOM     26  CA  UNL     1      44.030   5.471  11.128  0.00  0.00    +0.000 C 
BRANCH  26  27
ATOM     27  C   UNL     1      44.532   4.437  10.113  0.00  0.00    +0.000 A 
ATOM     28  C   UNL     1      45.341   4.767   9.028  0.00  0.00    +0.000 A 
ATOM     29  C   UNL     1      45.761   3.763   8.157  0.00  0.00    +0.000 A 
ATOM     30  C   UNL     1      45.365   2.453   8.382  0.00  0.00    +0.000 A 
ATOM     31  C   UNL     1      44.557   2.199   9.476  0.00  0.00    +0.000 A 
ATOM     32  N   UNL     1      44.136   3.150  10.339  0.00  0.00    +0.000 NA
ENDBRANCH  26  27
BRANCH  26  33
ATOM     33  C   UNL     1      42.695   5.155  11.854  0.00  0.00    +0.000 C 
BRANCH  33  34
ATOM     34  O   UNL     1      42.669   5.519  13.233  0.00  0.00    +0.000 OA
ATOM     35  H   UNL     1      42.431   4.716  13.730  0.00  0.00    +0.000 HD
ENDBRANCH  33  34
ENDBRANCH  26  33
ENDBRANCH  24  26
ENDBRANCH  23  24
ENDBRANCH   4  23
TORSDOF 10
ENDMDL
MODEL 9
REMARK VINA RESULT:    -6.745      3.480      8.577
REMARK INTER + INTRA:         -11.420
REMARK INTER:                  -9.432
REMARK INTRA:                  -1.988
REMARK UNBOUND:                -0.929
REMARK  Name = 
REMARK  11 active torsions:
REMARK  status: ('A' for Active; 'I' for Inactive)
REMARK    1  A    between atoms: C_1  and  C_2
REMARK    2  A    between atoms: C_2  and  N_3
REMARK    3  A    between atoms: C_2  and  C_22
REMARK    4  A    between atoms: N_3  and  C_4
REMARK    5  A    between atoms: C_4  and  C_5
REMARK    6  A    between atoms: C_8  and  C_9
REMARK    7  A    between atoms: C_9  and  N_10
REMARK    8  A    between atoms: N_10  and  CA_11
REMARK    9  A    between atoms: CA_11  and  C_12
REMARK   10  A    between atoms: CA_11  and  C_14
REMARK   11  A    between atoms: C_12  and  O_13
REMARK                            x       y       z     vdW  Elec       q    Type
REMARK                         _______ _______ _______ _____ _____    ______ ____
ROOT
ATOM      1  C   UNL     1      48.851   8.433  14.845  0.00  0.00    +0.000 A 
ATOM      2  C   UNL     1      48.508   8.218  16.188  0.00  0.00    +0.000 A 
ATOM      3  C   UNL     1      49.397   7.583  17.060  0.00  0.00    +0.000 A 
ATOM      4  C   UNL     1      50.653   7.154  16.605  0.00  0.00    +0.000 A 
ATOM      5  C   UNL     1      50.994   7.370  15.264  0.00  0.00    +0.000 A 
ATOM      6  C   UNL     1      50.105   8.006  14.394  0.00  0.00    +0.000 A 
ENDROOT
BRANCH   1   7
ATOM      7  C   UNL     1      47.856   9.028  13.876  0.00  0.00    +0.000 C 
BRANCH   7   8
ATOM      8  N   UNL     1      46.625   8.243  13.798  0.00  0.00    +0.000 NA
ATOM      9  H   UNL     1      45.839   8.878  13.942  0.00  0.00    +0.000 HD
BRANCH   8  11
ATOM     10  C   UNL     1      47.636   7.822  11.542  0.00  0.00    +0.000 C 
ATOM     11  C   UNL     1      46.454   7.586  12.494  0.00  0.00    +0.000 C 
BRANCH  11  12
ATOM     12  C   UNL     1      46.283   6.105  12.775  0.00  0.00    +0.000 A 
ATOM     13  C   UNL     1      47.209   5.333  13.462  0.00  0.00    +0.000 A 
ATOM     14  S   UNL     1      46.756   3.697  13.606  0.00  0.00    +0.000 S 
ATOM     15  C   UNL     1      45.299   3.965  12.768  0.00  0.00    +0.000 A 
ATOM     16  N   UNL     1      44.421   2.954  12.544  0.00  0.00    +0.000 NA
ATOM     17  C   UNL     1      43.356   3.306  11.901  0.00  0.00    +0.000 A 
ATOM     18  N   UNL     1      43.092   4.579  11.461  0.00  0.00    +0.000 N 
ATOM     19  C   UNL     1      43.954   5.636  11.655  0.00  0.00    +0.000 A 
ATOM     20  O   UNL     1      43.687   6.758  11.237  0.00  0.00    +0.000 OA
ATOM     21  C   UNL     1      45.161   5.287  12.379  0.00  0.00    +0.000 A 
ATOM     22  H   UNL     1      42.239   4.788  10.965  0.00  0.00    +0.000 HD
ENDBRANCH  11  12
ENDBRANCH   8  11
ENDBRANCH   7   8
ENDBRANCH   1   7
BRANCH   4  23
ATOM     23  C   UNL     1      51.656   6.528  17.549  0.00  0.00    +0.000 C 
BRANCH  23  24
ATOM     24  N   UNL     1      52.111   5.217  17.082  0.00  0.00    +0.000 NA
ATOM     25  H   UNL     1      53.135   5.233  17.126  0.00  0.00    +0.000 HD
BRANCH  24  26
ATOM     26  CA  UNL     1      51.700   4.103  17.987  0.00  0.00    +0.000 C 
BRANCH  26  27
ATOM     27  C   UNL     1      50.241   3.674  17.798  0.00  0.00    +0.000 A 
ATOM     28  C   UNL     1      49.193   4.179  18.566  0.00  0.00    +0.000 A 
ATOM     29  C   UNL     1      47.892   3.741  18.322  0.00  0.00    +0.000 A 
ATOM     30  C   UNL     1      47.661   2.810  17.321  0.00  0.00    +0.000 A 
ATOM     31  C   UNL     1      48.748   2.347  16.602  0.00  0.00    +0.000 A 
ATOM     32  N   UNL     1      50.020   2.754  16.813  0.00  0.00    +0.000 NA
ENDBRANCH  26  27
BRANCH  26  33
ATOM     33  C   UNL     1      52.759   2.972  18.090  0.00  0.00    +0.000 C 
BRANCH  33  34
ATOM     34  O   UNL     1      52.226   1.688  18.413  0.00  0.00    +0.000 OA
ATOM     35  H   UNL     1      52.984   1.082  18.489  0.00  0.00    +0.000 HD
ENDBRANCH  33  34
ENDBRANCH  26  33
ENDBRANCH  24  26
ENDBRANCH  23  24
ENDBRANCH   4  23
TORSDOF 10
ENDMDL
