MODEL 1
REMARK VINA RESULT:    -8.745      0.000      0.000
REMARK INTER + INTRA:         -12.684
REMARK INTER:                 -11.812
REMARK INTRA:                  -0.872
REMARK UNBOUND:                -0.872
REMARK  Name = 
REMARK  8 active torsions:
REMARK  status: ('A' for Active; 'I' for Inactive)
REMARK    1  A    between atoms: C_1  and  C_2
REMARK    2  A    between atoms: C_2  and  C_3
REMARK    3  A    between atoms: C_2  and  C_4
REMARK    4  A    between atoms: C_2  and  C_16
REMARK    5  A    between atoms: C_4  and  O_5
REMARK    6  A    between atoms: O_5  and  C_6
REMARK    7  A    between atoms: C_9  and  C_10
REMARK    8  A    between atoms: C_20  and  C_21
REMARK                            x       y       z     vdW  Elec       q    Type
REMARK                         _______ _______ _______ _____ _____    ______ ____
ROOT
ATOM      1  C   UNL     1      43.308   6.502  11.261  0.00  0.00    +0.000 C 
ATOM      2  C   UNL     1      43.726   5.237  12.047  0.00  0.00    +0.000 C 
ATOM      3  C   UNL     1      42.711   5.070  13.206  0.00  0.00    +0.000 C 
ENDROOT
BRANCH   2   4
ATOM      4  C   UNL     1      45.177   5.401  12.545  0.00  0.00    +0.000 A 
ATOM      5  C   UNL     1      46.122   6.210  11.897  0.00  0.00    +0.000 A 
ATOM      6  C   UNL     1      47.420   6.294  12.393  0.00  0.00    +0.000 A 
ATOM      7  N   UNL     1      47.856   5.642  13.490  0.00  0.00    +0.000 NA
ATOM      8  C   UNL     1      46.938   4.860  14.115  0.00  0.00    +0.000 A 
ATOM      9  C   UNL     1      45.623   4.711  13.686  0.00  0.00    +0.000 A 
BRANCH   8  10
ATOM     10  C   UNL     1      47.408   4.122  15.331  0.00  0.00    +0.000 C 
ATOM     11  N   UNL     1      47.398   4.846  16.492  0.00  0.00    +0.000 N 
ATOM     12  O   UNL     1      47.779   2.955  15.303  0.00  0.00    +0.000 OA
ATOM     13  H   UNL     1      47.084   5.810  16.473  0.00  0.00    +0.000 HD
ATOM     14  H   UNL     1      47.709   4.420  17.353  0.00  0.00    +0.000 HD
ENDBRANCH   8  10
ENDBRANCH   2   4
BRANCH   2  15
ATOM     15  C   UNL     1      43.566   3.973  11.146  0.00  0.00    +0.000 C 
BRANCH  15  16
ATOM     16  O   UNL     1      43.668   4.296   9.758  0.00  0.00    +0.000 OA
BRANCH  16  17
ATOM     17  C   UNL     1      44.665   3.696   9.042  0.00  0.00    +0.000 A 
ATOM     18  C   UNL     1      45.483   4.588   8.340  0.00  0.00    +0.000 A 
ATOM     19  C   UNL     1      46.521   4.123   7.523  0.00  0.00    +0.000 A 
ATOM     20  C   UNL     1      46.751   2.749   7.394  0.00  0.00    +0.000 A 
ATOM     21  C   UNL     1      45.948   1.857   8.115  0.00  0.00    +0.000 A 
ATOM     22  C   UNL     1      44.922   2.329   8.929  0.00  0.00    +0.000 A 
ATOM     23  F   UNL     1      44.190   1.420   9.588  0.00  0.00    +0.000 F 
BRANCH  20  24
ATOM     24  C   UNL     1      47.806   2.166   6.516  0.00  0.00    +0.000 C 
ATOM     25  N   UNL     1      48.158   2.832   5.377  0.00  0.00    +0.000 N 
ATOM     26  O   UNL     1      48.348   1.103   6.794  0.00  0.00    +0.000 OA
ATOM     27  H   UNL     1      47.757   3.700   5.055  0.00  0.00    +0.000 HD
ATOM     28  H   UNL     1      48.863   2.394   4.796  0.00  0.00    +0.000 HD
ENDBRANCH  20  24
ENDBRANCH  16  17
ENDBRANCH  15  16
ENDBRANCH   2  15
TORSDOF 6
ENDMDL
MODEL 2
REMARK VINA RESULT:    -7.750      2.279      3.353
REMARK INTER + INTRA:         -11.340
REMARK INTER:                 -10.861
REMARK INTRA:                  -0.479
REMARK UNBOUND:                -0.872
REMARK  Name = 
REMARK  8 active torsions:
REMARK  status: ('A' for Active; 'I' for Inactive)
REMARK    1  A    between atoms: C_1  and  C_2
REMARK    2  A    between atoms: C_2  and  C_3
REMARK    3  A    between atoms: C_2  and  C_4
REMARK    4  A    between atoms: C_2  and  C_16
REMARK    5  A    between atoms: C_4  and  O_5
REMARK    6  A    between atoms: O_5  and  C_6
REMARK    7  A    between atoms: C_9  and  C_10
REMARK    8  A    between atoms: C_20  and  C_21
REMARK                            x       y       z     vdW  Elec       q    Type
REMARK                         _______ _______ _______ _____ _____    ______ ____
ROOT
ATOM      1  C   UNL     1      43.400   4.430  13.505  0.00  0.00    +0.000 C 
ATOM      2  C   UNL     1      44.282   4.365  12.236  0.00  0.00    +0.000 C 
ATOM      3  C   UNL     1      45.259   3.177  12.426  0.00  0.00    +0.000 C 
ENDROOT
BRANCH   2   4
ATOM      4  C   UNL     1      45.010   5.711  12.051  0.00  0.00    +0.000 A 
ATOM      5  C   UNL     1      46.405   5.841  12.107  0.00  0.00    +0.000 A 
ATOM      6  C   UNL     1      46.994   7.093  11.951  0.00  0.00    +0.000 A 
ATOM      7  N   UNL     1      46.306   8.232  11.736  0.00  0.00    +0.000 NA
ATOM      8  C   UNL     1      44.954   8.103  11.682  0.00  0.00    +0.000 A 
ATOM      9  C   UNL     1      44.282   6.895  11.834  0.00  0.00    +0.000 A 
BRANCH   8  10
ATOM     10  C   UNL     1      44.173   9.361  11.450  0.00  0.00    +0.000 C 
ATOM     11  N   UNL     1      43.272   9.306  10.423  0.00  0.00    +0.000 N 
ATOM     12  O   UNL     1      44.321  10.373  12.125  0.00  0.00    +0.000 OA
ATOM     13  H   UNL     1      43.180   8.450   9.888  0.00  0.00    +0.000 HD
ATOM     14  H   UNL     1      42.713  10.118  10.200  0.00  0.00    +0.000 HD
ENDBRANCH   8  10
ENDBRANCH   2   4
BRANCH   2  15
ATOM     15  C   UNL     1      43.405   4.010  10.995  0.00  0.00    +0.000 C 
BRANCH  15  16
ATOM     16  O   UNL     1      43.893   4.634   9.806  0.00  0.00    +0.000 OA
BRANCH  16  17
ATOM     17  C   UNL     1      44.807   3.945   9.061  0.00  0.00    +0.000 A 
ATOM     18  C   UNL     1      45.708   4.757   8.366  0.00  0.00    +0.000 A 
ATOM     19  C   UNL     1      46.678   4.200   7.521  0.00  0.00    +0.000 A 
ATOM     20  C   UNL     1      46.752   2.813   7.359  0.00  0.00    +0.000 A 
ATOM     21  C   UNL     1      45.867   1.997   8.073  0.00  0.00    +0.000 A 
ATOM     22  C   UNL     1      44.911   2.560   8.915  0.00  0.00    +0.000 A 
ATOM     23  F   UNL     1      44.092   1.723   9.566  0.00  0.00    +0.000 F 
BRANCH  20  24
ATOM     24  C   UNL     1      47.725   2.138   6.452  0.00  0.00    +0.000 C 
ATOM     25  N   UNL     1      48.156   2.800   5.338  0.00  0.00    +0.000 N 
ATOM     26  O   UNL     1      48.129   1.004   6.682  0.00  0.00    +0.000 OA
ATOM     27  H   UNL     1      47.868   3.724   5.054  0.00  0.00    +0.000 HD
ATOM     28  H   UNL     1      48.800   2.302   4.736  0.00  0.00    +0.000 HD
ENDBRANCH  20  24
ENDBRANCH  16  17
ENDBRANCH  15  16
ENDBRANCH   2  15
TORSDOF 6
ENDMDL
MODEL 3
REMARK VINA RESULT:    -7.696      1.970      2.394
REMARK INTER + INTRA:         -11.267
REMARK INTER:                 -10.788
REMARK INTRA:                  -0.479
REMARK UNBOUND:                -0.872
REMARK  Name = 
REMARK  8 active torsions:
REMARK  status: ('A' for Active; 'I' for Inactive)
REMARK    1  A    between atoms: C_1  and  C_2
REMARK    2  A    between atoms: C_2  and  C_3
REMARK    3  A    between atoms: C_2  and  C_4
REMARK    4  A    between atoms: C_2  and  C_16
REMARK    5  A    between atoms: C_4  and  O_5
REMARK    6  A    between atoms: O_5  and  C_6
REMARK    7  A    between atoms: C_9  and  C_10
REMARK    8  A    between atoms: C_20  and  C_21
REMARK                            x       y       z     vdW  Elec       q    Type
REMARK                         _______ _______ _______ _____ _____    ______ ____
ROOT
ATOM      1  C   UNL     1      43.325   4.345  13.528  0.00  0.00    +0.000 C 
ATOM      2  C   UNL     1      44.233   4.318  12.277  0.00  0.00    +0.000 C 
ATOM      3  C   UNL     1      45.255   3.172  12.486  0.00  0.00    +0.000 C 
ENDROOT
BRANCH   2   4
ATOM      4  C   UNL     1      44.908   5.694  12.107  0.00  0.00    +0.000 A 
ATOM      5  C   UNL     1      44.204   6.855  11.757  0.00  0.00    +0.000 A 
ATOM      6  C   UNL     1      44.884   8.060  11.601  0.00  0.00    +0.000 A 
ATOM      7  N   UNL     1      46.213   8.207  11.772  0.00  0.00    +0.000 NA
ATOM      8  C   UNL     1      46.892   7.081  12.110  0.00  0.00    +0.000 A 
ATOM      9  C   UNL     1      46.296   5.836  12.280  0.00  0.00    +0.000 A 
BRANCH   8  10
ATOM     10  C   UNL     1      48.372   7.225  12.296  0.00  0.00    +0.000 C 
ATOM     11  N   UNL     1      48.914   8.373  11.787  0.00  0.00    +0.000 N 
ATOM     12  O   UNL     1      49.060   6.383  12.861  0.00  0.00    +0.000 OA
ATOM     13  H   UNL     1      48.311   9.045  11.326  0.00  0.00    +0.000 HD
ATOM     14  H   UNL     1      49.907   8.539  11.866  0.00  0.00    +0.000 HD
ENDBRANCH   8  10
ENDBRANCH   2   4
BRANCH   2  15
ATOM     15  C   UNL     1      43.396   3.928  11.019  0.00  0.00    +0.000 C 
BRANCH  15  16
ATOM     16  O   UNL     1      43.885   4.566   9.839  0.00  0.00    +0.000 OA
BRANCH  16  17
ATOM     17  C   UNL     1      44.805   3.889   9.089  0.00  0.00    +0.000 A 
ATOM     18  C   UNL     1      45.684   4.712   8.379  0.00  0.00    +0.000 A 
ATOM     19  C   UNL     1      46.655   4.167   7.529  0.00  0.00    +0.000 A 
ATOM     20  C   UNL     1      46.754   2.780   7.376  0.00  0.00    +0.000 A 
ATOM     21  C   UNL     1      45.890   1.954   8.105  0.00  0.00    +0.000 A 
ATOM     22  C   UNL     1      44.932   2.505   8.952  0.00  0.00    +0.000 A 
ATOM     23  F   UNL     1      44.136   1.658   9.618  0.00  0.00    +0.000 F 
BRANCH  20  24
ATOM     24  C   UNL     1      47.729   2.117   6.464  0.00  0.00    +0.000 C 
ATOM     25  N   UNL     1      48.095   2.755   5.313  0.00  0.00    +0.000 N 
ATOM     26  O   UNL     1      48.194   1.013   6.724  0.00  0.00    +0.000 OA
ATOM     27  H   UNL     1      47.754   3.652   5.004  0.00  0.00    +0.000 HD
ATOM     28  H   UNL     1      48.743   2.264   4.709  0.00  0.00    +0.000 HD
ENDBRANCH  20  24
ENDBRANCH  16  17
ENDBRANCH  15  16
ENDBRANCH   2  15
TORSDOF 6
ENDMDL
MODEL 4
REMARK VINA RESULT:    -6.675      3.319      5.453
REMARK INTER + INTRA:          -9.889
REMARK INTER:                  -8.987
REMARK INTRA:                  -0.902
REMARK UNBOUND:                -0.872
REMARK  Name = 
REMARK  8 active torsions:
REMARK  status: ('A' for Active; 'I' for Inactive)
REMARK    1  A    between atoms: C_1  and  C_2
REMARK    2  A    between atoms: C_2  and  C_3
REMARK    3  A    between atoms: C_2  and  C_4
REMARK    4  A    between atoms: C_2  and  C_16
REMARK    5  A    between atoms: C_4  and  O_5
REMARK    6  A    between atoms: O_5  and  C_6
REMARK    7  A    between atoms: C_9  and  C_10
REMARK    8  A    between atoms: C_20  and  C_21
REMARK                            x       y       z     vdW  Elec       q    Type
REMARK                         _______ _______ _______ _____ _____    ______ ____
ROOT
ATOM      1  C   UNL     1      50.586   8.326  14.775  0.00  0.00    +0.000 C 
ATOM      2  C   UNL     1      49.295   7.532  15.081  0.00  0.00    +0.000 C 
ATOM      3  C   UNL     1      48.247   8.553  15.592  0.00  0.00    +0.000 C 
ENDROOT
BRANCH   2   4
ATOM      4  C   UNL     1      49.606   6.431  16.115  0.00  0.00    +0.000 A 
ATOM      5  C   UNL     1      50.885   6.219  16.648  0.00  0.00    +0.000 A 
ATOM      6  C   UNL     1      51.096   5.192  17.563  0.00  0.00    +0.000 A 
ATOM      7  N   UNL     1      50.132   4.356  18.000  0.00  0.00    +0.000 NA
ATOM      8  C   UNL     1      48.893   4.564  17.481  0.00  0.00    +0.000 A 
ATOM      9  C   UNL     1      48.594   5.560  16.558  0.00  0.00    +0.000 A 
BRANCH   8  10
ATOM     10  C   UNL     1      47.811   3.639  17.950  0.00  0.00    +0.000 C 
ATOM     11  N   UNL     1      48.080   2.970  19.112  0.00  0.00    +0.000 N 
ATOM     12  O   UNL     1      46.757   3.483  17.345  0.00  0.00    +0.000 OA
ATOM     13  H   UNL     1      48.964   3.126  19.582  0.00  0.00    +0.000 HD
ATOM     14  H   UNL     1      47.402   2.322  19.488  0.00  0.00    +0.000 HD
ENDBRANCH   8  10
ENDBRANCH   2   4
BRANCH   2  15
ATOM     15  C   UNL     1      48.711   6.936  13.762  0.00  0.00    +0.000 C 
BRANCH  15  16
ATOM     16  O   UNL     1      47.307   7.179  13.649  0.00  0.00    +0.000 OA
BRANCH  16  17
ATOM     17  C   UNL     1      46.580   6.326  12.868  0.00  0.00    +0.000 A 
ATOM     18  C   UNL     1      46.384   6.773  11.558  0.00  0.00    +0.000 A 
ATOM     19  C   UNL     1      45.619   6.030  10.649  0.00  0.00    +0.000 A 
ATOM     20  C   UNL     1      45.033   4.824  11.048  0.00  0.00    +0.000 A 
ATOM     21  C   UNL     1      45.248   4.363  12.352  0.00  0.00    +0.000 A 
ATOM     22  C   UNL     1      46.015   5.106  13.246  0.00  0.00    +0.000 A 
ATOM     23  F   UNL     1      46.178   4.609  14.480  0.00  0.00    +0.000 F 
BRANCH  20  24
ATOM     24  C   UNL     1      44.172   3.991  10.160  0.00  0.00    +0.000 C 
ATOM     25  N   UNL     1      44.116   4.288   8.828  0.00  0.00    +0.000 N 
ATOM     26  O   UNL     1      43.510   3.061  10.606  0.00  0.00    +0.000 OA
ATOM     27  H   UNL     1      44.607   5.042   8.372  0.00  0.00    +0.000 HD
ATOM     28  H   UNL     1      43.505   3.713   8.261  0.00  0.00    +0.000 HD
ENDBRANCH  20  24
ENDBRANCH  16  17
ENDBRANCH  15  16
ENDBRANCH   2  15
TORSDOF 6
ENDMDL
MODEL 5
REMARK VINA RESULT:    -6.378      4.226      6.189
REMARK INTER + INTRA:          -9.487
REMARK INTER:                  -8.804
REMARK INTRA:                  -0.683
REMARK UNBOUND:                -0.872
REMARK  Name = 
REMARK  8 active torsions:
REMARK  status: ('A' for Active; 'I' for Inactive)
REMARK    1  A    between atoms: C_1  and  C_2
REMARK    2  A    between atoms: C_2  and  C_3
REMARK    3  A    between atoms: C_2  and  C_4
REMARK    4  A    between atoms: C_2  and  C_16
REMARK    5  A    between atoms: C_4  and  O_5
REMARK    6  A    between atoms: O_5  and  C_6
REMARK    7  A    between atoms: C_9  and  C_10
REMARK    8  A    between atoms: C_20  and  C_21
REMARK                            x       y       z     vdW  Elec       q    Type
REMARK                         _______ _______ _______ _____ _____    ______ ____
ROOT
ATOM      1  C   UNL     1      50.670   7.179  15.453  0.00  0.00    +0.000 C 
ATOM      2  C   UNL     1      49.221   7.237  15.987  0.00  0.00    +0.000 C 
ATOM      3  C   UNL     1      49.079   8.572  16.762  0.00  0.00    +0.000 C 
ENDROOT
BRANCH   2   4
ATOM      4  C   UNL     1      48.953   6.004  16.873  0.00  0.00    +0.000 A 
ATOM      5  C   UNL     1      48.113   6.035  17.996  0.00  0.00    +0.000 A 
ATOM      6  C   UNL     1      47.933   4.886  18.761  0.00  0.00    +0.000 A 
ATOM      7  N   UNL     1      48.518   3.701  18.497  0.00  0.00    +0.000 NA
ATOM      8  C   UNL     1      49.331   3.674  17.408  0.00  0.00    +0.000 A 
ATOM      9  C   UNL     1      49.573   4.774  16.593  0.00  0.00    +0.000 A 
BRANCH   8  10
ATOM     10  C   UNL     1      49.995   2.365  17.105  0.00  0.00    +0.000 C 
ATOM     11  N   UNL     1      51.014   2.020  17.949  0.00  0.00    +0.000 N 
ATOM     12  O   UNL     1      49.661   1.648  16.170  0.00  0.00    +0.000 OA
ATOM     13  H   UNL     1      51.260   2.641  18.711  0.00  0.00    +0.000 HD
ATOM     14  H   UNL     1      51.516   1.155  17.804  0.00  0.00    +0.000 HD
ENDBRANCH   8  10
ENDBRANCH   2   4
BRANCH   2  15
ATOM     15  C   UNL     1      48.216   7.320  14.796  0.00  0.00    +0.000 C 
BRANCH  15  16
ATOM     16  O   UNL     1      48.194   6.109  14.037  0.00  0.00    +0.000 OA
BRANCH  16  17
ATOM     17  C   UNL     1      47.007   5.738  13.473  0.00  0.00    +0.000 A 
ATOM     18  C   UNL     1      46.277   6.797  12.924  0.00  0.00    +0.000 A 
ATOM     19  C   UNL     1      45.017   6.584  12.350  0.00  0.00    +0.000 A 
ATOM     20  C   UNL     1      44.467   5.298  12.325  0.00  0.00    +0.000 A 
ATOM     21  C   UNL     1      45.207   4.233  12.853  0.00  0.00    +0.000 A 
ATOM     22  C   UNL     1      46.461   4.455  13.416  0.00  0.00    +0.000 A 
ATOM     23  F   UNL     1      47.114   3.392  13.906  0.00  0.00    +0.000 F 
BRANCH  20  24
ATOM     24  C   UNL     1      43.118   4.988  11.770  0.00  0.00    +0.000 C 
ATOM     25  N   UNL     1      42.165   5.966  11.768  0.00  0.00    +0.000 N 
ATOM     26  O   UNL     1      42.851   3.874  11.333  0.00  0.00    +0.000 OA
ATOM     27  H   UNL     1      42.283   6.903  12.122  0.00  0.00    +0.000 HD
ATOM     28  H   UNL     1      41.256   5.711  11.403  0.00  0.00    +0.000 HD
ENDBRANCH  20  24
ENDBRANCH  16  17
ENDBRANCH  15  16
ENDBRANCH   2  15
TORSDOF 6
ENDMDL
MODEL 6
REMARK VINA RESULT:    -6.330      4.166      6.494
REMARK INTER + INTRA:          -9.422
REMARK INTER:                  -8.738
REMARK INTRA:                  -0.684
REMARK UNBOUND:                -0.872
REMARK  Name = 
REMARK  8 active torsions:
REMARK  status: ('A' for Active; 'I' for Inactive)
REMARK    1  A    between atoms: C_1  and  C_2
REMARK    2  A    between atoms: C_2  and  C_3
REMARK    3  A    between atoms: C_2  and  C_4
REMARK    4  A    between atoms: C_2  and  C_16
REMARK    5  A    between atoms: C_4  and  O_5
REMARK    6  A    between atoms: O_5  and  C_6
REMARK    7  A    between atoms: C_9  and  C_10
REMARK    8  A    between atoms: C_20  and  C_21
REMARK                            x       y       z     vdW  Elec       q    Type
REMARK                         _______ _______ _______ _____ _____    ______ ____
ROOT
ATOM      1  C   UNL     1      47.553   5.133  18.273  0.00  0.00    +0.000 C 
ATOM      2  C   UNL     1      48.238   4.571  17.006  0.00  0.00    +0.000 C 
ATOM      3  C   UNL     1      47.542   3.226  16.676  0.00  0.00    +0.000 C 
ENDROOT
BRANCH   2   4
ATOM      4  C   UNL     1      49.749   4.410  17.271  0.00  0.00    +0.000 A 
ATOM      5  C   UNL     1      50.631   5.496  17.355  0.00  0.00    +0.000 A 
ATOM      6  C   UNL     1      51.987   5.274  17.577  0.00  0.00    +0.000 A 
ATOM      7  N   UNL     1      52.540   4.054  17.729  0.00  0.00    +0.000 NA
ATOM      8  C   UNL     1      51.682   3.004  17.647  0.00  0.00    +0.000 A 
ATOM      9  C   UNL     1      50.316   3.133  17.421  0.00  0.00    +0.000 A 
BRANCH   8  10
ATOM     10  C   UNL     1      52.282   1.640  17.805  0.00  0.00    +0.000 C 
ATOM     11  N   UNL     1      51.381   0.622  17.957  0.00  0.00    +0.000 N 
ATOM     12  O   UNL     1      53.490   1.436  17.804  0.00  0.00    +0.000 OA
ATOM     13  H   UNL     1      50.389   0.832  17.954  0.00  0.00    +0.000 HD
ATOM     14  H   UNL     1      51.709  -0.326  18.077  0.00  0.00    +0.000 HD
ENDBRANCH   8  10
ENDBRANCH   2   4
BRANCH   2  15
ATOM     15  C   UNL     1      47.962   5.510  15.791  0.00  0.00    +0.000 C 
BRANCH  15  16
ATOM     16  O   UNL     1      47.924   4.785  14.560  0.00  0.00    +0.000 OA
BRANCH  16  17
ATOM     17  C   UNL     1      46.864   5.009  13.728  0.00  0.00    +0.000 A 
ATOM     18  C   UNL     1      46.557   6.361  13.542  0.00  0.00    +0.000 A 
ATOM     19  C   UNL     1      45.467   6.751  12.753  0.00  0.00    +0.000 A 
ATOM     20  C   UNL     1      44.664   5.783  12.140  0.00  0.00    +0.000 A 
ATOM     21  C   UNL     1      44.985   4.430  12.306  0.00  0.00    +0.000 A 
ATOM     22  C   UNL     1      46.073   4.053  13.088  0.00  0.00    +0.000 A 
ATOM     23  F   UNL     1      46.323   2.742  13.208  0.00  0.00    +0.000 F 
BRANCH  20  24
ATOM     24  C   UNL     1      43.463   6.107  11.317  0.00  0.00    +0.000 C 
ATOM     25  N   UNL     1      43.178   7.416  11.052  0.00  0.00    +0.000 N 
ATOM     26  O   UNL     1      42.729   5.224  10.889  0.00  0.00    +0.000 OA
ATOM     27  H   UNL     1      43.710   8.210  11.374  0.00  0.00    +0.000 HD
ATOM     28  H   UNL     1      42.344   7.596  10.508  0.00  0.00    +0.000 HD
ENDBRANCH  20  24
ENDBRANCH  16  17
ENDBRANCH  15  16
ENDBRANCH   2  15
TORSDOF 6
ENDMDL
MODEL 7
REMARK VINA RESULT:    -6.315      3.543      5.548
REMARK INTER + INTRA:          -9.402
REMARK INTER:                  -8.528
REMARK INTRA:                  -0.874
REMARK UNBOUND:                -0.872
REMARK  Name = 
REMARK  8 active torsions:
REMARK  status: ('A' for Active; 'I' for Inactive)
REMARK    1  A    between atoms: C_1  and  C_2
REMARK    2  A    between atoms: C_2  and  C_3
REMARK    3  A    between atoms: C_2  and  C_4
REMARK    4  A    between atoms: C_2  and  C_16
REMARK    5  A    between atoms: C_4  and  O_5
REMARK    6  A    between atoms: O_5  and  C_6
REMARK    7  A    between atoms: C_9  and  C_10
REMARK    8  A    between atoms: C_20  and  C_21
REMARK                            x       y       z     vdW  Elec       q    Type
REMARK                         _______ _______ _______ _____ _____    ______ ____
ROOT
ATOM      1  C   UNL     1      50.533   8.004  14.927  0.00  0.00    +0.000 C 
ATOM      2  C   UNL     1      49.037   7.640  15.067  0.00  0.00    +0.000 C 
ATOM      3  C   UNL     1      48.256   8.975  15.169  0.00  0.00    +0.000 C 
ENDROOT
BRANCH   2   4
ATOM      4  C   UNL     1      48.843   6.741  16.305  0.00  0.00    +0.000 A 
ATOM      5  C   UNL     1      48.962   7.212  17.620  0.00  0.00    +0.000 A 
ATOM      6  C   UNL     1      48.792   6.337  18.689  0.00  0.00    +0.000 A 
ATOM      7  N   UNL     1      48.507   5.026  18.558  0.00  0.00    +0.000 NA
ATOM      8  C   UNL     1      48.392   4.573  17.282  0.00  0.00    +0.000 A 
ATOM      9  C   UNL     1      48.552   5.373  16.156  0.00  0.00    +0.000 A 
BRANCH   8  10
ATOM     10  C   UNL     1      48.082   3.116  17.118  0.00  0.00    +0.000 C 
ATOM     11  N   UNL     1      46.947   2.688  17.749  0.00  0.00    +0.000 N 
ATOM     12  O   UNL     1      48.787   2.352  16.470  0.00  0.00    +0.000 OA
ATOM     13  H   UNL     1      46.391   3.351  18.276  0.00  0.00    +0.000 HD
ATOM     14  H   UNL     1      46.676   1.716  17.691  0.00  0.00    +0.000 HD
ENDBRANCH   8  10
ENDBRANCH   2   4
BRANCH   2  15
ATOM     15  C   UNL     1      48.534   6.944  13.764  0.00  0.00    +0.000 C 
BRANCH  15  16
ATOM     16  O   UNL     1      47.202   7.341  13.433  0.00  0.00    +0.000 OA
BRANCH  16  17
ATOM     17  C   UNL     1      46.398   6.415  12.829  0.00  0.00    +0.000 A 
ATOM     18  C   UNL     1      46.582   5.108  13.291  0.00  0.00    +0.000 A 
ATOM     19  C   UNL     1      45.865   4.040  12.737  0.00  0.00    +0.000 A 
ATOM     20  C   UNL     1      44.952   4.270  11.703  0.00  0.00    +0.000 A 
ATOM     21  C   UNL     1      44.749   5.581  11.256  0.00  0.00    +0.000 A 
ATOM     22  C   UNL     1      45.463   6.637  11.817  0.00  0.00    +0.000 A 
ATOM     23  F   UNL     1      45.223   7.867  11.341  0.00  0.00    +0.000 F 
BRANCH  20  24
ATOM     24  C   UNL     1      44.176   3.189  11.030  0.00  0.00    +0.000 C 
ATOM     25  N   UNL     1      44.822   2.356  10.162  0.00  0.00    +0.000 N 
ATOM     26  O   UNL     1      42.976   3.047  11.233  0.00  0.00    +0.000 OA
ATOM     27  H   UNL     1      45.800   2.405   9.917  0.00  0.00    +0.000 HD
ATOM     28  H   UNL     1      44.258   1.648   9.709  0.00  0.00    +0.000 HD
ENDBRANCH  20  24
ENDBRANCH  16  17
ENDBRANCH  15  16
ENDBRANCH   2  15
TORSDOF 6
ENDMDL
MODEL 8
REMARK VINA RESULT:    -5.852      4.901      8.582
REMARK INTER + INTRA:          -8.777
REMARK INTER:                  -7.783
REMARK INTRA:                  -0.994
REMARK UNBOUND:                -0.872
REMARK  Name = 
REMARK  8 active torsions:
REMARK  status: ('A' for Active; 'I' for Inactive)
REMARK    1  A    between atoms: C_1  and  C_2
REMARK    2  A    between atoms: C_2  and  C_3
REMARK    3  A    between atoms: C_2  and  C_4
REMARK    4  A    between atoms: C_2  and  C_16
REMARK    5  A    between atoms: C_4  and  O_5
REMARK    6  A    between atoms: O_5  and  C_6
REMARK    7  A    between atoms: C_9  and  C_10
REMARK    8  A    between atoms: C_20  and  C_21
REMARK                            x       y       z     vdW  Elec       q    Type
REMARK                         _______ _______ _______ _____ _____    ______ ____
ROOT
ATOM      1  C   UNL     1      48.094   9.587  13.412  0.00  0.00    +0.000 C 
ATOM      2  C   UNL     1      48.589   8.148  13.140  0.00  0.00    +0.000 C 
ATOM      3  C   UNL     1      49.531   8.220  11.911  0.00  0.00    +0.000 C 
ENDROOT
BRANCH   2   4
ATOM      4  C   UNL     1      47.376   7.225  12.906  0.00  0.00    +0.000 A 
ATOM      5  C   UNL     1      46.151   7.684  12.402  0.00  0.00    +0.000 A 
ATOM      6  C   UNL     1      45.092   6.796  12.236  0.00  0.00    +0.000 A 
ATOM      7  N   UNL     1      45.154   5.480  12.524  0.00  0.00    +0.000 NA
ATOM      8  C   UNL     1      46.343   5.039  13.012  0.00  0.00    +0.000 A 
ATOM      9  C   UNL     1      47.449   5.856  13.217  0.00  0.00    +0.000 A 
BRANCH   8  10
ATOM     10  C   UNL     1      46.426   3.580  13.345  0.00  0.00    +0.000 C 
ATOM     11  N   UNL     1      45.527   2.782  12.693  0.00  0.00    +0.000 N 
ATOM     12  O   UNL     1      47.235   3.122  14.143  0.00  0.00    +0.000 OA
ATOM     13  H   UNL     1      44.874   3.199  12.041  0.00  0.00    +0.000 HD
ATOM     14  H   UNL     1      45.517   1.787  12.871  0.00  0.00    +0.000 HD
ENDBRANCH   8  10
ENDBRANCH   2   4
BRANCH   2  15
ATOM     15  C   UNL     1      49.469   7.653  14.330  0.00  0.00    +0.000 C 
BRANCH  15  16
ATOM     16  O   UNL     1      49.055   8.232  15.569  0.00  0.00    +0.000 OA
BRANCH  16  17
ATOM     17  C   UNL     1      49.010   7.416  16.664  0.00  0.00    +0.000 A 
ATOM     18  C   UNL     1      49.473   6.117  16.430  0.00  0.00    +0.000 A 
ATOM     19  C   UNL     1      49.446   5.149  17.442  0.00  0.00    +0.000 A 
ATOM     20  C   UNL     1      48.946   5.472  18.708  0.00  0.00    +0.000 A 
ATOM     21  C   UNL     1      48.505   6.778  18.951  0.00  0.00    +0.000 A 
ATOM     22  C   UNL     1      48.541   7.735  17.940  0.00  0.00    +0.000 A 
ATOM     23  F   UNL     1      48.100   8.965  18.238  0.00  0.00    +0.000 F 
BRANCH  20  24
ATOM     24  C   UNL     1      48.844   4.495  19.830  0.00  0.00    +0.000 C 
ATOM     25  N   UNL     1      48.342   3.250  19.577  0.00  0.00    +0.000 N 
ATOM     26  O   UNL     1      49.190   4.794  20.967  0.00  0.00    +0.000 OA
ATOM     27  H   UNL     1      48.014   2.919  18.682  0.00  0.00    +0.000 HD
ATOM     28  H   UNL     1      48.268   2.623  20.368  0.00  0.00    +0.000 HD
ENDBRANCH  20  24
ENDBRANCH  16  17
ENDBRANCH  15  16
ENDBRANCH   2  15
TORSDOF 6
ENDMDL
