MODEL 1
REMARK VINA RESULT:    -8.702      0.000      0.000
REMARK INTER + INTRA:         -12.820
REMARK INTER:                 -11.754
REMARK INTRA:                  -1.066
REMARK UNBOUND:                -1.066
REMARK  Name = 
REMARK  6 active torsions:
REMARK  status: ('A' for Active; 'I' for Inactive)
REMARK    1  A    between atoms: C_2  and  C_3
REMARK    2  A    between atoms: N_7  and  C_8
REMARK    3  A    between atoms: C_8  and  C_9
REMARK    4  A    between atoms: C_9  and  C_12
REMARK    5  A    between atoms: C_16  and  C_17
REMARK    6  A    between atoms: C_20  and  C_21
REMARK                            x       y       z     vdW  Elec       q    Type
REMARK                         _______ _______ _______ _____ _____    ______ ____
ROOT
ATOM      1  C   UNL     1      45.237   5.672  12.183  0.00  0.00    +0.000 A 
ATOM      2  C   UNL     1      46.045   6.455  11.346  0.00  0.00    +0.000 A 
ATOM      3  C   UNL     1      47.363   6.741  11.699  0.00  0.00    +0.000 A 
ATOM      4  C   UNL     1      47.886   6.273  12.907  0.00  0.00    +0.000 A 
ATOM      5  C   UNL     1      47.105   5.514  13.791  0.00  0.00    +0.000 A 
ATOM      6  C   UNL     1      45.798   5.192  13.382  0.00  0.00    +0.000 A 
ENDROOT
BRANCH   5   7
ATOM      7  C   UNL     1      47.569   5.159  15.155  0.00  0.00    +0.000 A 
ATOM      8  C   UNL     1      48.403   6.032  15.877  0.00  0.00    +0.000 A 
ATOM      9  C   UNL     1      48.754   5.778  17.208  0.00  0.00    +0.000 A 
ATOM     10  C   UNL     1      48.267   4.644  17.854  0.00  0.00    +0.000 A 
ATOM     11  C   UNL     1      47.451   3.764  17.153  0.00  0.00    +0.000 A 
ATOM     12  F   UNL     1      46.949   2.675  17.754  0.00  0.00    +0.000 F 
ATOM     13  C   UNL     1      47.115   4.004  15.820  0.00  0.00    +0.000 A 
BRANCH  10  14
ATOM     14  C   UNL     1      48.589   4.397  19.222  0.00  0.00    +0.000 C 
ATOM     15  N   UNL     1      48.823   4.222  20.346  0.00  0.00    +0.000 NA
ENDBRANCH  10  14
ENDBRANCH   5   7
BRANCH   1  16
ATOM     16  C   UNL     1      43.776   5.455  11.809  0.00  0.00    +0.000 C 
ATOM     17  F   UNL     1      43.083   6.639  11.810  0.00  0.00    +0.000 F 
ATOM     18  F   UNL     1      43.152   4.685  12.754  0.00  0.00    +0.000 F 
BRANCH  16  19
ATOM     19  C   UNL     1      43.557   4.794  10.422  0.00  0.00    +0.000 C 
BRANCH  19  24
ATOM     20  C   UNL     1      46.671   2.416   7.364  0.00  0.00    +0.000 A 
ATOM     21  C   UNL     1      46.118   1.403   8.145  0.00  0.00    +0.000 A 
ATOM     22  C   UNL     1      45.181   1.732   9.128  0.00  0.00    +0.000 A 
ATOM     23  C   UNL     1      44.804   3.059   9.310  0.00  0.00    +0.000 A 
ATOM     24  N   UNL     1      43.928   3.368  10.361  0.00  0.00    +0.000 N 
ATOM     25  N   UNL     1      45.336   4.045   8.555  0.00  0.00    +0.000 NA
ATOM     26  C   UNL     1      46.246   3.709   7.605  0.00  0.00    +0.000 A 
ATOM     27  H   UNL     1      43.123   2.749  10.379  0.00  0.00    +0.000 HD
BRANCH  20  29
ATOM     28  N   UNL     1      48.444   1.916   5.543  0.00  0.00    +0.000 NA
ATOM     29  C   UNL     1      47.650   2.138   6.358  0.00  0.00    +0.000 C 
ENDBRANCH  20  29
ENDBRANCH  19  24
ENDBRANCH  16  19
ENDBRANCH   1  16
TORSDOF 6
ENDMDL
MODEL 2
REMARK VINA RESULT:    -7.866      3.303      5.013
REMARK INTER + INTRA:         -11.692
REMARK INTER:                 -10.506
REMARK INTRA:                  -1.185
REMARK UNBOUND:                -1.066
REMARK  Name = 
REMARK  6 active torsions:
REMARK  status: ('A' for Active; 'I' for Inactive)
REMARK    1  A    between atoms: C_2  and  C_3
REMARK    2  A    between atoms: N_7  and  C_8
REMARK    3  A    between atoms: C_8  and  C_9
REMARK    4  A    between atoms: C_9  and  C_12
REMARK    5  A    between atoms: C_16  and  C_17
REMARK    6  A    between atoms: C_20  and  C_21
REMARK                            x       y       z     vdW  Elec       q    Type
REMARK                         _______ _______ _______ _____ _____    ______ ____
ROOT
ATOM      1  C   UNL     1      44.780   5.587  12.765  0.00  0.00    +0.000 A 
ATOM      2  C   UNL     1      45.302   4.405  13.307  0.00  0.00    +0.000 A 
ATOM      3  C   UNL     1      46.653   4.313  13.640  0.00  0.00    +0.000 A 
ATOM      4  C   UNL     1      47.509   5.394  13.410  0.00  0.00    +0.000 A 
ATOM      5  C   UNL     1      47.038   6.585  12.839  0.00  0.00    +0.000 A 
ATOM      6  C   UNL     1      45.660   6.668  12.568  0.00  0.00    +0.000 A 
ENDROOT
BRANCH   5   7
ATOM      7  C   UNL     1      47.948   7.676  12.416  0.00  0.00    +0.000 A 
ATOM      8  C   UNL     1      49.295   7.407  12.109  0.00  0.00    +0.000 A 
ATOM      9  C   UNL     1      50.141   8.394  11.592  0.00  0.00    +0.000 A 
ATOM     10  C   UNL     1      49.655   9.678  11.357  0.00  0.00    +0.000 A 
ATOM     11  C   UNL     1      48.331   9.966  11.665  0.00  0.00    +0.000 A 
ATOM     12  F   UNL     1      47.827  11.187  11.430  0.00  0.00    +0.000 F 
ATOM     13  C   UNL     1      47.489   8.990  12.198  0.00  0.00    +0.000 A 
BRANCH  10  14
ATOM     14  C   UNL     1      50.500  10.680  10.794  0.00  0.00    +0.000 C 
ATOM     15  N   UNL     1      51.185  11.478  10.301  0.00  0.00    +0.000 NA
ENDBRANCH  10  14
ENDBRANCH   5   7
BRANCH   1  16
ATOM     16  C   UNL     1      43.319   5.620  12.331  0.00  0.00    +0.000 C 
ATOM     17  F   UNL     1      42.895   6.908  12.119  0.00  0.00    +0.000 F 
ATOM     18  F   UNL     1      42.514   5.149  13.333  0.00  0.00    +0.000 F 
BRANCH  16  19
ATOM     19  C   UNL     1      43.011   4.815  11.041  0.00  0.00    +0.000 C 
BRANCH  19  24
ATOM     20  C   UNL     1      45.951   1.990   8.199  0.00  0.00    +0.000 A 
ATOM     21  C   UNL     1      46.148   3.282   7.716  0.00  0.00    +0.000 A 
ATOM     22  C   UNL     1      45.456   4.345   8.305  0.00  0.00    +0.000 A 
ATOM     23  C   UNL     1      44.592   4.104   9.369  0.00  0.00    +0.000 A 
ATOM     24  N   UNL     1      43.849   5.177   9.882  0.00  0.00    +0.000 N 
ATOM     25  N   UNL     1      44.399   2.854   9.842  0.00  0.00    +0.000 NA
ATOM     26  C   UNL     1      45.077   1.833   9.258  0.00  0.00    +0.000 A 
ATOM     27  H   UNL     1      44.428   5.994  10.053  0.00  0.00    +0.000 HD
BRANCH  20  29
ATOM     28  N   UNL     1      47.153  -0.048   7.147  0.00  0.00    +0.000 NA
ATOM     29  C   UNL     1      46.616   0.863   7.619  0.00  0.00    +0.000 C 
ENDBRANCH  20  29
ENDBRANCH  19  24
ENDBRANCH  16  19
ENDBRANCH   1  16
TORSDOF 6
ENDMDL
MODEL 3
REMARK VINA RESULT:    -7.149      3.446      4.164
REMARK INTER + INTRA:         -10.722
REMARK INTER:                  -9.777
REMARK INTRA:                  -0.946
REMARK UNBOUND:                -1.066
REMARK  Name = 
REMARK  6 active torsions:
REMARK  status: ('A' for Active; 'I' for Inactive)
REMARK    1  A    between atoms: C_2  and  C_3
REMARK    2  A    between atoms: N_7  and  C_8
REMARK    3  A    between atoms: C_8  and  C_9
REMARK    4  A    between atoms: C_9  and  C_12
REMARK    5  A    between atoms: C_16  and  C_17
REMARK    6  A    between atoms: C_20  and  C_21
REMARK                            x       y       z     vdW  Elec       q    Type
REMARK                         _______ _______ _______ _____ _____    ______ ____
ROOT
ATOM      1  C   UNL     1      45.125   6.845  11.916  0.00  0.00    +0.000 A 
ATOM      2  C   UNL     1      44.419   8.046  11.758  0.00  0.00    +0.000 A 
ATOM      3  C   UNL     1      45.093   9.265  11.719  0.00  0.00    +0.000 A 
ATOM      4  C   UNL     1      46.482   9.307  11.864  0.00  0.00    +0.000 A 
ATOM      5  C   UNL     1      47.228   8.134  12.058  0.00  0.00    +0.000 A 
ATOM      6  C   UNL     1      46.526   6.915  12.035  0.00  0.00    +0.000 A 
ENDROOT
BRANCH   5   7
ATOM      7  C   UNL     1      48.671   8.159  12.396  0.00  0.00    +0.000 A 
ATOM      8  C   UNL     1      49.645   8.001  11.393  0.00  0.00    +0.000 A 
ATOM      9  C   UNL     1      51.010   8.142  11.668  0.00  0.00    +0.000 A 
ATOM     10  C   UNL     1      51.435   8.455  12.956  0.00  0.00    +0.000 A 
ATOM     11  C   UNL     1      50.488   8.603  13.963  0.00  0.00    +0.000 A 
ATOM     12  F   UNL     1      50.864   8.926  15.210  0.00  0.00    +0.000 F 
ATOM     13  C   UNL     1      49.128   8.445  13.698  0.00  0.00    +0.000 A 
BRANCH  10  14
ATOM     14  C   UNL     1      52.822   8.638  13.237  0.00  0.00    +0.000 C 
ATOM     15  N   UNL     1      53.953   8.812  13.435  0.00  0.00    +0.000 NA
ENDBRANCH  10  14
ENDBRANCH   5   7
BRANCH   1  16
ATOM     16  C   UNL     1      44.348   5.541  12.044  0.00  0.00    +0.000 C 
ATOM     17  F   UNL     1      43.316   5.665  12.939  0.00  0.00    +0.000 F 
ATOM     18  F   UNL     1      45.147   4.560  12.569  0.00  0.00    +0.000 F 
BRANCH  16  19
ATOM     19  C   UNL     1      43.745   5.016  10.714  0.00  0.00    +0.000 C 
BRANCH  19  24
ATOM     20  C   UNL     1      46.553   2.431   7.531  0.00  0.00    +0.000 A 
ATOM     21  C   UNL     1      45.799   1.460   8.187  0.00  0.00    +0.000 A 
ATOM     22  C   UNL     1      44.885   1.853   9.169  0.00  0.00    +0.000 A 
ATOM     23  C   UNL     1      44.732   3.203   9.472  0.00  0.00    +0.000 A 
ATOM     24  N   UNL     1      43.871   3.559  10.521  0.00  0.00    +0.000 N 
ATOM     25  N   UNL     1      45.459   4.148   8.838  0.00  0.00    +0.000 NA
ATOM     26  C   UNL     1      46.344   3.749   7.888  0.00  0.00    +0.000 A 
ATOM     27  H   UNL     1      42.972   3.091  10.451  0.00  0.00    +0.000 HD
BRANCH  20  29
ATOM     28  N   UNL     1      48.302   1.800   5.728  0.00  0.00    +0.000 NA
ATOM     29  C   UNL     1      47.519   2.083   6.534  0.00  0.00    +0.000 C 
ENDBRANCH  20  29
ENDBRANCH  19  24
ENDBRANCH  16  19
ENDBRANCH   1  16
TORSDOF 6
ENDMDL
MODEL 4
REMARK VINA RESULT:    -7.147      2.494      8.514
REMARK INTER + INTRA:         -10.719
REMARK INTER:                  -9.891
REMARK INTRA:                  -0.828
REMARK UNBOUND:                -1.066
REMARK  Name = 
REMARK  6 active torsions:
REMARK  status: ('A' for Active; 'I' for Inactive)
REMARK    1  A    between atoms: C_2  and  C_3
REMARK    2  A    between atoms: N_7  and  C_8
REMARK    3  A    between atoms: C_8  and  C_9
REMARK    4  A    between atoms: C_9  and  C_12
REMARK    5  A    between atoms: C_16  and  C_17
REMARK    6  A    between atoms: C_20  and  C_21
REMARK                            x       y       z     vdW  Elec       q    Type
REMARK                         _______ _______ _______ _____ _____    ______ ____
ROOT
ATOM      1  C   UNL     1      45.169   6.643  12.025  0.00  0.00    +0.000 A 
ATOM      2  C   UNL     1      43.799   6.553  12.306  0.00  0.00    +0.000 A 
ATOM      3  C   UNL     1      42.998   5.623  11.643  0.00  0.00    +0.000 A 
ATOM      4  C   UNL     1      43.550   4.787  10.669  0.00  0.00    +0.000 A 
ATOM      5  C   UNL     1      44.910   4.864  10.331  0.00  0.00    +0.000 A 
ATOM      6  C   UNL     1      45.703   5.771  11.057  0.00  0.00    +0.000 A 
ENDROOT
BRANCH   5   7
ATOM      7  C   UNL     1      45.484   4.124   9.181  0.00  0.00    +0.000 A 
ATOM      8  C   UNL     1      46.177   4.807   8.165  0.00  0.00    +0.000 A 
ATOM      9  C   UNL     1      46.831   4.121   7.135  0.00  0.00    +0.000 A 
ATOM     10  C   UNL     1      46.817   2.729   7.104  0.00  0.00    +0.000 A 
ATOM     11  C   UNL     1      46.128   2.037   8.093  0.00  0.00    +0.000 A 
ATOM     12  F   UNL     1      46.114   0.696   8.102  0.00  0.00    +0.000 F 
ATOM     13  C   UNL     1      45.458   2.718   9.110  0.00  0.00    +0.000 A 
BRANCH  10  14
ATOM     14  C   UNL     1      47.514   2.021   6.079  0.00  0.00    +0.000 C 
ATOM     15  N   UNL     1      48.111   1.470   5.250  0.00  0.00    +0.000 NA
ENDBRANCH  10  14
ENDBRANCH   5   7
BRANCH   1  16
ATOM     16  C   UNL     1      45.994   7.730  12.704  0.00  0.00    +0.000 C 
ATOM     17  F   UNL     1      45.206   8.530  13.491  0.00  0.00    +0.000 F 
ATOM     18  F   UNL     1      46.527   8.577  11.769  0.00  0.00    +0.000 F 
BRANCH  16  19
ATOM     19  C   UNL     1      47.149   7.201  13.595  0.00  0.00    +0.000 C 
BRANCH  19  24
ATOM     20  C   UNL     1      49.421   5.043  17.453  0.00  0.00    +0.000 A 
ATOM     21  C   UNL     1      48.445   4.123  17.072  0.00  0.00    +0.000 A 
ATOM     22  C   UNL     1      47.609   4.422  15.993  0.00  0.00    +0.000 A 
ATOM     23  C   UNL     1      47.764   5.623  15.308  0.00  0.00    +0.000 A 
ATOM     24  N   UNL     1      46.854   5.932  14.286  0.00  0.00    +0.000 N 
ATOM     25  N   UNL     1      48.707   6.518  15.673  0.00  0.00    +0.000 NA
ATOM     26  C   UNL     1      49.511   6.213  16.723  0.00  0.00    +0.000 A 
ATOM     27  H   UNL     1      46.724   5.155  13.645  0.00  0.00    +0.000 HD
BRANCH  20  29
ATOM     28  N   UNL     1      50.990   4.599  19.465  0.00  0.00    +0.000 NA
ATOM     29  C   UNL     1      50.289   4.799  18.564  0.00  0.00    +0.000 C 
ENDBRANCH  20  29
ENDBRANCH  19  24
ENDBRANCH  16  19
ENDBRANCH   1  16
TORSDOF 6
ENDMDL
MODEL 5
REMARK VINA RESULT:    -6.781      3.430      7.578
REMARK INTER + INTRA:         -10.225
REMARK INTER:                  -9.135
REMARK INTRA:                  -1.090
REMARK UNBOUND:                -1.066
REMARK  Name = 
REMARK  6 active torsions:
REMARK  status: ('A' for Active; 'I' for Inactive)
REMARK    1  A    between atoms: C_2  and  C_3
REMARK    2  A    between atoms: N_7  and  C_8
REMARK    3  A    between atoms: C_8  and  C_9
REMARK    4  A    between atoms: C_9  and  C_12
REMARK    5  A    between atoms: C_16  and  C_17
REMARK    6  A    between atoms: C_20  and  C_21
REMARK                            x       y       z     vdW  Elec       q    Type
REMARK                         _______ _______ _______ _____ _____    ______ ____
ROOT
ATOM      1  C   UNL     1      47.805   9.382  12.178  0.00  0.00    +0.000 A 
ATOM      2  C   UNL     1      47.109  10.569  11.912  0.00  0.00    +0.000 A 
ATOM      3  C   UNL     1      45.730  10.552  11.702  0.00  0.00    +0.000 A 
ATOM      4  C   UNL     1      45.030   9.343  11.727  0.00  0.00    +0.000 A 
ATOM      5  C   UNL     1      45.689   8.126  11.956  0.00  0.00    +0.000 A 
ATOM      6  C   UNL     1      47.070   8.182  12.222  0.00  0.00    +0.000 A 
ENDROOT
BRANCH   5   7
ATOM      7  C   UNL     1      45.010   6.816  11.808  0.00  0.00    +0.000 A 
ATOM      8  C   UNL     1      45.383   5.928  10.782  0.00  0.00    +0.000 A 
ATOM      9  C   UNL     1      44.844   4.639  10.695  0.00  0.00    +0.000 A 
ATOM     10  C   UNL     1      43.923   4.203  11.644  0.00  0.00    +0.000 A 
ATOM     11  C   UNL     1      43.533   5.070  12.657  0.00  0.00    +0.000 A 
ATOM     12  F   UNL     1      42.663   4.671  13.598  0.00  0.00    +0.000 F 
ATOM     13  C   UNL     1      44.054   6.362  12.736  0.00  0.00    +0.000 A 
BRANCH  10  14
ATOM     14  C   UNL     1      43.396   2.877  11.585  0.00  0.00    +0.000 C 
ATOM     15  N   UNL     1      42.999   1.787  11.560  0.00  0.00    +0.000 NA
ENDBRANCH  10  14
ENDBRANCH   5   7
BRANCH   1  16
ATOM     16  C   UNL     1      49.322   9.428  12.313  0.00  0.00    +0.000 C 
ATOM     17  F   UNL     1      49.707  10.349  13.254  0.00  0.00    +0.000 F 
ATOM     18  F   UNL     1      49.892   9.862  11.146  0.00  0.00    +0.000 F 
BRANCH  16  19
ATOM     19  C   UNL     1      49.976   8.075  12.698  0.00  0.00    +0.000 C 
BRANCH  19  24
ATOM     20  C   UNL     1      48.019   5.103  16.169  0.00  0.00    +0.000 A 
ATOM     21  C   UNL     1      48.929   5.893  16.869  0.00  0.00    +0.000 A 
ATOM     22  C   UNL     1      49.669   6.857  16.179  0.00  0.00    +0.000 A 
ATOM     23  C   UNL     1      49.483   7.025  14.810  0.00  0.00    +0.000 A 
ATOM     24  N   UNL     1      50.301   7.940  14.131  0.00  0.00    +0.000 N 
ATOM     25  N   UNL     1      48.601   6.263  14.127  0.00  0.00    +0.000 NA
ATOM     26  C   UNL     1      47.892   5.330  14.811  0.00  0.00    +0.000 A 
ATOM     27  H   UNL     1      50.350   8.835  14.610  0.00  0.00    +0.000 HD
BRANCH  20  29
ATOM     28  N   UNL     1      46.633   3.261  17.349  0.00  0.00    +0.000 NA
ATOM     29  C   UNL     1      47.252   4.086  16.820  0.00  0.00    +0.000 C 
ENDBRANCH  20  29
ENDBRANCH  19  24
ENDBRANCH  16  19
ENDBRANCH   1  16
TORSDOF 6
ENDMDL
MODEL 6
REMARK VINA RESULT:    -6.697      3.314      7.905
REMARK INTER + INTRA:         -10.112
REMARK INTER:                  -8.948
REMARK INTRA:                  -1.164
REMARK UNBOUND:                -1.066
REMARK  Name = 
REMARK  6 active torsions:
REMARK  status: ('A' for Active; 'I' for Inactive)
REMARK    1  A    between atoms: C_2  and  C_3
REMARK    2  A    between atoms: N_7  and  C_8
REMARK    3  A    between atoms: C_8  and  C_9
REMARK    4  A    between atoms: C_9  and  C_12
REMARK    5  A    between atoms: C_16  and  C_17
REMARK    6  A    between atoms: C_20  and  C_21
REMARK                            x       y       z     vdW  Elec       q    Type
REMARK                         _______ _______ _______ _____ _____    ______ ____
ROOT
ATOM      1  C   UNL     1      48.914   8.447  14.921  0.00  0.00    +0.000 A 
ATOM      2  C   UNL     1      50.090   8.641  14.183  0.00  0.00    +0.000 A 
ATOM      3  C   UNL     1      50.258   8.027  12.943  0.00  0.00    +0.000 A 
ATOM      4  C   UNL     1      49.266   7.186  12.434  0.00  0.00    +0.000 A 
ATOM      5  C   UNL     1      48.087   6.936  13.152  0.00  0.00    +0.000 A 
ATOM      6  C   UNL     1      47.920   7.615  14.372  0.00  0.00    +0.000 A 
ENDROOT
BRANCH   5   7
ATOM      7  C   UNL     1      47.101   5.912  12.727  0.00  0.00    +0.000 A 
ATOM      8  C   UNL     1      46.910   4.743  13.487  0.00  0.00    +0.000 A 
ATOM      9  C   UNL     1      45.904   3.822  13.175  0.00  0.00    +0.000 A 
ATOM     10  C   UNL     1      45.053   4.056  12.097  0.00  0.00    +0.000 A 
ATOM     11  C   UNL     1      45.234   5.198  11.327  0.00  0.00    +0.000 A 
ATOM     12  F   UNL     1      44.418   5.462  10.296  0.00  0.00    +0.000 F 
ATOM     13  C   UNL     1      46.249   6.110  11.624  0.00  0.00    +0.000 A 
BRANCH  10  14
ATOM     14  C   UNL     1      44.000   3.141  11.795  0.00  0.00    +0.000 C 
ATOM     15  N   UNL     1      43.118   2.420  11.571  0.00  0.00    +0.000 NA
ENDBRANCH  10  14
ENDBRANCH   5   7
BRANCH   1  16
ATOM     16  C   UNL     1      48.803   9.063  16.311  0.00  0.00    +0.000 C 
ATOM     17  F   UNL     1      47.552   9.585  16.522  0.00  0.00    +0.000 F 
ATOM     18  F   UNL     1      49.651  10.131  16.429  0.00  0.00    +0.000 F 
BRANCH  16  19
ATOM     19  C   UNL     1      49.094   8.081  17.477  0.00  0.00    +0.000 C 
BRANCH  19  24
ATOM     20  C   UNL     1      50.081   3.210  17.367  0.00  0.00    +0.000 A 
ATOM     21  C   UNL     1      48.689   3.277  17.384  0.00  0.00    +0.000 A 
ATOM     22  C   UNL     1      48.065   4.527  17.416  0.00  0.00    +0.000 A 
ATOM     23  C   UNL     1      48.835   5.686  17.420  0.00  0.00    +0.000 A 
ATOM     24  N   UNL     1      48.183   6.922  17.540  0.00  0.00    +0.000 N 
ATOM     25  N   UNL     1      50.184   5.628  17.403  0.00  0.00    +0.000 NA
ATOM     26  C   UNL     1      50.775   4.406  17.373  0.00  0.00    +0.000 A 
ATOM     27  H   UNL     1      47.398   7.002  16.900  0.00  0.00    +0.000 HD
BRANCH  20  29
ATOM     28  N   UNL     1      51.329   0.941  17.349  0.00  0.00    +0.000 NA
ATOM     29  C   UNL     1      50.771   1.957  17.356  0.00  0.00    +0.000 C 
ENDBRANCH  20  29
ENDBRANCH  19  24
ENDBRANCH  16  19
ENDBRANCH   1  16
TORSDOF 6
ENDMDL
MODEL 7
REMARK VINA RESULT:    -6.239      3.760      8.303
REMARK INTER + INTRA:          -9.494
REMARK INTER:                  -8.223
REMARK INTRA:                  -1.270
REMARK UNBOUND:                -1.066
REMARK  Name = 
REMARK  6 active torsions:
REMARK  status: ('A' for Active; 'I' for Inactive)
REMARK    1  A    between atoms: C_2  and  C_3
REMARK    2  A    between atoms: N_7  and  C_8
REMARK    3  A    between atoms: C_8  and  C_9
REMARK    4  A    between atoms: C_9  and  C_12
REMARK    5  A    between atoms: C_16  and  C_17
REMARK    6  A    between atoms: C_20  and  C_21
REMARK                            x       y       z     vdW  Elec       q    Type
REMARK                         _______ _______ _______ _____ _____    ______ ____
ROOT
ATOM      1  C   UNL     1      48.855   8.973  11.930  0.00  0.00    +0.000 A 
ATOM      2  C   UNL     1      48.242  10.228  11.822  0.00  0.00    +0.000 A 
ATOM      3  C   UNL     1      46.856  10.351  11.908  0.00  0.00    +0.000 A 
ATOM      4  C   UNL     1      46.058   9.215  12.074  0.00  0.00    +0.000 A 
ATOM      5  C   UNL     1      46.625   7.934  12.154  0.00  0.00    +0.000 A 
ATOM      6  C   UNL     1      48.029   7.849  12.123  0.00  0.00    +0.000 A 
ENDROOT
BRANCH   5   7
ATOM      7  C   UNL     1      45.802   6.701  12.146  0.00  0.00    +0.000 A 
ATOM      8  C   UNL     1      44.527   6.694  11.550  0.00  0.00    +0.000 A 
ATOM      9  C   UNL     1      43.783   5.516  11.422  0.00  0.00    +0.000 A 
ATOM     10  C   UNL     1      44.305   4.308  11.880  0.00  0.00    +0.000 A 
ATOM     11  C   UNL     1      45.557   4.296  12.482  0.00  0.00    +0.000 A 
ATOM     12  F   UNL     1      46.095   3.146  12.913  0.00  0.00    +0.000 F 
ATOM     13  C   UNL     1      46.294   5.473  12.628  0.00  0.00    +0.000 A 
BRANCH  10  14
ATOM     14  C   UNL     1      43.570   3.095  11.719  0.00  0.00    +0.000 C 
ATOM     15  N   UNL     1      42.980   2.099  11.627  0.00  0.00    +0.000 NA
ENDBRANCH  10  14
ENDBRANCH   5   7
BRANCH   1  16
ATOM     16  C   UNL     1      50.364   8.867  11.743  0.00  0.00    +0.000 C 
ATOM     17  F   UNL     1      50.824   9.827  10.878  0.00  0.00    +0.000 F 
ATOM     18  F   UNL     1      50.688   7.677  11.148  0.00  0.00    +0.000 F 
BRANCH  16  19
ATOM     19  C   UNL     1      51.187   8.996  13.053  0.00  0.00    +0.000 C 
BRANCH  19  24
ATOM     20  C   UNL     1      48.927   7.880  17.337  0.00  0.00    +0.000 A 
ATOM     21  C   UNL     1      49.732   6.773  17.077  0.00  0.00    +0.000 A 
ATOM     22  C   UNL     1      50.521   6.758  15.923  0.00  0.00    +0.000 A 
ATOM     23  C   UNL     1      50.502   7.846  15.056  0.00  0.00    +0.000 A 
ATOM     24  N   UNL     1      51.237   7.765  13.864  0.00  0.00    +0.000 N 
ATOM     25  N   UNL     1      49.724   8.922  15.304  0.00  0.00    +0.000 NA
ATOM     26  C   UNL     1      48.963   8.921  16.428  0.00  0.00    +0.000 A 
ATOM     27  H   UNL     1      52.185   7.436  14.023  0.00  0.00    +0.000 HD
BRANCH  20  29
ATOM     28  N   UNL     1      47.398   7.986  19.424  0.00  0.00    +0.000 NA
ATOM     29  C   UNL     1      48.083   7.939  18.491  0.00  0.00    +0.000 C 
ENDBRANCH  20  29
ENDBRANCH  19  24
ENDBRANCH  16  19
ENDBRANCH   1  16
TORSDOF 6
ENDMDL
MODEL 8
REMARK VINA RESULT:    -6.210      3.374      8.003
REMARK INTER + INTRA:          -9.454
REMARK INTER:                  -8.305
REMARK INTRA:                  -1.149
REMARK UNBOUND:                -1.066
REMARK  Name = 
REMARK  6 active torsions:
REMARK  status: ('A' for Active; 'I' for Inactive)
REMARK    1  A    between atoms: C_2  and  C_3
REMARK    2  A    between atoms: N_7  and  C_8
REMARK    3  A    between atoms: C_8  and  C_9
REMARK    4  A    between atoms: C_9  and  C_12
REMARK    5  A    between atoms: C_16  and  C_17
REMARK    6  A    between atoms: C_20  and  C_21
REMARK                            x       y       z     vdW  Elec       q    Type
REMARK                         _______ _______ _______ _____ _____    ______ ____
ROOT
ATOM      1  C   UNL     1      48.885   9.181  13.947  0.00  0.00    +0.000 A 
ATOM      2  C   UNL     1      49.797   9.367  12.898  0.00  0.00    +0.000 A 
ATOM      3  C   UNL     1      49.631   8.697  11.687  0.00  0.00    +0.000 A 
ATOM      4  C   UNL     1      48.567   7.808  11.514  0.00  0.00    +0.000 A 
ATOM      5  C   UNL     1      47.648   7.565  12.547  0.00  0.00    +0.000 A 
ATOM      6  C   UNL     1      47.808   8.299  13.736  0.00  0.00    +0.000 A 
ENDROOT
BRANCH   5   7
ATOM      7  C   UNL     1      46.622   6.498  12.460  0.00  0.00    +0.000 A 
ATOM      8  C   UNL     1      45.427   6.710  11.749  0.00  0.00    +0.000 A 
ATOM      9  C   UNL     1      44.499   5.681  11.550  0.00  0.00    +0.000 A 
ATOM     10  C   UNL     1      44.752   4.407  12.051  0.00  0.00    +0.000 A 
ATOM     11  C   UNL     1      45.922   4.181  12.767  0.00  0.00    +0.000 A 
ATOM     12  F   UNL     1      46.203   2.959  13.244  0.00  0.00    +0.000 F 
ATOM     13  C   UNL     1      46.840   5.209  12.983  0.00  0.00    +0.000 A 
BRANCH  10  14
ATOM     14  C   UNL     1      43.830   3.342  11.821  0.00  0.00    +0.000 C 
ATOM     15  N   UNL     1      43.083   2.483  11.594  0.00  0.00    +0.000 NA
ENDBRANCH  10  14
ENDBRANCH   5   7
BRANCH   1  16
ATOM     16  C   UNL     1      49.147   9.861  15.285  0.00  0.00    +0.000 C 
ATOM     17  F   UNL     1      47.979  10.058  15.978  0.00  0.00    +0.000 F 
ATOM     18  F   UNL     1      49.653  11.118  15.090  0.00  0.00    +0.000 F 
BRANCH  16  19
ATOM     19  C   UNL     1      50.113   9.089  16.223  0.00  0.00    +0.000 C 
BRANCH  19  24
ATOM     20  C   UNL     1      47.761   4.929  17.589  0.00  0.00    +0.000 A 
ATOM     21  C   UNL     1      47.682   5.751  18.712  0.00  0.00    +0.000 A 
ATOM     22  C   UNL     1      48.256   7.025  18.668  0.00  0.00    +0.000 A 
ATOM     23  C   UNL     1      48.887   7.460  17.507  0.00  0.00    +0.000 A 
ATOM     24  N   UNL     1      49.528   8.708  17.522  0.00  0.00    +0.000 N 
ATOM     25  N   UNL     1      48.966   6.668  16.416  0.00  0.00    +0.000 NA
ATOM     26  C   UNL     1      48.405   5.433  16.475  0.00  0.00    +0.000 A 
ATOM     27  H   UNL     1      48.937   9.435  17.917  0.00  0.00    +0.000 HD
BRANCH  20  29
ATOM     28  N   UNL     1      46.764   2.539  17.583  0.00  0.00    +0.000 NA
ATOM     29  C   UNL     1      47.211   3.608  17.587  0.00  0.00    +0.000 C 
ENDBRANCH  20  29
ENDBRANCH  19  24
ENDBRANCH  16  19
ENDBRANCH   1  16
TORSDOF 6
ENDMDL
MODEL 9
REMARK VINA RESULT:    -6.062      5.047      7.256
REMARK INTER + INTRA:          -9.254
REMARK INTER:                  -8.466
REMARK INTRA:                  -0.788
REMARK UNBOUND:                -1.066
REMARK  Name = 
REMARK  6 active torsions:
REMARK  status: ('A' for Active; 'I' for Inactive)
REMARK    1  A    between atoms: C_2  and  C_3
REMARK    2  A    between atoms: N_7  and  C_8
REMARK    3  A    between atoms: C_8  and  C_9
REMARK    4  A    between atoms: C_9  and  C_12
REMARK    5  A    between atoms: C_16  and  C_17
REMARK    6  A    between atoms: C_20  and  C_21
REMARK                            x       y       z     vdW  Elec       q    Type
REMARK                         _______ _______ _______ _____ _____    ______ ____
ROOT
ATOM      1  C   UNL     1      49.421   8.691  11.985  0.00  0.00    +0.000 A 
ATOM      2  C   UNL     1      48.789   9.941  12.035  0.00  0.00    +0.000 A 
ATOM      3  C   UNL     1      47.402  10.030  12.151  0.00  0.00    +0.000 A 
ATOM      4  C   UNL     1      46.624   8.871  12.190  0.00  0.00    +0.000 A 
ATOM      5  C   UNL     1      47.210   7.599  12.110  0.00  0.00    +0.000 A 
ATOM      6  C   UNL     1      48.614   7.540  12.053  0.00  0.00    +0.000 A 
ENDROOT
BRANCH   5   7
ATOM      7  C   UNL     1      46.405   6.362  11.966  0.00  0.00    +0.000 A 
ATOM      8  C   UNL     1      46.174   5.524  13.073  0.00  0.00    +0.000 A 
ATOM      9  C   UNL     1      45.319   4.419  12.991  0.00  0.00    +0.000 A 
ATOM     10  C   UNL     1      44.663   4.131  11.797  0.00  0.00    +0.000 A 
ATOM     11  C   UNL     1      44.887   4.940  10.689  0.00  0.00    +0.000 A 
ATOM     12  F   UNL     1      44.254   4.701   9.531  0.00  0.00    +0.000 F 
ATOM     13  C   UNL     1      45.753   6.032  10.762  0.00  0.00    +0.000 A 
BRANCH  10  14
ATOM     14  C   UNL     1      43.760   3.029  11.714  0.00  0.00    +0.000 C 
ATOM     15  N   UNL     1      43.006   2.147  11.679  0.00  0.00    +0.000 NA
ENDBRANCH  10  14
ENDBRANCH   5   7
BRANCH   1  16
ATOM     16  C   UNL     1      50.929   8.633  11.769  0.00  0.00    +0.000 C 
ATOM     17  F   UNL     1      51.563   8.080  12.853  0.00  0.00    +0.000 F 
ATOM     18  F   UNL     1      51.445   9.897  11.670  0.00  0.00    +0.000 F 
BRANCH  16  19
ATOM     19  C   UNL     1      51.371   7.829  10.517  0.00  0.00    +0.000 C 
BRANCH  19  24
ATOM     20  C   UNL     1      54.038   5.210   7.241  0.00  0.00    +0.000 A 
ATOM     21  C   UNL     1      54.655   4.957   8.465  0.00  0.00    +0.000 A 
ATOM     22  C   UNL     1      54.146   5.551   9.623  0.00  0.00    +0.000 A 
ATOM     23  C   UNL     1      53.028   6.377   9.544  0.00  0.00    +0.000 A 
ATOM     24  N   UNL     1      52.593   7.026  10.709  0.00  0.00    +0.000 N 
ATOM     25  N   UNL     1      52.426   6.625   8.361  0.00  0.00    +0.000 NA
ATOM     26  C   UNL     1      52.934   6.041   7.246  0.00  0.00    +0.000 A 
ATOM     27  H   UNL     1      52.528   6.390  11.498  0.00  0.00    +0.000 HD
BRANCH  20  29
ATOM     28  N   UNL     1      54.928   4.191   5.033  0.00  0.00    +0.000 NA
ATOM     29  C   UNL     1      54.531   4.646   6.022  0.00  0.00    +0.000 C 
ENDBRANCH  20  29
ENDBRANCH  19  24
ENDBRANCH  16  19
ENDBRANCH   1  16
TORSDOF 6
ENDMDL
