MODEL 1
REMARK VINA RESULT:    -6.976      0.000      0.000
REMARK INTER + INTRA:          -9.150
REMARK INTER:                  -8.607
REMARK INTRA:                  -0.543
REMARK UNBOUND:                -0.543
REMARK  Name = 
REMARK  5 active torsions:
REMARK  status: ('A' for Active; 'I' for Inactive)
REMARK    1  A    between atoms: C_1  and  C_2
REMARK    2  A    between atoms: C_2  and  N_3
REMARK    3  A    between atoms: N_3  and  C_4
REMARK    4  A    between atoms: C_4  and  C_5
REMARK    5  A    between atoms: C_14  and  C_15
REMARK                            x       y       z     vdW  Elec       q    Type
REMARK                         _______ _______ _______ _____ _____    ______ ____
ROOT
ATOM      1  N   UNL     1      44.483   4.302  10.706  0.00  0.00    +0.000 N 
ATOM      2  C   UNL     1      44.995   5.508  11.221  0.00  0.00    +0.000 A 
ATOM      3  C   UNL     1      46.352   5.786  11.039  0.00  0.00    +0.000 A 
ATOM      4  C   UNL     1      46.913   6.922  11.618  0.00  0.00    +0.000 A 
ATOM      5  C   UNL     1      46.114   7.772  12.378  0.00  0.00    +0.000 A 
ATOM      6  C   UNL     1      44.773   7.442  12.491  0.00  0.00    +0.000 A 
ATOM      7  N   UNL     1      44.204   6.348  11.925  0.00  0.00    +0.000 NA
ENDROOT
BRANCH   5   8
ATOM      8  C   UNL     1      46.728   8.953  13.029  0.00  0.00    +0.000 C 
ATOM      9  N   UNL     1      46.965   8.924  14.376  0.00  0.00    +0.000 N 
ATOM     10  O   UNL     1      47.036   9.946  12.378  0.00  0.00    +0.000 OA
ATOM     11  H   UNL     1      46.813   8.136  14.988  0.00  0.00    +0.000 HD
ATOM     12  H   UNL     1      47.412   9.742  14.774  0.00  0.00    +0.000 HD
ENDBRANCH   5   8
BRANCH   1  14
ATOM     13  C   UNL     1      43.469   2.525  12.156  0.00  0.00    +0.000 C 
ATOM     14  C   UNL     1      43.257   3.828  11.385  0.00  0.00    +0.000 C 
ENDBRANCH   1  14
BRANCH   1  15
ATOM     15  C   UNL     1      44.343   4.399   9.230  0.00  0.00    +0.000 C 
BRANCH  15  16
ATOM     16  C   UNL     1      45.320   3.509   8.475  0.00  0.00    +0.000 A 
ATOM     17  C   UNL     1      45.440   2.150   8.768  0.00  0.00    +0.000 A 
ATOM     18  C   UNL     1      46.349   1.379   8.048  0.00  0.00    +0.000 A 
ATOM     19  C   UNL     1      47.140   1.985   7.080  0.00  0.00    +0.000 A 
ATOM     20  C   UNL     1      46.998   3.346   6.881  0.00  0.00    +0.000 A 
ATOM     21  N   UNL     1      46.112   4.117   7.551  0.00  0.00    +0.000 NA
ENDBRANCH  15  16
ENDBRANCH   1  15
TORSDOF 4
ENDMDL
MODEL 2
REMARK VINA RESULT:    -6.930      2.884      6.458
REMARK INTER + INTRA:          -9.093
REMARK INTER:                  -8.561
REMARK INTRA:                  -0.532
REMARK UNBOUND:                -0.543
REMARK  Name = 
REMARK  5 active torsions:
REMARK  status: ('A' for Active; 'I' for Inactive)
REMARK    1  A    between atoms: C_1  and  C_2
REMARK    2  A    between atoms: C_2  and  N_3
REMARK    3  A    between atoms: N_3  and  C_4
REMARK    4  A    between atoms: C_4  and  C_5
REMARK    5  A    between atoms: C_14  and  C_15
REMARK                            x       y       z     vdW  Elec       q    Type
REMARK                         _______ _______ _______ _____ _____    ______ ____
ROOT
ATOM      1  N   UNL     1      44.349   4.773  10.820  0.00  0.00    +0.000 N 
ATOM      2  C   UNL     1      45.043   4.086   9.806  0.00  0.00    +0.000 A 
ATOM      3  C   UNL     1      45.776   4.832   8.879  0.00  0.00    +0.000 A 
ATOM      4  C   UNL     1      46.395   4.193   7.806  0.00  0.00    +0.000 A 
ATOM      5  C   UNL     1      46.275   2.813   7.665  0.00  0.00    +0.000 A 
ATOM      6  C   UNL     1      45.553   2.141   8.639  0.00  0.00    +0.000 A 
ATOM      7  N   UNL     1      44.955   2.741   9.698  0.00  0.00    +0.000 NA
ENDROOT
BRANCH   5   8
ATOM      8  C   UNL     1      46.897   2.148   6.497  0.00  0.00    +0.000 C 
ATOM      9  N   UNL     1      47.203   2.893   5.391  0.00  0.00    +0.000 N 
ATOM     10  O   UNL     1      47.151   0.948   6.511  0.00  0.00    +0.000 OA
ATOM     11  H   UNL     1      47.099   3.892   5.302  0.00  0.00    +0.000 HD
ATOM     12  H   UNL     1      47.652   2.402   4.626  0.00  0.00    +0.000 HD
ENDBRANCH   5   8
BRANCH   1  14
ATOM     13  C   UNL     1      43.401   3.645  12.850  0.00  0.00    +0.000 C 
ATOM     14  C   UNL     1      43.204   4.023  11.382  0.00  0.00    +0.000 C 
ENDBRANCH   1  14
BRANCH   1  15
ATOM     15  C   UNL     1      45.304   5.256  11.850  0.00  0.00    +0.000 C 
BRANCH  15  16
ATOM     16  C   UNL     1      45.314   6.771  11.994  0.00  0.00    +0.000 A 
ATOM     17  C   UNL     1      46.173   7.411  12.888  0.00  0.00    +0.000 A 
ATOM     18  C   UNL     1      46.143   8.800  12.981  0.00  0.00    +0.000 A 
ATOM     19  C   UNL     1      45.236   9.516  12.210  0.00  0.00    +0.000 A 
ATOM     20  C   UNL     1      44.384   8.807  11.383  0.00  0.00    +0.000 A 
ATOM     21  N   UNL     1      44.402   7.461  11.257  0.00  0.00    +0.000 NA
ENDBRANCH  15  16
ENDBRANCH   1  15
TORSDOF 4
ENDMDL
MODEL 3
REMARK VINA RESULT:    -6.158      1.265      1.447
REMARK INTER + INTRA:          -8.141
REMARK INTER:                  -7.703
REMARK INTRA:                  -0.438
REMARK UNBOUND:                -0.543
REMARK  Name = 
REMARK  5 active torsions:
REMARK  status: ('A' for Active; 'I' for Inactive)
REMARK    1  A    between atoms: C_1  and  C_2
REMARK    2  A    between atoms: C_2  and  N_3
REMARK    3  A    between atoms: N_3  and  C_4
REMARK    4  A    between atoms: C_4  and  C_5
REMARK    5  A    between atoms: C_14  and  C_15
REMARK                            x       y       z     vdW  Elec       q    Type
REMARK                         _______ _______ _______ _____ _____    ______ ____
ROOT
ATOM      1  N   UNL     1      44.754   5.180  11.493  0.00  0.00    +0.000 N 
ATOM      2  C   UNL     1      45.560   6.285  11.828  0.00  0.00    +0.000 A 
ATOM      3  C   UNL     1      46.889   6.293  11.398  0.00  0.00    +0.000 A 
ATOM      4  C   UNL     1      47.742   7.322  11.793  0.00  0.00    +0.000 A 
ATOM      5  C   UNL     1      47.260   8.336  12.617  0.00  0.00    +0.000 A 
ATOM      6  C   UNL     1      45.925   8.271  12.980  0.00  0.00    +0.000 A 
ATOM      7  N   UNL     1      45.075   7.286  12.596  0.00  0.00    +0.000 NA
ENDROOT
BRANCH   5   8
ATOM      8  C   UNL     1      48.186   9.401  13.070  0.00  0.00    +0.000 C 
ATOM      9  N   UNL     1      47.910  10.076  14.227  0.00  0.00    +0.000 N 
ATOM     10  O   UNL     1      49.196   9.676  12.430  0.00  0.00    +0.000 OA
ATOM     11  H   UNL     1      47.148   9.883  14.859  0.00  0.00    +0.000 HD
ATOM     12  H   UNL     1      48.585  10.777  14.512  0.00  0.00    +0.000 HD
ENDBRANCH   5   8
BRANCH   1  14
ATOM     13  C   UNL     1      42.284   5.471  11.819  0.00  0.00    +0.000 C 
ATOM     14  C   UNL     1      43.606   4.973  12.403  0.00  0.00    +0.000 C 
ENDBRANCH   1  14
BRANCH   1  15
ATOM     15  C   UNL     1      44.369   5.249  10.060  0.00  0.00    +0.000 C 
BRANCH  15  16
ATOM     16  C   UNL     1      45.064   4.201   9.202  0.00  0.00    +0.000 A 
ATOM     17  C   UNL     1      44.950   2.839   9.486  0.00  0.00    +0.000 A 
ATOM     18  C   UNL     1      45.605   1.920   8.669  0.00  0.00    +0.000 A 
ATOM     19  C   UNL     1      46.384   2.379   7.614  0.00  0.00    +0.000 A 
ATOM     20  C   UNL     1      46.487   3.745   7.427  0.00  0.00    +0.000 A 
ATOM     21  N   UNL     1      45.848   4.661   8.190  0.00  0.00    +0.000 NA
ENDBRANCH  15  16
ENDBRANCH   1  15
TORSDOF 4
ENDMDL
MODEL 4
REMARK VINA RESULT:    -5.734      3.181      6.132
REMARK INTER + INTRA:          -7.617
REMARK INTER:                  -8.862
REMARK INTRA:                   1.245
REMARK UNBOUND:                -0.543
REMARK  Name = 
REMARK  5 active torsions:
REMARK  status: ('A' for Active; 'I' for Inactive)
REMARK    1  A    between atoms: C_1  and  C_2
REMARK    2  A    between atoms: C_2  and  N_3
REMARK    3  A    between atoms: N_3  and  C_4
REMARK    4  A    between atoms: C_4  and  C_5
REMARK    5  A    between atoms: C_14  and  C_15
REMARK                            x       y       z     vdW  Elec       q    Type
REMARK                         _______ _______ _______ _____ _____    ______ ____
ROOT
ATOM      1  N   UNL     1      44.278   5.040  10.159  0.00  0.00    +0.000 N 
ATOM      2  C   UNL     1      45.076   4.159   9.405  0.00  0.00    +0.000 A 
ATOM      3  C   UNL     1      45.701   4.647   8.255  0.00  0.00    +0.000 A 
ATOM      4  C   UNL     1      46.419   3.781   7.432  0.00  0.00    +0.000 A 
ATOM      5  C   UNL     1      46.504   2.431   7.763  0.00  0.00    +0.000 A 
ATOM      6  C   UNL     1      45.878   2.029   8.932  0.00  0.00    +0.000 A 
ATOM      7  N   UNL     1      45.187   2.858   9.754  0.00  0.00    +0.000 NA
ENDROOT
BRANCH   5   8
ATOM      8  C   UNL     1      47.229   1.509   6.859  0.00  0.00    +0.000 C 
ATOM      9  N   UNL     1      48.262   1.991   6.103  0.00  0.00    +0.000 N 
ATOM     10  O   UNL     1      46.925   0.322   6.787  0.00  0.00    +0.000 OA
ATOM     11  H   UNL     1      48.634   2.928   6.137  0.00  0.00    +0.000 HD
ATOM     12  H   UNL     1      48.747   1.319   5.519  0.00  0.00    +0.000 HD
ENDBRANCH   5   8
BRANCH   1  14
ATOM     13  C   UNL     1      42.324   5.349  11.701  0.00  0.00    +0.000 C 
ATOM     14  C   UNL     1      43.249   4.368  10.983  0.00  0.00    +0.000 C 
ENDBRANCH   1  14
BRANCH   1  15
ATOM     15  C   UNL     1      45.141   5.971  10.931  0.00  0.00    +0.000 C 
BRANCH  15  16
ATOM     16  C   UNL     1      45.860   5.298  12.092  0.00  0.00    +0.000 A 
ATOM     17  C   UNL     1      45.608   3.968  12.429  0.00  0.00    +0.000 A 
ATOM     18  C   UNL     1      46.293   3.399  13.499  0.00  0.00    +0.000 A 
ATOM     19  C   UNL     1      47.184   4.176  14.229  0.00  0.00    +0.000 A 
ATOM     20  C   UNL     1      47.344   5.500  13.864  0.00  0.00    +0.000 A 
ATOM     21  N   UNL     1      46.707   6.075  12.819  0.00  0.00    +0.000 NA
ENDBRANCH  15  16
ENDBRANCH   1  15
TORSDOF 4
ENDMDL
MODEL 5
REMARK VINA RESULT:    -5.652      4.938      7.278
REMARK INTER + INTRA:          -7.516
REMARK INTER:                  -7.025
REMARK INTRA:                  -0.492
REMARK UNBOUND:                -0.543
REMARK  Name = 
REMARK  5 active torsions:
REMARK  status: ('A' for Active; 'I' for Inactive)
REMARK    1  A    between atoms: C_1  and  C_2
REMARK    2  A    between atoms: C_2  and  N_3
REMARK    3  A    between atoms: N_3  and  C_4
REMARK    4  A    between atoms: C_4  and  C_5
REMARK    5  A    between atoms: C_14  and  C_15
REMARK                            x       y       z     vdW  Elec       q    Type
REMARK                         _______ _______ _______ _____ _____    ______ ____
ROOT
ATOM      1  N   UNL     1      47.861   5.517  14.634  0.00  0.00    +0.000 N 
ATOM      2  C   UNL     1      46.784   5.167  13.797  0.00  0.00    +0.000 A 
ATOM      3  C   UNL     1      46.650   3.832  13.410  0.00  0.00    +0.000 A 
ATOM      4  C   UNL     1      45.655   3.466  12.505  0.00  0.00    +0.000 A 
ATOM      5  C   UNL     1      44.802   4.440  11.990  0.00  0.00    +0.000 A 
ATOM      6  C   UNL     1      44.984   5.737  12.442  0.00  0.00    +0.000 A 
ATOM      7  N   UNL     1      45.937   6.112  13.332  0.00  0.00    +0.000 NA
ENDROOT
BRANCH   5   8
ATOM      8  C   UNL     1      43.778   4.051  10.994  0.00  0.00    +0.000 C 
ATOM      9  N   UNL     1      43.703   4.736   9.812  0.00  0.00    +0.000 N 
ATOM     10  O   UNL     1      43.007   3.121  11.208  0.00  0.00    +0.000 OA
ATOM     11  H   UNL     1      44.329   5.467   9.510  0.00  0.00    +0.000 HD
ATOM     12  H   UNL     1      43.006   4.417   9.149  0.00  0.00    +0.000 HD
ENDBRANCH   5   8
BRANCH   1  14
ATOM     13  C   UNL     1      49.290   7.203  13.449  0.00  0.00    +0.000 C 
ATOM     14  C   UNL     1      48.257   6.939  14.544  0.00  0.00    +0.000 C 
ENDBRANCH   1  14
BRANCH   1  15
ATOM     15  C   UNL     1      47.592   5.063  16.023  0.00  0.00    +0.000 C 
BRANCH  15  16
ATOM     16  C   UNL     1      48.709   4.206  16.600  0.00  0.00    +0.000 A 
ATOM     17  C   UNL     1      49.768   4.774  17.308  0.00  0.00    +0.000 A 
ATOM     18  C   UNL     1      50.766   3.945  17.817  0.00  0.00    +0.000 A 
ATOM     19  C   UNL     1      50.703   2.578  17.579  0.00  0.00    +0.000 A 
ATOM     20  C   UNL     1      49.647   2.096  16.827  0.00  0.00    +0.000 A 
ATOM     21  N   UNL     1      48.655   2.872  16.336  0.00  0.00    +0.000 NA
ENDBRANCH  15  16
ENDBRANCH   1  15
TORSDOF 4
ENDMDL
MODEL 6
REMARK VINA RESULT:    -5.539      3.876      7.318
REMARK INTER + INTRA:          -7.377
REMARK INTER:                  -6.825
REMARK INTRA:                  -0.552
REMARK UNBOUND:                -0.543
REMARK  Name = 
REMARK  5 active torsions:
REMARK  status: ('A' for Active; 'I' for Inactive)
REMARK    1  A    between atoms: C_1  and  C_2
REMARK    2  A    between atoms: C_2  and  N_3
REMARK    3  A    between atoms: N_3  and  C_4
REMARK    4  A    between atoms: C_4  and  C_5
REMARK    5  A    between atoms: C_14  and  C_15
REMARK                            x       y       z     vdW  Elec       q    Type
REMARK                         _______ _______ _______ _____ _____    ______ ____
ROOT
ATOM      1  N   UNL     1      48.330   6.795  12.923  0.00  0.00    +0.000 N 
ATOM      2  C   UNL     1      47.157   6.047  12.702  0.00  0.00    +0.000 A 
ATOM      3  C   UNL     1      47.008   4.831  13.373  0.00  0.00    +0.000 A 
ATOM      4  C   UNL     1      45.907   4.019  13.105  0.00  0.00    +0.000 A 
ATOM      5  C   UNL     1      44.964   4.428  12.165  0.00  0.00    +0.000 A 
ATOM      6  C   UNL     1      45.170   5.657  11.561  0.00  0.00    +0.000 A 
ATOM      7  N   UNL     1      46.227   6.469  11.817  0.00  0.00    +0.000 NA
ENDROOT
BRANCH   5   8
ATOM      8  C   UNL     1      43.822   3.538  11.853  0.00  0.00    +0.000 C 
ATOM      9  N   UNL     1      43.734   2.323  12.475  0.00  0.00    +0.000 N 
ATOM     10  O   UNL     1      42.953   3.878  11.057  0.00  0.00    +0.000 OA
ATOM     11  H   UNL     1      44.354   1.978  13.192  0.00  0.00    +0.000 HD
ATOM     12  H   UNL     1      42.922   1.759  12.252  0.00  0.00    +0.000 HD
ENDBRANCH   5   8
BRANCH   1  14
ATOM     13  C   UNL     1      50.138   7.644  11.407  0.00  0.00    +0.000 C 
ATOM     14  C   UNL     1      48.670   7.723  11.823  0.00  0.00    +0.000 C 
ENDBRANCH   1  14
BRANCH   1  15
ATOM     15  C   UNL     1      48.270   7.451  14.255  0.00  0.00    +0.000 C 
BRANCH  15  16
ATOM     16  C   UNL     1      49.400   7.027  15.182  0.00  0.00    +0.000 A 
ATOM     17  C   UNL     1      50.681   7.565  15.059  0.00  0.00    +0.000 A 
ATOM     18  C   UNL     1      51.680   7.144  15.934  0.00  0.00    +0.000 A 
ATOM     19  C   UNL     1      51.389   6.174  16.885  0.00  0.00    +0.000 A 
ATOM     20  C   UNL     1      50.108   5.654  16.913  0.00  0.00    +0.000 A 
ATOM     21  N   UNL     1      49.113   6.055  16.091  0.00  0.00    +0.000 NA
ENDBRANCH  15  16
ENDBRANCH   1  15
TORSDOF 4
ENDMDL
MODEL 7
REMARK VINA RESULT:    -5.324      4.690      6.089
REMARK INTER + INTRA:          -7.112
REMARK INTER:                  -6.613
REMARK INTRA:                  -0.499
REMARK UNBOUND:                -0.543
REMARK  Name = 
REMARK  5 active torsions:
REMARK  status: ('A' for Active; 'I' for Inactive)
REMARK    1  A    between atoms: C_1  and  C_2
REMARK    2  A    between atoms: C_2  and  N_3
REMARK    3  A    between atoms: N_3  and  C_4
REMARK    4  A    between atoms: C_4  and  C_5
REMARK    5  A    between atoms: C_14  and  C_15
REMARK                            x       y       z     vdW  Elec       q    Type
REMARK                         _______ _______ _______ _____ _____    ______ ____
ROOT
ATOM      1  N   UNL     1      46.904   5.761  14.019  0.00  0.00    +0.000 N 
ATOM      2  C   UNL     1      47.559   5.308  15.180  0.00  0.00    +0.000 A 
ATOM      3  C   UNL     1      46.921   4.351  15.973  0.00  0.00    +0.000 A 
ATOM      4  C   UNL     1      47.496   3.952  17.178  0.00  0.00    +0.000 A 
ATOM      5  C   UNL     1      48.704   4.515  17.584  0.00  0.00    +0.000 A 
ATOM      6  C   UNL     1      49.285   5.438  16.731  0.00  0.00    +0.000 A 
ATOM      7  N   UNL     1      48.750   5.831  15.548  0.00  0.00    +0.000 NA
ENDROOT
BRANCH   5   8
ATOM      8  C   UNL     1      49.284   4.119  18.888  0.00  0.00    +0.000 C 
ATOM      9  N   UNL     1      48.513   3.422  19.777  0.00  0.00    +0.000 N 
ATOM     10  O   UNL     1      50.444   4.397  19.176  0.00  0.00    +0.000 OA
ATOM     11  H   UNL     1      47.576   3.086  19.613  0.00  0.00    +0.000 HD
ATOM     12  H   UNL     1      48.960   3.148  20.645  0.00  0.00    +0.000 HD
ENDBRANCH   5   8
BRANCH   1  14
ATOM     13  C   UNL     1      48.178   7.056  12.290  0.00  0.00    +0.000 C 
ATOM     14  C   UNL     1      47.337   7.101  13.565  0.00  0.00    +0.000 C 
ENDBRANCH   1  14
BRANCH   1  15
ATOM     15  C   UNL     1      46.976   4.724  12.958  0.00  0.00    +0.000 C 
BRANCH  15  16
ATOM     16  C   UNL     1      45.624   4.410  12.334  0.00  0.00    +0.000 A 
ATOM     17  C   UNL     1      45.088   5.208  11.323  0.00  0.00    +0.000 A 
ATOM     18  C   UNL     1      43.846   4.877  10.784  0.00  0.00    +0.000 A 
ATOM     19  C   UNL     1      43.154   3.783  11.288  0.00  0.00    +0.000 A 
ATOM     20  C   UNL     1      43.729   3.070  12.324  0.00  0.00    +0.000 A 
ATOM     21  N   UNL     1      44.940   3.355  12.854  0.00  0.00    +0.000 NA
ENDBRANCH  15  16
ENDBRANCH   1  15
TORSDOF 4
ENDMDL
MODEL 8
REMARK VINA RESULT:    -5.275      3.296      6.810
REMARK INTER + INTRA:          -7.051
REMARK INTER:                  -6.879
REMARK INTRA:                  -0.172
REMARK UNBOUND:                -0.543
REMARK  Name = 
REMARK  5 active torsions:
REMARK  status: ('A' for Active; 'I' for Inactive)
REMARK    1  A    between atoms: C_1  and  C_2
REMARK    2  A    between atoms: C_2  and  N_3
REMARK    3  A    between atoms: N_3  and  C_4
REMARK    4  A    between atoms: C_4  and  C_5
REMARK    5  A    between atoms: C_14  and  C_15
REMARK                            x       y       z     vdW  Elec       q    Type
REMARK                         _______ _______ _______ _____ _____    ______ ____
ROOT
ATOM      1  N   UNL     1      47.875   7.334  12.598  0.00  0.00    +0.000 N 
ATOM      2  C   UNL     1      46.879   6.377  12.323  0.00  0.00    +0.000 A 
ATOM      3  C   UNL     1      46.503   5.498  13.340  0.00  0.00    +0.000 A 
ATOM      4  C   UNL     1      45.591   4.477  13.076  0.00  0.00    +0.000 A 
ATOM      5  C   UNL     1      45.065   4.341  11.794  0.00  0.00    +0.000 A 
ATOM      6  C   UNL     1      45.468   5.267  10.846  0.00  0.00    +0.000 A 
ATOM      7  N   UNL     1      46.343   6.276  11.086  0.00  0.00    +0.000 NA
ENDROOT
BRANCH   5   8
ATOM      8  C   UNL     1      44.133   3.225  11.509  0.00  0.00    +0.000 C 
ATOM      9  N   UNL     1      43.732   2.413  12.535  0.00  0.00    +0.000 N 
ATOM     10  O   UNL     1      43.709   3.027  10.375  0.00  0.00    +0.000 OA
ATOM     11  H   UNL     1      43.966   2.530  13.509  0.00  0.00    +0.000 HD
ATOM     12  H   UNL     1      43.073   1.680  12.299  0.00  0.00    +0.000 HD
ENDBRANCH   5   8
BRANCH   1  14
ATOM     13  C   UNL     1      50.110   7.685  11.516  0.00  0.00    +0.000 C 
ATOM     14  C   UNL     1      48.592   7.821  11.400  0.00  0.00    +0.000 C 
ENDBRANCH   1  14
BRANCH   1  15
ATOM     15  C   UNL     1      47.313   8.424  13.437  0.00  0.00    +0.000 C 
BRANCH  15  16
ATOM     16  C   UNL     1      46.535   9.457  12.634  0.00  0.00    +0.000 A 
ATOM     17  C   UNL     1      47.164  10.580  12.093  0.00  0.00    +0.000 A 
ATOM     18  C   UNL     1      46.407  11.495  11.365  0.00  0.00    +0.000 A 
ATOM     19  C   UNL     1      45.040  11.291  11.224  0.00  0.00    +0.000 A 
ATOM     20  C   UNL     1      44.482  10.180  11.830  0.00  0.00    +0.000 A 
ATOM     21  N   UNL     1      45.193   9.264  12.526  0.00  0.00    +0.000 NA
ENDBRANCH  15  16
ENDBRANCH   1  15
TORSDOF 4
ENDMDL
MODEL 9
REMARK VINA RESULT:    -4.617      3.188      4.692
REMARK INTER + INTRA:          -6.239
REMARK INTER:                  -5.699
REMARK INTRA:                  -0.540
REMARK UNBOUND:                -0.543
REMARK  Name = 
REMARK  5 active torsions:
REMARK  status: ('A' for Active; 'I' for Inactive)
REMARK    1  A    between atoms: C_1  and  C_2
REMARK    2  A    between atoms: C_2  and  N_3
REMARK    3  A    between atoms: N_3  and  C_4
REMARK    4  A    between atoms: C_4  and  C_5
REMARK    5  A    between atoms: C_14  and  C_15
REMARK                            x       y       z     vdW  Elec       q    Type
REMARK                         _______ _______ _______ _____ _____    ______ ____
ROOT
ATOM      1  N   UNL     1      47.049   5.159  14.040  0.00  0.00    +0.000 N 
ATOM      2  C   UNL     1      48.012   6.169  13.851  0.00  0.00    +0.000 A 
ATOM      3  C   UNL     1      48.452   6.433  12.552  0.00  0.00    +0.000 A 
ATOM      4  C   UNL     1      49.473   7.357  12.338  0.00  0.00    +0.000 A 
ATOM      5  C   UNL     1      50.049   8.009  13.426  0.00  0.00    +0.000 A 
ATOM      6  C   UNL     1      49.541   7.711  14.680  0.00  0.00    +0.000 A 
ATOM      7  N   UNL     1      48.539   6.825  14.908  0.00  0.00    +0.000 NA
ENDROOT
BRANCH   5   8
ATOM      8  C   UNL     1      51.165   8.954  13.194  0.00  0.00    +0.000 C 
ATOM      9  N   UNL     1      52.367   8.732  13.809  0.00  0.00    +0.000 N 
ATOM     10  O   UNL     1      51.031   9.923  12.454  0.00  0.00    +0.000 OA
ATOM     11  H   UNL     1      52.602   7.934  14.379  0.00  0.00    +0.000 HD
ATOM     12  H   UNL     1      53.110   9.389  13.599  0.00  0.00    +0.000 HD
ENDBRANCH   5   8
BRANCH   1  14
ATOM     13  C   UNL     1      47.764   3.221  15.462  0.00  0.00    +0.000 C 
ATOM     14  C   UNL     1      47.049   4.570  15.397  0.00  0.00    +0.000 C 
ENDBRANCH   1  14
BRANCH   1  15
ATOM     15  C   UNL     1      45.713   5.643  13.604  0.00  0.00    +0.000 C 
BRANCH  15  16
ATOM     16  C   UNL     1      45.047   4.728  12.587  0.00  0.00    +0.000 A 
ATOM     17  C   UNL     1      45.209   4.927  11.215  0.00  0.00    +0.000 A 
ATOM     18  C   UNL     1      44.578   4.061  10.326  0.00  0.00    +0.000 A 
ATOM     19  C   UNL     1      43.775   3.041  10.821  0.00  0.00    +0.000 A 
ATOM     20  C   UNL     1      43.624   2.939  12.191  0.00  0.00    +0.000 A 
ATOM     21  N   UNL     1      44.238   3.752  13.080  0.00  0.00    +0.000 NA
ENDBRANCH  15  16
ENDBRANCH   1  15
TORSDOF 4
ENDMDL
