MODEL 1
REMARK VINA RESULT:    -7.375      0.000      0.000
REMARK INTER + INTRA:         -10.813
REMARK INTER:                  -9.962
REMARK INTRA:                  -0.852
REMARK UNBOUND:                -0.852
REMARK  Name = 
REMARK  6 active torsions:
REMARK  status: ('A' for Active; 'I' for Inactive)
REMARK    1  A    between atoms: C_2  and  C_3
REMARK    2  A    between atoms: N_10  and  C_11
REMARK    3  A    between atoms: C_11  and  C_12
REMARK    4  A    between atoms: C_15  and  C_16
REMARK    5  A    between atoms: C_16  and  N_17
REMARK    6  A    between atoms: C_18  and  C_20
REMARK                            x       y       z     vdW  Elec       q    Type
REMARK                         _______ _______ _______ _____ _____    ______ ____
ROOT
ATOM      1  C   UNL     1      50.290   6.619  16.172  0.00  0.00    +0.000 A 
ATOM      2  C   UNL     1      48.968   6.211  15.950  0.00  0.00    +0.000 A 
ATOM      3  C   UNL     1      48.282   6.611  14.798  0.00  0.00    +0.000 A 
ATOM      4  C   UNL     1      48.909   7.409  13.832  0.00  0.00    +0.000 A 
ATOM      5  C   UNL     1      50.223   7.834  14.063  0.00  0.00    +0.000 A 
ATOM      6  C   UNL     1      50.909   7.436  15.216  0.00  0.00    +0.000 A 
ENDROOT
BRANCH   1   7
ATOM      7  C   UNL     1      51.020   6.206  17.422  0.00  0.00    +0.000 C 
BRANCH   7  15
ATOM      8  C   UNL     1      52.126   1.927  17.683  0.00  0.00    +0.000 A 
ATOM      9  C   UNL     1      53.050   0.911  17.867  0.00  0.00    +0.000 A 
ATOM     10  C   UNL     1      54.067   1.389  18.724  0.00  0.00    +0.000 A 
ATOM     11  C   UNL     1      53.709   2.672  19.071  0.00  0.00    +0.000 A 
ATOM     12  N   UNL     1      52.537   3.033  18.403  0.00  0.00    +0.000 N 
ATOM     13  C   UNL     1      51.904   4.281  18.568  0.00  0.00    +0.000 C 
ATOM     14  O   UNL     1      51.865   4.787  19.679  0.00  0.00    +0.000 OA
ATOM     15  N   UNL     1      51.499   4.842  17.380  0.00  0.00    +0.000 N 
ATOM     16  H   UNL     1      51.875   4.500  16.503  0.00  0.00    +0.000 HD
BRANCH   8  18
ATOM     17  N   UNL     1      49.882   1.750  16.416  0.00  0.00    +0.000 NA
ATOM     18  C   UNL     1      50.892   1.824  16.983  0.00  0.00    +0.000 C 
ENDBRANCH   8  18
ENDBRANCH   7  15
ENDBRANCH   1   7
BRANCH   4  19
ATOM     19  C   UNL     1      48.181   7.817  12.577  0.00  0.00    +0.000 C 
BRANCH  19  20
ATOM     20  N   UNL     1      47.431   6.723  12.011  0.00  0.00    +0.000 N 
ATOM     21  C   UNL     1      46.159   6.921  11.539  0.00  0.00    +0.000 C 
ATOM     22  O   UNL     1      45.561   7.982  11.700  0.00  0.00    +0.000 OA
ATOM     23  H   UNL     1      47.956   5.909  11.707  0.00  0.00    +0.000 HD
BRANCH  21  24
ATOM     24  C   UNL     1      45.532   5.804  10.824  0.00  0.00    +0.000 A 
ATOM     25  C   UNL     1      45.810   5.596   9.478  0.00  0.00    +0.000 A 
ATOM     26  S   UNL     1      45.075   4.197   8.836  0.00  0.00    +0.000 S 
ATOM     27  C   UNL     1      44.423   3.783  10.352  0.00  0.00    +0.000 A 
ATOM     28  N   UNL     1      43.774   2.602  10.539  0.00  0.00    +0.000 NA
ATOM     29  C   UNL     1      43.349   2.412  11.743  0.00  0.00    +0.000 A 
ATOM     30  N   UNL     1      43.472   3.316  12.766  0.00  0.00    +0.000 N 
ATOM     31  C   UNL     1      44.076   4.541  12.611  0.00  0.00    +0.000 A 
ATOM     32  O   UNL     1      44.084   5.370  13.515  0.00  0.00    +0.000 OA
ATOM     33  C   UNL     1      44.657   4.761  11.302  0.00  0.00    +0.000 A 
ATOM     34  H   UNL     1      43.065   3.132  13.671  0.00  0.00    +0.000 HD
ENDBRANCH  21  24
ENDBRANCH  19  20
ENDBRANCH   4  19
TORSDOF 6
ENDMDL
MODEL 2
REMARK VINA RESULT:    -7.249      1.856      2.581
REMARK INTER + INTRA:         -10.643
REMARK INTER:                  -9.658
REMARK INTRA:                  -0.985
REMARK UNBOUND:                -0.852
REMARK  Name = 
REMARK  6 active torsions:
REMARK  status: ('A' for Active; 'I' for Inactive)
REMARK    1  A    between atoms: C_2  and  C_3
REMARK    2  A    between atoms: N_10  and  C_11
REMARK    3  A    between atoms: C_11  and  C_12
REMARK    4  A    between atoms: C_15  and  C_16
REMARK    5  A    between atoms: C_16  and  N_17
REMARK    6  A    between atoms: C_18  and  C_20
REMARK                            x       y       z     vdW  Elec       q    Type
REMARK                         _______ _______ _______ _____ _____    ______ ____
ROOT
ATOM      1  C   UNL     1      49.513   4.923  17.500  0.00  0.00    +0.000 A 
ATOM      2  C   UNL     1      50.345   5.971  17.085  0.00  0.00    +0.000 A 
ATOM      3  C   UNL     1      49.968   6.804  16.026  0.00  0.00    +0.000 A 
ATOM      4  C   UNL     1      48.742   6.622  15.374  0.00  0.00    +0.000 A 
ATOM      5  C   UNL     1      47.919   5.563  15.775  0.00  0.00    +0.000 A 
ATOM      6  C   UNL     1      48.296   4.727  16.832  0.00  0.00    +0.000 A 
ENDROOT
BRANCH   1   7
ATOM      7  C   UNL     1      49.930   4.013  18.625  0.00  0.00    +0.000 C 
BRANCH   7  15
ATOM      8  C   UNL     1      54.035   2.635  17.701  0.00  0.00    +0.000 A 
ATOM      9  C   UNL     1      55.038   1.679  17.719  0.00  0.00    +0.000 A 
ATOM     10  C   UNL     1      54.432   0.403  17.689  0.00  0.00    +0.000 A 
ATOM     11  C   UNL     1      53.075   0.620  17.610  0.00  0.00    +0.000 A 
ATOM     12  N   UNL     1      52.812   1.990  17.660  0.00  0.00    +0.000 N 
ATOM     13  C   UNL     1      51.515   2.533  17.576  0.00  0.00    +0.000 C 
ATOM     14  O   UNL     1      50.706   2.031  16.811  0.00  0.00    +0.000 OA
ATOM     15  N   UNL     1      51.287   3.530  18.496  0.00  0.00    +0.000 N 
ATOM     16  H   UNL     1      51.904   3.636  19.294  0.00  0.00    +0.000 HD
BRANCH   8  18
ATOM     17  N   UNL     1      54.365   5.190  17.517  0.00  0.00    +0.000 NA
ATOM     18  C   UNL     1      54.216   4.043  17.606  0.00  0.00    +0.000 C 
ENDBRANCH   8  18
ENDBRANCH   7  15
ENDBRANCH   1   7
BRANCH   4  19
ATOM     19  C   UNL     1      48.321   7.538  14.252  0.00  0.00    +0.000 C 
BRANCH  19  20
ATOM     20  N   UNL     1      47.002   7.219  13.765  0.00  0.00    +0.000 N 
ATOM     21  C   UNL     1      46.829   6.720  12.500  0.00  0.00    +0.000 C 
ATOM     22  O   UNL     1      47.753   6.654  11.692  0.00  0.00    +0.000 OA
ATOM     23  H   UNL     1      46.269   7.093  14.457  0.00  0.00    +0.000 HD
BRANCH  21  24
ATOM     24  C   UNL     1      45.482   6.260  12.143  0.00  0.00    +0.000 A 
ATOM     25  C   UNL     1      44.565   7.151  11.597  0.00  0.00    +0.000 A 
ATOM     26  S   UNL     1      43.088   6.425  11.152  0.00  0.00    +0.000 S 
ATOM     27  C   UNL     1      43.650   4.884  11.605  0.00  0.00    +0.000 A 
ATOM     28  N   UNL     1      42.913   3.768  11.361  0.00  0.00    +0.000 NA
ATOM     29  C   UNL     1      43.472   2.667  11.740  0.00  0.00    +0.000 A 
ATOM     30  N   UNL     1      44.680   2.586  12.384  0.00  0.00    +0.000 N 
ATOM     31  C   UNL     1      45.435   3.691  12.695  0.00  0.00    +0.000 A 
ATOM     32  O   UNL     1      46.462   3.598  13.359  0.00  0.00    +0.000 OA
ATOM     33  C   UNL     1      44.897   4.943  12.202  0.00  0.00    +0.000 A 
ATOM     34  H   UNL     1      45.034   1.698  12.708  0.00  0.00    +0.000 HD
ENDBRANCH  21  24
ENDBRANCH  19  20
ENDBRANCH   4  19
TORSDOF 6
ENDMDL
MODEL 3
REMARK VINA RESULT:    -6.990      5.512      6.599
REMARK INTER + INTRA:         -10.293
REMARK INTER:                  -9.294
REMARK INTRA:                  -1.000
REMARK UNBOUND:                -0.852
REMARK  Name = 
REMARK  6 active torsions:
REMARK  status: ('A' for Active; 'I' for Inactive)
REMARK    1  A    between atoms: C_2  and  C_3
REMARK    2  A    between atoms: N_10  and  C_11
REMARK    3  A    between atoms: C_11  and  C_12
REMARK    4  A    between atoms: C_15  and  C_16
REMARK    5  A    between atoms: C_16  and  N_17
REMARK    6  A    between atoms: C_18  and  C_20
REMARK                            x       y       z     vdW  Elec       q    Type
REMARK                         _______ _______ _______ _____ _____    ______ ____
ROOT
ATOM      1  C   UNL     1      50.193   9.005  11.544  0.00  0.00    +0.000 A 
ATOM      2  C   UNL     1      49.683   7.709  11.688  0.00  0.00    +0.000 A 
ATOM      3  C   UNL     1      48.362   7.504  12.102  0.00  0.00    +0.000 A 
ATOM      4  C   UNL     1      47.516   8.591  12.360  0.00  0.00    +0.000 A 
ATOM      5  C   UNL     1      48.032   9.886  12.236  0.00  0.00    +0.000 A 
ATOM      6  C   UNL     1      49.353  10.092  11.824  0.00  0.00    +0.000 A 
ENDROOT
BRANCH   1   7
ATOM      7  C   UNL     1      51.621   9.224  11.119  0.00  0.00    +0.000 C 
BRANCH   7  15
ATOM      8  C   UNL     1      53.866   5.992   9.090  0.00  0.00    +0.000 A 
ATOM      9  C   UNL     1      54.001   5.029   8.102  0.00  0.00    +0.000 A 
ATOM     10  C   UNL     1      53.283   5.462   6.964  0.00  0.00    +0.000 A 
ATOM     11  C   UNL     1      52.765   6.699   7.279  0.00  0.00    +0.000 A 
ATOM     12  N   UNL     1      53.080   7.019   8.601  0.00  0.00    +0.000 N 
ATOM     13  C   UNL     1      52.710   8.233   9.213  0.00  0.00    +0.000 C 
ATOM     14  O   UNL     1      52.755   9.266   8.563  0.00  0.00    +0.000 OA
ATOM     15  N   UNL     1      52.212   8.067  10.484  0.00  0.00    +0.000 N 
ATOM     16  H   UNL     1      51.910   7.150  10.795  0.00  0.00    +0.000 HD
BRANCH   8  18
ATOM     17  N   UNL     1      55.062   6.018  11.379  0.00  0.00    +0.000 NA
ATOM     18  C   UNL     1      54.524   6.000  10.351  0.00  0.00    +0.000 C 
ENDBRANCH   8  18
ENDBRANCH   7  15
ENDBRANCH   1   7
BRANCH   4  19
ATOM     19  C   UNL     1      46.084   8.372  12.778  0.00  0.00    +0.000 C 
BRANCH  19  20
ATOM     20  N   UNL     1      45.679   6.999  12.610  0.00  0.00    +0.000 N 
ATOM     21  C   UNL     1      44.632   6.678  11.784  0.00  0.00    +0.000 C 
ATOM     22  O   UNL     1      43.918   7.537  11.272  0.00  0.00    +0.000 OA
ATOM     23  H   UNL     1      46.350   6.282  12.868  0.00  0.00    +0.000 HD
BRANCH  21  24
ATOM     24  C   UNL     1      44.394   5.253  11.533  0.00  0.00    +0.000 A 
ATOM     25  C   UNL     1      43.680   4.494  12.452  0.00  0.00    +0.000 A 
ATOM     26  S   UNL     1      43.414   2.885  11.953  0.00  0.00    +0.000 S 
ATOM     27  C   UNL     1      44.179   3.169  10.459  0.00  0.00    +0.000 A 
ATOM     28  N   UNL     1      44.186   2.223   9.482  0.00  0.00    +0.000 NA
ATOM     29  C   UNL     1      44.785   2.583   8.397  0.00  0.00    +0.000 A 
ATOM     30  N   UNL     1      45.420   3.784   8.217  0.00  0.00    +0.000 N 
ATOM     31  C   UNL     1      45.481   4.750   9.193  0.00  0.00    +0.000 A 
ATOM     32  O   UNL     1      46.140   5.773   9.041  0.00  0.00    +0.000 OA
ATOM     33  C   UNL     1      44.738   4.433  10.396  0.00  0.00    +0.000 A 
ATOM     34  H   UNL     1      45.922   3.981   7.364  0.00  0.00    +0.000 HD
ENDBRANCH  21  24
ENDBRANCH  19  20
ENDBRANCH   4  19
TORSDOF 6
ENDMDL
MODEL 4
REMARK VINA RESULT:    -6.700      1.705      2.175
REMARK INTER + INTRA:          -9.901
REMARK INTER:                  -8.948
REMARK INTRA:                  -0.953
REMARK UNBOUND:                -0.852
REMARK  Name = 
REMARK  6 active torsions:
REMARK  status: ('A' for Active; 'I' for Inactive)
REMARK    1  A    between atoms: C_2  and  C_3
REMARK    2  A    between atoms: N_10  and  C_11
REMARK    3  A    between atoms: C_11  and  C_12
REMARK    4  A    between atoms: C_15  and  C_16
REMARK    5  A    between atoms: C_16  and  N_17
REMARK    6  A    between atoms: C_18  and  C_20
REMARK                            x       y       z     vdW  Elec       q    Type
REMARK                         _______ _______ _______ _____ _____    ______ ____
ROOT
ATOM      1  C   UNL     1      51.129   6.580  17.284  0.00  0.00    +0.000 A 
ATOM      2  C   UNL     1      49.818   6.847  17.698  0.00  0.00    +0.000 A 
ATOM      3  C   UNL     1      48.917   7.493  16.845  0.00  0.00    +0.000 A 
ATOM      4  C   UNL     1      49.301   7.867  15.550  0.00  0.00    +0.000 A 
ATOM      5  C   UNL     1      50.617   7.619  15.142  0.00  0.00    +0.000 A 
ATOM      6  C   UNL     1      51.519   6.974  15.996  0.00  0.00    +0.000 A 
ENDROOT
BRANCH   1   7
ATOM      7  C   UNL     1      52.104   5.904  18.211  0.00  0.00    +0.000 C 
BRANCH   7  15
ATOM      8  C   UNL     1      52.405   1.518  17.682  0.00  0.00    +0.000 A 
ATOM      9  C   UNL     1      53.135   0.344  17.589  0.00  0.00    +0.000 A 
ATOM     10  C   UNL     1      54.307   0.491  18.365  0.00  0.00    +0.000 A 
ATOM     11  C   UNL     1      54.235   1.738  18.944  0.00  0.00    +0.000 A 
ATOM     12  N   UNL     1      53.090   2.400  18.498  0.00  0.00    +0.000 N 
ATOM     13  C   UNL     1      52.724   3.690  18.930  0.00  0.00    +0.000 C 
ATOM     14  O   UNL     1      52.896   3.998  20.099  0.00  0.00    +0.000 OA
ATOM     15  N   UNL     1      52.310   4.506  17.903  0.00  0.00    +0.000 N 
ATOM     16  H   UNL     1      52.522   4.260  16.943  0.00  0.00    +0.000 HD
BRANCH   8  18
ATOM     17  N   UNL     1      50.048   1.922  16.705  0.00  0.00    +0.000 NA
ATOM     18  C   UNL     1      51.108   1.747  17.145  0.00  0.00    +0.000 C 
ENDBRANCH   8  18
ENDBRANCH   7  15
ENDBRANCH   1   7
BRANCH   4  19
ATOM     19  C   UNL     1      48.323   8.537  14.618  0.00  0.00    +0.000 C 
BRANCH  19  20
ATOM     20  N   UNL     1      47.306   7.624  14.160  0.00  0.00    +0.000 N 
ATOM     21  C   UNL     1      47.493   6.893  13.014  0.00  0.00    +0.000 C 
ATOM     22  O   UNL     1      48.451   7.081  12.268  0.00  0.00    +0.000 OA
ATOM     23  H   UNL     1      46.612   7.324  14.837  0.00  0.00    +0.000 HD
BRANCH  21  24
ATOM     24  C   UNL     1      46.492   5.865  12.711  0.00  0.00    +0.000 A 
ATOM     25  C   UNL     1      46.727   4.540  13.061  0.00  0.00    +0.000 A 
ATOM     26  S   UNL     1      45.418   3.500  12.724  0.00  0.00    +0.000 S 
ATOM     27  C   UNL     1      44.466   4.797  12.167  0.00  0.00    +0.000 A 
ATOM     28  N   UNL     1      43.158   4.618  11.839  0.00  0.00    +0.000 NA
ATOM     29  C   UNL     1      42.555   5.691  11.452  0.00  0.00    +0.000 A 
ATOM     30  N   UNL     1      43.152   6.918  11.317  0.00  0.00    +0.000 N 
ATOM     31  C   UNL     1      44.481   7.134  11.590  0.00  0.00    +0.000 A 
ATOM     32  O   UNL     1      45.013   8.216  11.365  0.00  0.00    +0.000 OA
ATOM     33  C   UNL     1      45.179   5.981  12.122  0.00  0.00    +0.000 A 
ATOM     34  H   UNL     1      42.638   7.706  10.952  0.00  0.00    +0.000 HD
ENDBRANCH  21  24
ENDBRANCH  19  20
ENDBRANCH   4  19
TORSDOF 6
ENDMDL
MODEL 5
REMARK VINA RESULT:    -6.588      1.794      2.115
REMARK INTER + INTRA:          -9.750
REMARK INTER:                  -8.419
REMARK INTRA:                  -1.331
REMARK UNBOUND:                -0.852
REMARK  Name = 
REMARK  6 active torsions:
REMARK  status: ('A' for Active; 'I' for Inactive)
REMARK    1  A    between atoms: C_2  and  C_3
REMARK    2  A    between atoms: N_10  and  C_11
REMARK    3  A    between atoms: C_11  and  C_12
REMARK    4  A    between atoms: C_15  and  C_16
REMARK    5  A    between atoms: C_16  and  N_17
REMARK    6  A    between atoms: C_18  and  C_20
REMARK                            x       y       z     vdW  Elec       q    Type
REMARK                         _______ _______ _______ _____ _____    ______ ____
ROOT
ATOM      1  C   UNL     1      51.216   7.093  16.955  0.00  0.00    +0.000 A 
ATOM      2  C   UNL     1      50.060   7.552  17.598  0.00  0.00    +0.000 A 
ATOM      3  C   UNL     1      49.097   8.288  16.897  0.00  0.00    +0.000 A 
ATOM      4  C   UNL     1      49.260   8.561  15.533  0.00  0.00    +0.000 A 
ATOM      5  C   UNL     1      50.425   8.121  14.894  0.00  0.00    +0.000 A 
ATOM      6  C   UNL     1      51.389   7.387  15.595  0.00  0.00    +0.000 A 
ENDROOT
BRANCH   1   7
ATOM      7  C   UNL     1      52.262   6.321  17.716  0.00  0.00    +0.000 C 
BRANCH   7  15
ATOM      8  C   UNL     1      51.737   1.929  17.525  0.00  0.00    +0.000 A 
ATOM      9  C   UNL     1      52.238   0.640  17.443  0.00  0.00    +0.000 A 
ATOM     10  C   UNL     1      53.511   0.620  18.056  0.00  0.00    +0.000 A 
ATOM     11  C   UNL     1      53.731   1.893  18.533  0.00  0.00    +0.000 A 
ATOM     12  N   UNL     1      52.665   2.722  18.175  0.00  0.00    +0.000 N 
ATOM     13  C   UNL     1      52.586   4.081  18.538  0.00  0.00    +0.000 C 
ATOM     14  O   UNL     1      52.963   4.424  19.648  0.00  0.00    +0.000 OA
ATOM     15  N   UNL     1      52.184   4.893  17.504  0.00  0.00    +0.000 N 
ATOM     16  H   UNL     1      52.220   4.554  16.549  0.00  0.00    +0.000 HD
BRANCH   8  18
ATOM     17  N   UNL     1      49.379   2.693  16.800  0.00  0.00    +0.000 NA
ATOM     18  C   UNL     1      50.438   2.354  17.131  0.00  0.00    +0.000 C 
ENDBRANCH   8  18
ENDBRANCH   7  15
ENDBRANCH   1   7
BRANCH   4  19
ATOM     19  C   UNL     1      48.210   9.328  14.769  0.00  0.00    +0.000 C 
BRANCH  19  20
ATOM     20  N   UNL     1      47.150   8.470  14.304  0.00  0.00    +0.000 N 
ATOM     21  C   UNL     1      47.031   8.169  12.971  0.00  0.00    +0.000 C 
ATOM     22  O   UNL     1      47.722   8.715  12.115  0.00  0.00    +0.000 OA
ATOM     23  H   UNL     1      46.696   7.877  14.993  0.00  0.00    +0.000 HD
BRANCH  21  24
ATOM     24  C   UNL     1      46.037   7.155  12.603  0.00  0.00    +0.000 A 
ATOM     25  C   UNL     1      44.949   7.504  11.811  0.00  0.00    +0.000 A 
ATOM     26  S   UNL     1      43.951   6.183  11.400  0.00  0.00    +0.000 S 
ATOM     27  C   UNL     1      44.979   5.091  12.204  0.00  0.00    +0.000 A 
ATOM     28  N   UNL     1      44.772   3.748  12.132  0.00  0.00    +0.000 NA
ATOM     29  C   UNL     1      45.641   3.041  12.773  0.00  0.00    +0.000 A 
ATOM     30  N   UNL     1      46.668   3.555  13.520  0.00  0.00    +0.000 N 
ATOM     31  C   UNL     1      46.886   4.904  13.662  0.00  0.00    +0.000 A 
ATOM     32  O   UNL     1      47.751   5.337  14.415  0.00  0.00    +0.000 OA
ATOM     33  C   UNL     1      45.997   5.739  12.880  0.00  0.00    +0.000 A 
ATOM     34  H   UNL     1      47.278   2.947  14.047  0.00  0.00    +0.000 HD
ENDBRANCH  21  24
ENDBRANCH  19  20
ENDBRANCH   4  19
TORSDOF 6
ENDMDL
MODEL 6
REMARK VINA RESULT:    -6.427      5.331      8.731
REMARK INTER + INTRA:          -9.533
REMARK INTER:                  -8.539
REMARK INTRA:                  -0.994
REMARK UNBOUND:                -0.852
REMARK  Name = 
REMARK  6 active torsions:
REMARK  status: ('A' for Active; 'I' for Inactive)
REMARK    1  A    between atoms: C_2  and  C_3
REMARK    2  A    between atoms: N_10  and  C_11
REMARK    3  A    between atoms: C_11  and  C_12
REMARK    4  A    between atoms: C_15  and  C_16
REMARK    5  A    between atoms: C_16  and  N_17
REMARK    6  A    between atoms: C_18  and  C_20
REMARK                            x       y       z     vdW  Elec       q    Type
REMARK                         _______ _______ _______ _____ _____    ______ ____
ROOT
ATOM      1  C   UNL     1      47.668   8.426  12.791  0.00  0.00    +0.000 A 
ATOM      2  C   UNL     1      48.593   7.398  13.011  0.00  0.00    +0.000 A 
ATOM      3  C   UNL     1      49.916   7.523  12.572  0.00  0.00    +0.000 A 
ATOM      4  C   UNL     1      50.348   8.687  11.924  0.00  0.00    +0.000 A 
ATOM      5  C   UNL     1      49.419   9.706  11.686  0.00  0.00    +0.000 A 
ATOM      6  C   UNL     1      48.095   9.582  12.122  0.00  0.00    +0.000 A 
ENDROOT
BRANCH   1   7
ATOM      7  C   UNL     1      46.239   8.281  13.244  0.00  0.00    +0.000 C 
BRANCH   7  15
ATOM      8  C   UNL     1      45.096   4.050  12.616  0.00  0.00    +0.000 A 
ATOM      9  C   UNL     1      44.160   3.059  12.368  0.00  0.00    +0.000 A 
ATOM     10  C   UNL     1      43.117   3.620  11.597  0.00  0.00    +0.000 A 
ATOM     11  C   UNL     1      43.471   4.930  11.360  0.00  0.00    +0.000 A 
ATOM     12  N   UNL     1      44.668   5.221  12.019  0.00  0.00    +0.000 N 
ATOM     13  C   UNL     1      45.303   6.477  11.951  0.00  0.00    +0.000 C 
ATOM     14  O   UNL     1      45.308   7.086  10.893  0.00  0.00    +0.000 OA
ATOM     15  N   UNL     1      45.752   6.921  13.173  0.00  0.00    +0.000 N 
ATOM     16  H   UNL     1      45.405   6.498  14.026  0.00  0.00    +0.000 HD
BRANCH   8  18
ATOM     17  N   UNL     1      47.377   3.724  13.784  0.00  0.00    +0.000 NA
ATOM     18  C   UNL     1      46.353   3.877  13.260  0.00  0.00    +0.000 C 
ENDBRANCH   8  18
ENDBRANCH   7  15
ENDBRANCH   1   7
BRANCH   4  19
ATOM     19  C   UNL     1      51.780   8.835  11.477  0.00  0.00    +0.000 C 
BRANCH  19  20
ATOM     20  N   UNL     1      51.964   8.406  10.113  0.00  0.00    +0.000 N 
ATOM     21  C   UNL     1      53.079   8.785   9.408  0.00  0.00    +0.000 C 
ATOM     22  O   UNL     1      53.883   9.601   9.849  0.00  0.00    +0.000 OA
ATOM     23  H   UNL     1      51.423   7.606   9.801  0.00  0.00    +0.000 HD
BRANCH  21  24
ATOM     24  C   UNL     1      53.275   8.168   8.092  0.00  0.00    +0.000 A 
ATOM     25  C   UNL     1      53.303   8.960   6.950  0.00  0.00    +0.000 A 
ATOM     26  S   UNL     1      53.640   8.090   5.522  0.00  0.00    +0.000 S 
ATOM     27  C   UNL     1      53.833   6.640   6.391  0.00  0.00    +0.000 A 
ATOM     28  N   UNL     1      54.264   5.505   5.777  0.00  0.00    +0.000 NA
ATOM     29  C   UNL     1      54.384   4.487   6.563  0.00  0.00    +0.000 A 
ATOM     30  N   UNL     1      54.066   4.488   7.896  0.00  0.00    +0.000 N 
ATOM     31  C   UNL     1      53.581   5.597   8.547  0.00  0.00    +0.000 A 
ATOM     32  O   UNL     1      53.211   5.543   9.715  0.00  0.00    +0.000 OA
ATOM     33  C   UNL     1      53.522   6.793   7.730  0.00  0.00    +0.000 A 
ATOM     34  H   UNL     1      54.125   3.642   8.442  0.00  0.00    +0.000 HD
ENDBRANCH  21  24
ENDBRANCH  19  20
ENDBRANCH   4  19
TORSDOF 6
ENDMDL
MODEL 7
REMARK VINA RESULT:    -6.304      2.340      3.211
REMARK INTER + INTRA:          -9.367
REMARK INTER:                  -8.474
REMARK INTRA:                  -0.893
REMARK UNBOUND:                -0.852
REMARK  Name = 
REMARK  6 active torsions:
REMARK  status: ('A' for Active; 'I' for Inactive)
REMARK    1  A    between atoms: C_2  and  C_3
REMARK    2  A    between atoms: N_10  and  C_11
REMARK    3  A    between atoms: C_11  and  C_12
REMARK    4  A    between atoms: C_15  and  C_16
REMARK    5  A    between atoms: C_16  and  N_17
REMARK    6  A    between atoms: C_18  and  C_20
REMARK                            x       y       z     vdW  Elec       q    Type
REMARK                         _______ _______ _______ _____ _____    ______ ____
ROOT
ATOM      1  C   UNL     1      50.316   8.422  14.070  0.00  0.00    +0.000 A 
ATOM      2  C   UNL     1      49.546   7.284  14.342  0.00  0.00    +0.000 A 
ATOM      3  C   UNL     1      48.173   7.272  14.076  0.00  0.00    +0.000 A 
ATOM      4  C   UNL     1      47.543   8.389  13.510  0.00  0.00    +0.000 A 
ATOM      5  C   UNL     1      48.309   9.534  13.257  0.00  0.00    +0.000 A 
ATOM      6  C   UNL     1      49.682   9.548  13.525  0.00  0.00    +0.000 A 
ENDROOT
BRANCH   1   7
ATOM      7  C   UNL     1      51.790   8.442  14.378  0.00  0.00    +0.000 C 
BRANCH   7  15
ATOM      8  C   UNL     1      52.851   5.362  17.377  0.00  0.00    +0.000 A 
ATOM      9  C   UNL     1      53.770   4.564  18.039  0.00  0.00    +0.000 A 
ATOM     10  C   UNL     1      55.005   5.250  18.074  0.00  0.00    +0.000 A 
ATOM     11  C   UNL     1      54.790   6.467  17.466  0.00  0.00    +0.000 A 
ATOM     12  N   UNL     1      53.478   6.533  16.993  0.00  0.00    +0.000 N 
ATOM     13  C   UNL     1      52.945   7.664  16.344  0.00  0.00    +0.000 C 
ATOM     14  O   UNL     1      53.250   8.778  16.740  0.00  0.00    +0.000 OA
ATOM     15  N   UNL     1      52.212   7.347  15.224  0.00  0.00    +0.000 N 
ATOM     16  H   UNL     1      52.301   6.430  14.801  0.00  0.00    +0.000 HD
BRANCH   8  18
ATOM     17  N   UNL     1      50.329   4.884  17.090  0.00  0.00    +0.000 NA
ATOM     18  C   UNL     1      51.462   5.094  17.224  0.00  0.00    +0.000 C 
ENDBRANCH   8  18
ENDBRANCH   7  15
ENDBRANCH   1   7
BRANCH   4  19
ATOM     19  C   UNL     1      46.069   8.367  13.195  0.00  0.00    +0.000 C 
BRANCH  19  20
ATOM     20  N   UNL     1      45.584   7.026  12.986  0.00  0.00    +0.000 N 
ATOM     21  C   UNL     1      44.838   6.720  11.876  0.00  0.00    +0.000 C 
ATOM     22  O   UNL     1      44.439   7.585  11.100  0.00  0.00    +0.000 OA
ATOM     23  H   UNL     1      46.044   6.280  13.500  0.00  0.00    +0.000 HD
BRANCH  21  24
ATOM     24  C   UNL     1      44.532   5.304  11.649  0.00  0.00    +0.000 A 
ATOM     25  C   UNL     1      43.835   4.580  12.610  0.00  0.00    +0.000 A 
ATOM     26  S   UNL     1      43.480   2.980  12.138  0.00  0.00    +0.000 S 
ATOM     27  C   UNL     1      44.179   3.224  10.606  0.00  0.00    +0.000 A 
ATOM     28  N   UNL     1      44.099   2.272   9.638  0.00  0.00    +0.000 NA
ATOM     29  C   UNL     1      44.656   2.601   8.520  0.00  0.00    +0.000 A 
ATOM     30  N   UNL     1      45.328   3.774   8.299  0.00  0.00    +0.000 N 
ATOM     31  C   UNL     1      45.477   4.743   9.262  0.00  0.00    +0.000 A 
ATOM     32  O   UNL     1      46.168   5.737   9.068  0.00  0.00    +0.000 OA
ATOM     33  C   UNL     1      44.784   4.463  10.504  0.00  0.00    +0.000 A 
ATOM     34  H   UNL     1      45.794   3.945   7.420  0.00  0.00    +0.000 HD
ENDBRANCH  21  24
ENDBRANCH  19  20
ENDBRANCH   4  19
TORSDOF 6
ENDMDL
MODEL 8
REMARK VINA RESULT:    -6.198      5.538      7.517
REMARK INTER + INTRA:          -9.223
REMARK INTER:                  -8.318
REMARK INTRA:                  -0.905
REMARK UNBOUND:                -0.852
REMARK  Name = 
REMARK  6 active torsions:
REMARK  status: ('A' for Active; 'I' for Inactive)
REMARK    1  A    between atoms: C_2  and  C_3
REMARK    2  A    between atoms: N_10  and  C_11
REMARK    3  A    between atoms: C_11  and  C_12
REMARK    4  A    between atoms: C_15  and  C_16
REMARK    5  A    between atoms: C_16  and  N_17
REMARK    6  A    between atoms: C_18  and  C_20
REMARK                            x       y       z     vdW  Elec       q    Type
REMARK                         _______ _______ _______ _____ _____    ______ ____
ROOT
ATOM      1  C   UNL     1      51.226   8.409  11.637  0.00  0.00    +0.000 A 
ATOM      2  C   UNL     1      50.295   7.555  11.033  0.00  0.00    +0.000 A 
ATOM      3  C   UNL     1      48.960   7.544  11.453  0.00  0.00    +0.000 A 
ATOM      4  C   UNL     1      48.523   8.402  12.471  0.00  0.00    +0.000 A 
ATOM      5  C   UNL     1      49.458   9.240  13.089  0.00  0.00    +0.000 A 
ATOM      6  C   UNL     1      50.793   9.251  12.671  0.00  0.00    +0.000 A 
ENDROOT
BRANCH   1   7
ATOM      7  C   UNL     1      52.667   8.404  11.199  0.00  0.00    +0.000 C 
BRANCH   7  15
ATOM      8  C   UNL     1      53.554   8.489   6.862  0.00  0.00    +0.000 A 
ATOM      9  C   UNL     1      53.910   9.152   5.699  0.00  0.00    +0.000 A 
ATOM     10  C   UNL     1      54.730  10.248   6.049  0.00  0.00    +0.000 A 
ATOM     11  C   UNL     1      54.885  10.196   7.417  0.00  0.00    +0.000 A 
ATOM     12  N   UNL     1      54.130   9.142   7.937  0.00  0.00    +0.000 N 
ATOM     13  C   UNL     1      54.099   8.814   9.306  0.00  0.00    +0.000 C 
ATOM     14  O   UNL     1      55.128   8.888   9.960  0.00  0.00    +0.000 OA
ATOM     15  N   UNL     1      52.830   8.555   9.771  0.00  0.00    +0.000 N 
ATOM     16  H   UNL     1      52.023   8.845   9.230  0.00  0.00    +0.000 HD
BRANCH   8  18
ATOM     17  N   UNL     1      52.243   6.268   7.004  0.00  0.00    +0.000 NA
ATOM     18  C   UNL     1      52.829   7.268   6.946  0.00  0.00    +0.000 C 
ENDBRANCH   8  18
ENDBRANCH   7  15
ENDBRANCH   1   7
BRANCH   4  19
ATOM     19  C   UNL     1      47.079   8.412  12.904  0.00  0.00    +0.000 C 
BRANCH  19  20
ATOM     20  N   UNL     1      46.484   7.102  12.821  0.00  0.00    +0.000 N 
ATOM     21  C   UNL     1      45.381   6.887  12.033  0.00  0.00    +0.000 C 
ATOM     22  O   UNL     1      44.781   7.808  11.486  0.00  0.00    +0.000 OA
ATOM     23  H   UNL     1      47.055   6.313  13.107  0.00  0.00    +0.000 HD
BRANCH  21  24
ATOM     24  C   UNL     1      44.943   5.497  11.866  0.00  0.00    +0.000 A 
ATOM     25  C   UNL     1      44.332   4.829  12.922  0.00  0.00    +0.000 A 
ATOM     26  S   UNL     1      43.798   3.260  12.521  0.00  0.00    +0.000 S 
ATOM     27  C   UNL     1      44.298   3.448  10.905  0.00  0.00    +0.000 A 
ATOM     28  N   UNL     1      44.016   2.503   9.968  0.00  0.00    +0.000 NA
ATOM     29  C   UNL     1      44.439   2.787   8.782  0.00  0.00    +0.000 A 
ATOM     30  N   UNL     1      45.160   3.907   8.457  0.00  0.00    +0.000 N 
ATOM     31  C   UNL     1      45.510   4.863   9.380  0.00  0.00    +0.000 A 
ATOM     32  O   UNL     1      46.240   5.802   9.082  0.00  0.00    +0.000 OA
ATOM     33  C   UNL     1      44.974   4.638  10.707  0.00  0.00    +0.000 A 
ATOM     34  H   UNL     1      45.513   4.040   7.521  0.00  0.00    +0.000 HD
ENDBRANCH  21  24
ENDBRANCH  19  20
ENDBRANCH   4  19
TORSDOF 6
ENDMDL
MODEL 9
REMARK VINA RESULT:    -5.906      5.679      8.905
REMARK INTER + INTRA:          -8.829
REMARK INTER:                  -7.746
REMARK INTRA:                  -1.083
REMARK UNBOUND:                -0.852
REMARK  Name = 
REMARK  6 active torsions:
REMARK  status: ('A' for Active; 'I' for Inactive)
REMARK    1  A    between atoms: C_2  and  C_3
REMARK    2  A    between atoms: N_10  and  C_11
REMARK    3  A    between atoms: C_11  and  C_12
REMARK    4  A    between atoms: C_15  and  C_16
REMARK    5  A    between atoms: C_16  and  N_17
REMARK    6  A    between atoms: C_18  and  C_20
REMARK                            x       y       z     vdW  Elec       q    Type
REMARK                         _______ _______ _______ _____ _____    ______ ____
ROOT
ATOM      1  C   UNL     1      52.386   8.899   9.935  0.00  0.00    +0.000 A 
ATOM      2  C   UNL     1      51.857   7.713  10.459  0.00  0.00    +0.000 A 
ATOM      3  C   UNL     1      50.702   7.734  11.248  0.00  0.00    +0.000 A 
ATOM      4  C   UNL     1      50.037   8.939  11.511  0.00  0.00    +0.000 A 
ATOM      5  C   UNL     1      50.576  10.127  11.004  0.00  0.00    +0.000 A 
ATOM      6  C   UNL     1      51.733  10.107  10.217  0.00  0.00    +0.000 A 
ENDROOT
BRANCH   1   7
ATOM      7  C   UNL     1      53.642   8.878   9.105  0.00  0.00    +0.000 C 
BRANCH   7  15
ATOM      8  C   UNL     1      52.521   9.807   4.923  0.00  0.00    +0.000 A 
ATOM      9  C   UNL     1      52.779   9.823   3.562  0.00  0.00    +0.000 A 
ATOM     10  C   UNL     1      53.624   8.731   3.260  0.00  0.00    +0.000 A 
ATOM     11  C   UNL     1      53.822   8.055   4.443  0.00  0.00    +0.000 A 
ATOM     12  N   UNL     1      53.184   8.731   5.486  0.00  0.00    +0.000 N 
ATOM     13  C   UNL     1      53.183   8.275   6.818  0.00  0.00    +0.000 C 
ATOM     14  O   UNL     1      53.080   7.078   7.039  0.00  0.00    +0.000 OA
ATOM     15  N   UNL     1      53.426   9.274   7.731  0.00  0.00    +0.000 N 
ATOM     16  H   UNL     1      53.824  10.155   7.425  0.00  0.00    +0.000 HD
BRANCH   8  18
ATOM     17  N   UNL     1      50.890  11.354   6.193  0.00  0.00    +0.000 NA
ATOM     18  C   UNL     1      51.624  10.664   5.619  0.00  0.00    +0.000 C 
ENDBRANCH   8  18
ENDBRANCH   7  15
ENDBRANCH   1   7
BRANCH   4  19
ATOM     19  C   UNL     1      48.775   8.960  12.336  0.00  0.00    +0.000 C 
BRANCH  19  20
ATOM     20  N   UNL     1      47.954   7.801  12.091  0.00  0.00    +0.000 N 
ATOM     21  C   UNL     1      47.513   7.026  13.134  0.00  0.00    +0.000 C 
ATOM     22  O   UNL     1      47.905   7.199  14.286  0.00  0.00    +0.000 OA
ATOM     23  H   UNL     1      47.479   7.748  11.195  0.00  0.00    +0.000 HD
BRANCH  21  24
ATOM     24  C   UNL     1      46.544   5.971  12.817  0.00  0.00    +0.000 A 
ATOM     25  C   UNL     1      46.792   4.660  13.207  0.00  0.00    +0.000 A 
ATOM     26  S   UNL     1      45.517   3.586  12.845  0.00  0.00    +0.000 S 
ATOM     27  C   UNL     1      44.562   4.850  12.224  0.00  0.00    +0.000 A 
ATOM     28  N   UNL     1      43.271   4.638  11.852  0.00  0.00    +0.000 NA
ATOM     29  C   UNL     1      42.661   5.690  11.419  0.00  0.00    +0.000 A 
ATOM     30  N   UNL     1      43.240   6.925  11.278  0.00  0.00    +0.000 N 
ATOM     31  C   UNL     1      44.553   7.174  11.594  0.00  0.00    +0.000 A 
ATOM     32  O   UNL     1      45.072   8.262  11.364  0.00  0.00    +0.000 OA
ATOM     33  C   UNL     1      45.253   6.048  12.178  0.00  0.00    +0.000 A 
ATOM     34  H   UNL     1      42.724   7.694  10.875  0.00  0.00    +0.000 HD
ENDBRANCH  21  24
ENDBRANCH  19  20
ENDBRANCH   4  19
TORSDOF 6
ENDMDL
