MODEL 1
REMARK VINA RESULT:    -7.978      0.000      0.000
REMARK INTER + INTRA:         -11.627
REMARK INTER:                 -10.777
REMARK INTRA:                  -0.851
REMARK UNBOUND:                -0.851
REMARK  Name = 
REMARK  7 active torsions:
REMARK  status: ('A' for Active; 'I' for Inactive)
REMARK    1  A    between atoms: C_1  and  C_2
REMARK    2  A    between atoms: C_2  and  N_3
REMARK    3  A    between atoms: C_2  and  C_11
REMARK    4  A    between atoms: C_4  and  C_6
REMARK    5  A    between atoms: C_14  and  C_15
REMARK    6  A    between atoms: C_15  and  N_16
REMARK    7  A    between atoms: C_17  and  C_19
REMARK                            x       y       z     vdW  Elec       q    Type
REMARK                         _______ _______ _______ _____ _____    ______ ____
ROOT
ATOM      1  C   UNL     1      45.058   5.776  12.243  0.00  0.00    +0.000 A 
ATOM      2  C   UNL     1      44.956   7.177  12.267  0.00  0.00    +0.000 A 
ATOM      3  C   UNL     1      45.949   7.962  12.863  0.00  0.00    +0.000 A 
ATOM      4  C   UNL     1      47.078   7.366  13.440  0.00  0.00    +0.000 A 
ATOM      5  C   UNL     1      47.152   5.967  13.473  0.00  0.00    +0.000 A 
ATOM      6  C   UNL     1      46.169   5.184  12.859  0.00  0.00    +0.000 A 
ENDROOT
BRANCH   1   8
ATOM      7  C   UNL     1      42.696   5.742  11.424  0.00  0.00    +0.000 C 
ATOM      8  C   UNL     1      44.005   4.955  11.516  0.00  0.00    +0.000 C 
BRANCH   8   9
ATOM      9  N   UNL     1      44.445   4.527  10.197  0.00  0.00    +0.000 N 
ATOM     10  C   UNL     1      44.306   3.228   9.753  0.00  0.00    +0.000 C 
ATOM     11  O   UNL     1      43.755   2.343  10.399  0.00  0.00    +0.000 OA
ATOM     12  H   UNL     1      45.005   5.137   9.609  0.00  0.00    +0.000 HD
BRANCH  10  13
ATOM     13  C   UNL     1      44.937   2.956   8.379  0.00  0.00    +0.000 C 
ATOM     14  C   UNL     1      45.977   1.853   8.409  0.00  0.00    +0.000 C 
ATOM     15  C   UNL     1      46.774   2.109   7.141  0.00  0.00    +0.000 C 
ATOM     16  C   UNL     1      46.691   3.615   6.930  0.00  0.00    +0.000 C 
ATOM     17  N   UNL     1      45.718   4.126   7.898  0.00  0.00    +0.000 NA
ATOM     18  H   UNL     1      45.082   4.787   7.449  0.00  0.00    +0.000 HD
ENDBRANCH  10  13
ENDBRANCH   8   9
ENDBRANCH   1   8
BRANCH   4  19
ATOM     19  C   UNL     1      48.201   8.204  14.002  0.00  0.00    +0.000 C 
BRANCH  19  20
ATOM     20  N   UNL     1      48.326   8.042  15.422  0.00  0.00    +0.000 N 
ATOM     21  C   UNL     1      49.273   7.210  15.981  0.00  0.00    +0.000 C 
ATOM     22  O   UNL     1      50.136   6.647  15.320  0.00  0.00    +0.000 OA
ATOM     23  H   UNL     1      47.501   8.269  15.961  0.00  0.00    +0.000 HD
BRANCH  21  24
ATOM     24  C   UNL     1      49.219   7.105  17.445  0.00  0.00    +0.000 A 
ATOM     25  C   UNL     1      49.290   8.236  18.246  0.00  0.00    +0.000 A 
ATOM     26  S   UNL     1      49.107   7.896  19.913  0.00  0.00    +0.000 S 
ATOM     27  C   UNL     1      48.986   6.224  19.619  0.00  0.00    +0.000 A 
ATOM     28  N   UNL     1      48.813   5.334  20.633  0.00  0.00    +0.000 NA
ATOM     29  C   UNL     1      48.742   4.100  20.254  0.00  0.00    +0.000 A 
ATOM     30  N   UNL     1      48.841   3.672  18.959  0.00  0.00    +0.000 N 
ATOM     31  C   UNL     1      49.034   4.530  17.907  0.00  0.00    +0.000 A 
ATOM     32  O   UNL     1      49.132   4.110  16.756  0.00  0.00    +0.000 OA
ATOM     33  C   UNL     1      49.086   5.931  18.270  0.00  0.00    +0.000 A 
ATOM     34  H   UNL     1      48.774   2.693  18.720  0.00  0.00    +0.000 HD
ENDBRANCH  21  24
ENDBRANCH  19  20
ENDBRANCH   4  19
TORSDOF 6
ENDMDL
MODEL 2
REMARK VINA RESULT:    -7.722      4.562      9.746
REMARK INTER + INTRA:         -11.282
REMARK INTER:                 -10.352
REMARK INTRA:                  -0.930
REMARK UNBOUND:                -0.851
REMARK  Name = 
REMARK  7 active torsions:
REMARK  status: ('A' for Active; 'I' for Inactive)
REMARK    1  A    between atoms: C_1  and  C_2
REMARK    2  A    between atoms: C_2  and  N_3
REMARK    3  A    between atoms: C_2  and  C_11
REMARK    4  A    between atoms: C_4  and  C_6
REMARK    5  A    between atoms: C_14  and  C_15
REMARK    6  A    between atoms: C_15  and  N_16
REMARK    7  A    between atoms: C_17  and  C_19
REMARK                            x       y       z     vdW  Elec       q    Type
REMARK                         _______ _______ _______ _____ _____    ______ ____
ROOT
ATOM      1  C   UNL     1      51.427   3.017  17.613  0.00  0.00    +0.000 A 
ATOM      2  C   UNL     1      50.764   4.238  17.818  0.00  0.00    +0.000 A 
ATOM      3  C   UNL     1      49.392   4.363  17.574  0.00  0.00    +0.000 A 
ATOM      4  C   UNL     1      48.644   3.265  17.131  0.00  0.00    +0.000 A 
ATOM      5  C   UNL     1      49.314   2.063  16.866  0.00  0.00    +0.000 A 
ATOM      6  C   UNL     1      50.681   1.933  17.129  0.00  0.00    +0.000 A 
ENDROOT
BRANCH   1   8
ATOM      7  C   UNL     1      53.327   4.047  18.870  0.00  0.00    +0.000 C 
ATOM      8  C   UNL     1      52.901   2.889  17.965  0.00  0.00    +0.000 C 
BRANCH   8   9
ATOM      9  N   UNL     1      53.218   1.609  18.578  0.00  0.00    +0.000 N 
ATOM     10  C   UNL     1      54.154   0.744  18.051  0.00  0.00    +0.000 C 
ATOM     11  O   UNL     1      54.837   0.999  17.063  0.00  0.00    +0.000 OA
ATOM     12  H   UNL     1      52.655   1.239  19.338  0.00  0.00    +0.000 HD
BRANCH  10  13
ATOM     13  C   UNL     1      54.259  -0.602  18.782  0.00  0.00    +0.000 C 
ATOM     14  C   UNL     1      55.019  -1.651  17.995  0.00  0.00    +0.000 C 
ATOM     15  C   UNL     1      54.568  -2.950  18.642  0.00  0.00    +0.000 C 
ATOM     16  C   UNL     1      53.152  -2.668  19.126  0.00  0.00    +0.000 C 
ATOM     17  N   UNL     1      52.923  -1.231  18.956  0.00  0.00    +0.000 NA
ATOM     18  H   UNL     1      52.478  -0.841  19.789  0.00  0.00    +0.000 HD
ENDBRANCH  10  13
ENDBRANCH   8   9
ENDBRANCH   1   8
BRANCH   4  19
ATOM     19  C   UNL     1      47.148   3.361  16.954  0.00  0.00    +0.000 C 
BRANCH  19  20
ATOM     20  N   UNL     1      46.790   4.338  15.967  0.00  0.00    +0.000 N 
ATOM     21  C   UNL     1      46.939   4.102  14.617  0.00  0.00    +0.000 C 
ATOM     22  O   UNL     1      47.275   3.013  14.167  0.00  0.00    +0.000 OA
ATOM     23  H   UNL     1      46.764   5.296  16.291  0.00  0.00    +0.000 HD
BRANCH  21  24
ATOM     24  C   UNL     1      46.593   5.232  13.747  0.00  0.00    +0.000 A 
ATOM     25  C   UNL     1      47.486   6.273  13.539  0.00  0.00    +0.000 A 
ATOM     26  S   UNL     1      46.923   7.433  12.414  0.00  0.00    +0.000 S 
ATOM     27  C   UNL     1      45.446   6.610  12.216  0.00  0.00    +0.000 A 
ATOM     28  N   UNL     1      44.483   7.071  11.374  0.00  0.00    +0.000 NA
ATOM     29  C   UNL     1      43.416   6.341  11.333  0.00  0.00    +0.000 A 
ATOM     30  N   UNL     1      43.219   5.202  12.064  0.00  0.00    +0.000 N 
ATOM     31  C   UNL     1      44.154   4.710  12.938  0.00  0.00    +0.000 A 
ATOM     32  O   UNL     1      43.938   3.690  13.589  0.00  0.00    +0.000 OA
ATOM     33  C   UNL     1      45.385   5.470  12.998  0.00  0.00    +0.000 A 
ATOM     34  H   UNL     1      42.365   4.667  11.988  0.00  0.00    +0.000 HD
ENDBRANCH  21  24
ENDBRANCH  19  20
ENDBRANCH   4  19
TORSDOF 6
ENDMDL
MODEL 3
REMARK VINA RESULT:    -7.316      1.551      2.118
REMARK INTER + INTRA:         -10.732
REMARK INTER:                 -10.212
REMARK INTRA:                  -0.521
REMARK UNBOUND:                -0.851
REMARK  Name = 
REMARK  7 active torsions:
REMARK  status: ('A' for Active; 'I' for Inactive)
REMARK    1  A    between atoms: C_1  and  C_2
REMARK    2  A    between atoms: C_2  and  N_3
REMARK    3  A    between atoms: C_2  and  C_11
REMARK    4  A    between atoms: C_4  and  C_6
REMARK    5  A    between atoms: C_14  and  C_15
REMARK    6  A    between atoms: C_15  and  N_16
REMARK    7  A    between atoms: C_17  and  C_19
REMARK                            x       y       z     vdW  Elec       q    Type
REMARK                         _______ _______ _______ _____ _____    ______ ____
ROOT
ATOM      1  C   UNL     1      45.119   4.897  11.833  0.00  0.00    +0.000 A 
ATOM      2  C   UNL     1      46.426   5.100  12.305  0.00  0.00    +0.000 A 
ATOM      3  C   UNL     1      46.868   6.374  12.680  0.00  0.00    +0.000 A 
ATOM      4  C   UNL     1      46.007   7.477  12.603  0.00  0.00    +0.000 A 
ATOM      5  C   UNL     1      44.724   7.288  12.074  0.00  0.00    +0.000 A 
ATOM      6  C   UNL     1      44.277   6.012  11.719  0.00  0.00    +0.000 A 
ENDROOT
BRANCH   1   8
ATOM      7  C   UNL     1      43.115   3.460  11.421  0.00  0.00    +0.000 C 
ATOM      8  C   UNL     1      44.642   3.489  11.512  0.00  0.00    +0.000 C 
BRANCH   8   9
ATOM      9  N   UNL     1      45.243   2.961  10.297  0.00  0.00    +0.000 N 
ATOM     10  C   UNL     1      44.961   3.469   9.046  0.00  0.00    +0.000 C 
ATOM     11  O   UNL     1      44.233   4.439   8.854  0.00  0.00    +0.000 OA
ATOM     12  H   UNL     1      45.781   2.099  10.311  0.00  0.00    +0.000 HD
BRANCH  10  13
ATOM     13  C   UNL     1      45.607   2.699   7.886  0.00  0.00    +0.000 C 
ATOM     14  C   UNL     1      46.162   1.350   8.301  0.00  0.00    +0.000 C 
ATOM     15  C   UNL     1      47.142   1.032   7.185  0.00  0.00    +0.000 C 
ATOM     16  C   UNL     1      47.640   2.391   6.709  0.00  0.00    +0.000 C 
ATOM     17  N   UNL     1      46.812   3.402   7.371  0.00  0.00    +0.000 NA
ATOM     18  H   UNL     1      46.519   4.116   6.702  0.00  0.00    +0.000 HD
ENDBRANCH  10  13
ENDBRANCH   8   9
ENDBRANCH   1   8
BRANCH   4  19
ATOM     19  C   UNL     1      46.439   8.838  13.092  0.00  0.00    +0.000 C 
BRANCH  19  20
ATOM     20  N   UNL     1      46.930   8.788  14.439  0.00  0.00    +0.000 N 
ATOM     21  C   UNL     1      48.221   9.151  14.760  0.00  0.00    +0.000 C 
ATOM     22  O   UNL     1      48.994   9.643  13.947  0.00  0.00    +0.000 OA
ATOM     23  H   UNL     1      46.433   8.165  15.062  0.00  0.00    +0.000 HD
BRANCH  21  24
ATOM     24  C   UNL     1      48.583   8.973  16.172  0.00  0.00    +0.000 A 
ATOM     25  C   UNL     1      48.646  10.058  17.035  0.00  0.00    +0.000 A 
ATOM     26  S   UNL     1      48.986   9.616  18.653  0.00  0.00    +0.000 S 
ATOM     27  C   UNL     1      49.116   7.970  18.237  0.00  0.00    +0.000 A 
ATOM     28  N   UNL     1      49.396   7.021  19.170  0.00  0.00    +0.000 NA
ATOM     29  C   UNL     1      49.466   5.817  18.703  0.00  0.00    +0.000 A 
ATOM     30  N   UNL     1      49.294   5.477  17.389  0.00  0.00    +0.000 N 
ATOM     31  C   UNL     1      49.029   6.400  16.411  0.00  0.00    +0.000 A 
ATOM     32  O   UNL     1      48.894   6.061  15.238  0.00  0.00    +0.000 OA
ATOM     33  C   UNL     1      48.905   7.764  16.885  0.00  0.00    +0.000 A 
ATOM     34  H   UNL     1      49.356   4.517  17.081  0.00  0.00    +0.000 HD
ENDBRANCH  21  24
ENDBRANCH  19  20
ENDBRANCH   4  19
TORSDOF 6
ENDMDL
MODEL 4
REMARK VINA RESULT:    -7.145      1.808      2.478
REMARK INTER + INTRA:         -10.502
REMARK INTER:                  -9.191
REMARK INTRA:                  -1.311
REMARK UNBOUND:                -0.851
REMARK  Name = 
REMARK  7 active torsions:
REMARK  status: ('A' for Active; 'I' for Inactive)
REMARK    1  A    between atoms: C_1  and  C_2
REMARK    2  A    between atoms: C_2  and  N_3
REMARK    3  A    between atoms: C_2  and  C_11
REMARK    4  A    between atoms: C_4  and  C_6
REMARK    5  A    between atoms: C_14  and  C_15
REMARK    6  A    between atoms: C_15  and  N_16
REMARK    7  A    between atoms: C_17  and  C_19
REMARK                            x       y       z     vdW  Elec       q    Type
REMARK                         _______ _______ _______ _____ _____    ______ ____
ROOT
ATOM      1  C   UNL     1      46.240   7.876  11.943  0.00  0.00    +0.000 A 
ATOM      2  C   UNL     1      47.086   6.755  11.917  0.00  0.00    +0.000 A 
ATOM      3  C   UNL     1      48.425   6.852  12.314  0.00  0.00    +0.000 A 
ATOM      4  C   UNL     1      48.948   8.073  12.760  0.00  0.00    +0.000 A 
ATOM      5  C   UNL     1      48.124   9.205  12.728  0.00  0.00    +0.000 A 
ATOM      6  C   UNL     1      46.781   9.103  12.351  0.00  0.00    +0.000 A 
ENDROOT
BRANCH   1   8
ATOM      7  C   UNL     1      44.227   9.034  11.016  0.00  0.00    +0.000 C 
ATOM      8  C   UNL     1      44.770   7.721  11.585  0.00  0.00    +0.000 C 
BRANCH   8   9
ATOM      9  N   UNL     1      44.534   6.621  10.662  0.00  0.00    +0.000 N 
ATOM     10  C   UNL     1      43.979   5.423  11.061  0.00  0.00    +0.000 C 
ATOM     11  O   UNL     1      43.586   5.201  12.202  0.00  0.00    +0.000 OA
ATOM     12  H   UNL     1      44.906   6.643   9.717  0.00  0.00    +0.000 HD
BRANCH  10  13
ATOM     13  C   UNL     1      43.920   4.353   9.961  0.00  0.00    +0.000 C 
ATOM     14  C   UNL     1      44.497   3.020  10.395  0.00  0.00    +0.000 C 
ATOM     15  C   UNL     1      44.786   2.332   9.071  0.00  0.00    +0.000 C 
ATOM     16  C   UNL     1      45.098   3.468   8.106  0.00  0.00    +0.000 C 
ATOM     17  N   UNL     1      44.778   4.717   8.802  0.00  0.00    +0.000 NA
ATOM     18  H   UNL     1      44.256   5.343   8.187  0.00  0.00    +0.000 HD
ENDBRANCH  10  13
ENDBRANCH   8   9
ENDBRANCH   1   8
BRANCH   4  19
ATOM     19  C   UNL     1      50.362   8.171  13.280  0.00  0.00    +0.000 C 
BRANCH  19  20
ATOM     20  N   UNL     1      50.537   7.420  14.490  0.00  0.00    +0.000 N 
ATOM     21  C   UNL     1      50.368   7.990  15.734  0.00  0.00    +0.000 C 
ATOM     22  O   UNL     1      49.952   9.131  15.890  0.00  0.00    +0.000 OA
ATOM     23  H   UNL     1      51.113   6.592  14.410  0.00  0.00    +0.000 HD
BRANCH  21  24
ATOM     24  C   UNL     1      50.656   7.102  16.867  0.00  0.00    +0.000 A 
ATOM     25  C   UNL     1      51.723   7.353  17.718  0.00  0.00    +0.000 A 
ATOM     26  S   UNL     1      51.816   6.255  19.027  0.00  0.00    +0.000 S 
ATOM     27  C   UNL     1      50.469   5.379  18.464  0.00  0.00    +0.000 A 
ATOM     28  N   UNL     1      50.000   4.290  19.131  0.00  0.00    +0.000 NA
ATOM     29  C   UNL     1      48.974   3.728  18.579  0.00  0.00    +0.000 A 
ATOM     30  N   UNL     1      48.383   4.145  17.419  0.00  0.00    +0.000 N 
ATOM     31  C   UNL     1      48.832   5.225  16.704  0.00  0.00    +0.000 A 
ATOM     32  O   UNL     1      48.285   5.564  15.657  0.00  0.00    +0.000 OA
ATOM     33  C   UNL     1      49.960   5.916  17.295  0.00  0.00    +0.000 A 
ATOM     34  H   UNL     1      47.579   3.669  17.036  0.00  0.00    +0.000 HD
ENDBRANCH  21  24
ENDBRANCH  19  20
ENDBRANCH   4  19
TORSDOF 6
ENDMDL
MODEL 5
REMARK VINA RESULT:    -7.069      2.450      2.892
REMARK INTER + INTRA:         -10.399
REMARK INTER:                  -9.489
REMARK INTRA:                  -0.910
REMARK UNBOUND:                -0.851
REMARK  Name = 
REMARK  7 active torsions:
REMARK  status: ('A' for Active; 'I' for Inactive)
REMARK    1  A    between atoms: C_1  and  C_2
REMARK    2  A    between atoms: C_2  and  N_3
REMARK    3  A    between atoms: C_2  and  C_11
REMARK    4  A    between atoms: C_4  and  C_6
REMARK    5  A    between atoms: C_14  and  C_15
REMARK    6  A    between atoms: C_15  and  N_16
REMARK    7  A    between atoms: C_17  and  C_19
REMARK                            x       y       z     vdW  Elec       q    Type
REMARK                         _______ _______ _______ _____ _____    ______ ____
ROOT
ATOM      1  C   UNL     1      45.149   5.426  12.172  0.00  0.00    +0.000 A 
ATOM      2  C   UNL     1      45.252   6.826  12.129  0.00  0.00    +0.000 A 
ATOM      3  C   UNL     1      46.259   7.497  12.832  0.00  0.00    +0.000 A 
ATOM      4  C   UNL     1      47.199   6.782  13.585  0.00  0.00    +0.000 A 
ATOM      5  C   UNL     1      47.062   5.391  13.679  0.00  0.00    +0.000 A 
ATOM      6  C   UNL     1      46.067   4.720  12.961  0.00  0.00    +0.000 A 
ENDROOT
BRANCH   1   8
ATOM      7  C   UNL     1      42.841   5.592  11.223  0.00  0.00    +0.000 C 
ATOM      8  C   UNL     1      44.095   4.721  11.333  0.00  0.00    +0.000 C 
BRANCH   8   9
ATOM      9  N   UNL     1      44.587   4.353  10.015  0.00  0.00    +0.000 N 
ATOM     10  C   UNL     1      44.469   3.076   9.508  0.00  0.00    +0.000 C 
ATOM     11  O   UNL     1      43.894   2.161  10.091  0.00  0.00    +0.000 OA
ATOM     12  H   UNL     1      45.168   4.989   9.477  0.00  0.00    +0.000 HD
BRANCH  10  13
ATOM     13  C   UNL     1      45.153   2.866   8.149  0.00  0.00    +0.000 C 
ATOM     14  C   UNL     1      46.156   1.729   8.155  0.00  0.00    +0.000 C 
ATOM     15  C   UNL     1      47.018   2.034   6.942  0.00  0.00    +0.000 C 
ATOM     16  C   UNL     1      46.991   3.551   6.822  0.00  0.00    +0.000 C 
ATOM     17  N   UNL     1      45.991   4.036   7.776  0.00  0.00    +0.000 NA
ATOM     18  H   UNL     1      45.396   4.743   7.340  0.00  0.00    +0.000 HD
ENDBRANCH  10  13
ENDBRANCH   8   9
ENDBRANCH   1   8
BRANCH   4  19
ATOM     19  C   UNL     1      48.346   7.485  14.270  0.00  0.00    +0.000 C 
BRANCH  19  20
ATOM     20  N   UNL     1      49.143   6.575  15.041  0.00  0.00    +0.000 N 
ATOM     21  C   UNL     1      49.671   6.923  16.266  0.00  0.00    +0.000 C 
ATOM     22  O   UNL     1      49.406   7.980  16.826  0.00  0.00    +0.000 OA
ATOM     23  H   UNL     1      49.584   5.830  14.518  0.00  0.00    +0.000 HD
BRANCH  21  24
ATOM     24  C   UNL     1      50.521   5.901  16.889  0.00  0.00    +0.000 A 
ATOM     25  C   UNL     1      49.967   4.863  17.625  0.00  0.00    +0.000 A 
ATOM     26  S   UNL     1      51.127   3.731  18.176  0.00  0.00    +0.000 S 
ATOM     27  C   UNL     1      52.407   4.625  17.498  0.00  0.00    +0.000 A 
ATOM     28  N   UNL     1      53.698   4.210  17.603  0.00  0.00    +0.000 NA
ATOM     29  C   UNL     1      54.558   4.994  17.042  0.00  0.00    +0.000 A 
ATOM     30  N   UNL     1      54.250   6.161  16.397  0.00  0.00    +0.000 N 
ATOM     31  C   UNL     1      52.967   6.628  16.283  0.00  0.00    +0.000 A 
ATOM     32  O   UNL     1      52.727   7.688  15.708  0.00  0.00    +0.000 OA
ATOM     33  C   UNL     1      51.956   5.769  16.864  0.00  0.00    +0.000 A 
ATOM     34  H   UNL     1      54.966   6.733  15.972  0.00  0.00    +0.000 HD
ENDBRANCH  21  24
ENDBRANCH  19  20
ENDBRANCH   4  19
TORSDOF 6
ENDMDL
MODEL 6
REMARK VINA RESULT:    -7.042      4.027      5.520
REMARK INTER + INTRA:         -10.363
REMARK INTER:                  -9.203
REMARK INTRA:                  -1.160
REMARK UNBOUND:                -0.851
REMARK  Name = 
REMARK  7 active torsions:
REMARK  status: ('A' for Active; 'I' for Inactive)
REMARK    1  A    between atoms: C_1  and  C_2
REMARK    2  A    between atoms: C_2  and  N_3
REMARK    3  A    between atoms: C_2  and  C_11
REMARK    4  A    between atoms: C_4  and  C_6
REMARK    5  A    between atoms: C_14  and  C_15
REMARK    6  A    between atoms: C_15  and  N_16
REMARK    7  A    between atoms: C_17  and  C_19
REMARK                            x       y       z     vdW  Elec       q    Type
REMARK                         _______ _______ _______ _____ _____    ______ ____
ROOT
ATOM      1  C   UNL     1      45.317   5.688  11.965  0.00  0.00    +0.000 A 
ATOM      2  C   UNL     1      46.289   5.335  12.915  0.00  0.00    +0.000 A 
ATOM      3  C   UNL     1      47.076   6.310  13.539  0.00  0.00    +0.000 A 
ATOM      4  C   UNL     1      46.900   7.667  13.238  0.00  0.00    +0.000 A 
ATOM      5  C   UNL     1      45.975   8.017  12.246  0.00  0.00    +0.000 A 
ATOM      6  C   UNL     1      45.175   7.044  11.638  0.00  0.00    +0.000 A 
ENDROOT
BRANCH   1   8
ATOM      7  C   UNL     1      42.964   5.080  11.378  0.00  0.00    +0.000 C 
ATOM      8  C   UNL     1      44.422   4.615  11.366  0.00  0.00    +0.000 C 
BRANCH   8   9
ATOM      9  N   UNL     1      44.832   4.234  10.023  0.00  0.00    +0.000 N 
ATOM     10  C   UNL     1      44.551   2.996   9.483  0.00  0.00    +0.000 C 
ATOM     11  O   UNL     1      43.888   2.137  10.057  0.00  0.00    +0.000 OA
ATOM     12  H   UNL     1      45.470   4.815   9.486  0.00  0.00    +0.000 HD
BRANCH  10  13
ATOM     13  C   UNL     1      45.170   2.751   8.099  0.00  0.00    +0.000 C 
ATOM     14  C   UNL     1      46.309   1.751   8.124  0.00  0.00    +0.000 C 
ATOM     15  C   UNL     1      47.046   2.050   6.829  0.00  0.00    +0.000 C 
ATOM     16  C   UNL     1      46.817   3.536   6.589  0.00  0.00    +0.000 C 
ATOM     17  N   UNL     1      45.825   3.977   7.571  0.00  0.00    +0.000 NA
ATOM     18  H   UNL     1      45.118   4.564   7.125  0.00  0.00    +0.000 HD
ENDBRANCH  10  13
ENDBRANCH   8   9
ENDBRANCH   1   8
BRANCH   4  19
ATOM     19  C   UNL     1      47.674   8.735  13.971  0.00  0.00    +0.000 C 
BRANCH  19  20
ATOM     20  N   UNL     1      48.925   9.022  13.328  0.00  0.00    +0.000 N 
ATOM     21  C   UNL     1      49.056  10.039  12.407  0.00  0.00    +0.000 C 
ATOM     22  O   UNL     1      48.155  10.831  12.161  0.00  0.00    +0.000 OA
ATOM     23  H   UNL     1      49.589   8.259  13.307  0.00  0.00    +0.000 HD
BRANCH  21  24
ATOM     24  C   UNL     1      50.384  10.151  11.792  0.00  0.00    +0.000 A 
ATOM     25  C   UNL     1      51.014  11.382  11.673  0.00  0.00    +0.000 A 
ATOM     26  S   UNL     1      52.593  11.273  11.021  0.00  0.00    +0.000 S 
ATOM     27  C   UNL     1      52.459   9.587  10.824  0.00  0.00    +0.000 A 
ATOM     28  N   UNL     1      53.476   8.849  10.307  0.00  0.00    +0.000 NA
ATOM     29  C   UNL     1      53.224   7.584  10.216  0.00  0.00    +0.000 A 
ATOM     30  N   UNL     1      52.048   6.991  10.583  0.00  0.00    +0.000 N 
ATOM     31  C   UNL     1      50.989   7.698  11.092  0.00  0.00    +0.000 A 
ATOM     32  O   UNL     1      49.940   7.135  11.399  0.00  0.00    +0.000 OA
ATOM     33  C   UNL     1      51.228   9.117  11.249  0.00  0.00    +0.000 A 
ATOM     34  H   UNL     1      51.908   5.995  10.493  0.00  0.00    +0.000 HD
ENDBRANCH  21  24
ENDBRANCH  19  20
ENDBRANCH   4  19
TORSDOF 6
ENDMDL
MODEL 7
REMARK VINA RESULT:    -6.929      3.662      9.186
REMARK INTER + INTRA:         -10.211
REMARK INTER:                  -9.097
REMARK INTRA:                  -1.113
REMARK UNBOUND:                -0.851
REMARK  Name = 
REMARK  7 active torsions:
REMARK  status: ('A' for Active; 'I' for Inactive)
REMARK    1  A    between atoms: C_1  and  C_2
REMARK    2  A    between atoms: C_2  and  N_3
REMARK    3  A    between atoms: C_2  and  C_11
REMARK    4  A    between atoms: C_4  and  C_6
REMARK    5  A    between atoms: C_14  and  C_15
REMARK    6  A    between atoms: C_15  and  N_16
REMARK    7  A    between atoms: C_17  and  C_19
REMARK                            x       y       z     vdW  Elec       q    Type
REMARK                         _______ _______ _______ _____ _____    ______ ____
ROOT
ATOM      1  C   UNL     1      51.365   4.263  17.815  0.00  0.00    +0.000 A 
ATOM      2  C   UNL     1      50.950   2.958  17.506  0.00  0.00    +0.000 A 
ATOM      3  C   UNL     1      49.611   2.678  17.209  0.00  0.00    +0.000 A 
ATOM      4  C   UNL     1      48.655   3.701  17.199  0.00  0.00    +0.000 A 
ATOM      5  C   UNL     1      49.054   4.992  17.568  0.00  0.00    +0.000 A 
ATOM      6  C   UNL     1      50.395   5.275  17.845  0.00  0.00    +0.000 A 
ENDROOT
BRANCH   1   8
ATOM      7  C   UNL     1      53.619   3.239  18.161  0.00  0.00    +0.000 C 
ATOM      8  C   UNL     1      52.839   4.551  18.054  0.00  0.00    +0.000 C 
BRANCH   8   9
ATOM      9  N   UNL     1      53.411   5.411  17.030  0.00  0.00    +0.000 N 
ATOM     10  C   UNL     1      53.771   6.720  17.275  0.00  0.00    +0.000 C 
ATOM     11  O   UNL     1      53.696   7.252  18.379  0.00  0.00    +0.000 OA
ATOM     12  H   UNL     1      53.431   5.124  16.056  0.00  0.00    +0.000 HD
BRANCH  10  13
ATOM     13  C   UNL     1      54.248   7.491  16.036  0.00  0.00    +0.000 C 
ATOM     14  C   UNL     1      53.941   8.974  16.101  0.00  0.00    +0.000 C 
ATOM     15  C   UNL     1      54.028   9.400  14.645  0.00  0.00    +0.000 C 
ATOM     16  C   UNL     1      53.610   8.166  13.857  0.00  0.00    +0.000 C 
ATOM     17  N   UNL     1      53.518   7.061  14.814  0.00  0.00    +0.000 NA
ATOM     18  H   UNL     1      53.967   6.225  14.437  0.00  0.00    +0.000 HD
ENDBRANCH  10  13
ENDBRANCH   8   9
ENDBRANCH   1   8
BRANCH   4  19
ATOM     19  C   UNL     1      47.228   3.430  16.788  0.00  0.00    +0.000 C 
BRANCH  19  20
ATOM     20  N   UNL     1      46.759   4.390  15.830  0.00  0.00    +0.000 N 
ATOM     21  C   UNL     1      46.858   4.175  14.472  0.00  0.00    +0.000 C 
ATOM     22  O   UNL     1      47.244   3.115  13.995  0.00  0.00    +0.000 OA
ATOM     23  H   UNL     1      46.685   5.341  16.167  0.00  0.00    +0.000 HD
BRANCH  21  24
ATOM     24  C   UNL     1      46.396   5.287  13.633  0.00  0.00    +0.000 A 
ATOM     25  C   UNL     1      47.204   6.392  13.402  0.00  0.00    +0.000 A 
ATOM     26  S   UNL     1      46.513   7.520  12.317  0.00  0.00    +0.000 S 
ATOM     27  C   UNL     1      45.092   6.596  12.169  0.00  0.00    +0.000 A 
ATOM     28  N   UNL     1      44.063   6.995  11.374  0.00  0.00    +0.000 NA
ATOM     29  C   UNL     1      43.051   6.192  11.367  0.00  0.00    +0.000 A 
ATOM     30  N   UNL     1      42.966   5.033  12.089  0.00  0.00    +0.000 N 
ATOM     31  C   UNL     1      43.969   4.600  12.917  0.00  0.00    +0.000 A 
ATOM     32  O   UNL     1      43.854   3.561  13.563  0.00  0.00    +0.000 OA
ATOM     33  C   UNL     1      45.144   5.446  12.937  0.00  0.00    +0.000 A 
ATOM     34  H   UNL     1      42.149   4.440  12.041  0.00  0.00    +0.000 HD
ENDBRANCH  21  24
ENDBRANCH  19  20
ENDBRANCH   4  19
TORSDOF 6
ENDMDL
MODEL 8
REMARK VINA RESULT:    -6.878      4.374      9.404
REMARK INTER + INTRA:         -10.142
REMARK INTER:                  -8.775
REMARK INTRA:                  -1.367
REMARK UNBOUND:                -0.851
REMARK  Name = 
REMARK  7 active torsions:
REMARK  status: ('A' for Active; 'I' for Inactive)
REMARK    1  A    between atoms: C_1  and  C_2
REMARK    2  A    between atoms: C_2  and  N_3
REMARK    3  A    between atoms: C_2  and  C_11
REMARK    4  A    between atoms: C_4  and  C_6
REMARK    5  A    between atoms: C_14  and  C_15
REMARK    6  A    between atoms: C_15  and  N_16
REMARK    7  A    between atoms: C_17  and  C_19
REMARK                            x       y       z     vdW  Elec       q    Type
REMARK                         _______ _______ _______ _____ _____    ______ ____
ROOT
ATOM      1  C   UNL     1      51.338   3.654  18.147  0.00  0.00    +0.000 A 
ATOM      2  C   UNL     1      50.846   2.570  17.402  0.00  0.00    +0.000 A 
ATOM      3  C   UNL     1      49.490   2.483  17.064  0.00  0.00    +0.000 A 
ATOM      4  C   UNL     1      48.594   3.487  17.451  0.00  0.00    +0.000 A 
ATOM      5  C   UNL     1      49.070   4.538  18.246  0.00  0.00    +0.000 A 
ATOM      6  C   UNL     1      50.428   4.634  18.567  0.00  0.00    +0.000 A 
ENDROOT
BRANCH   1   8
ATOM      7  C   UNL     1      53.065   4.608  19.682  0.00  0.00    +0.000 C 
ATOM      8  C   UNL     1      52.828   3.763  18.429  0.00  0.00    +0.000 C 
BRANCH   8   9
ATOM      9  N   UNL     1      53.468   2.462  18.554  0.00  0.00    +0.000 N 
ATOM     10  C   UNL     1      54.548   2.089  17.782  0.00  0.00    +0.000 C 
ATOM     11  O   UNL     1      55.097   2.831  16.973  0.00  0.00    +0.000 OA
ATOM     12  H   UNL     1      53.048   1.725  19.112  0.00  0.00    +0.000 HD
BRANCH  10  13
ATOM     13  C   UNL     1      55.003   0.636  17.987  0.00  0.00    +0.000 C 
ATOM     14  C   UNL     1      54.867  -0.213  16.737  0.00  0.00    +0.000 C 
ATOM     15  C   UNL     1      54.880  -1.628  17.290  0.00  0.00    +0.000 C 
ATOM     16  C   UNL     1      54.265  -1.506  18.677  0.00  0.00    +0.000 C 
ATOM     17  N   UNL     1      54.131  -0.075  18.959  0.00  0.00    +0.000 NA
ATOM     18  H   UNL     1      54.452   0.134  19.906  0.00  0.00    +0.000 HD
ENDBRANCH  10  13
ENDBRANCH   8   9
ENDBRANCH   1   8
BRANCH   4  19
ATOM     19  C   UNL     1      47.150   3.454  17.013  0.00  0.00    +0.000 C 
BRANCH  19  20
ATOM     20  N   UNL     1      46.887   4.409  15.974  0.00  0.00    +0.000 N 
ATOM     21  C   UNL     1      47.065   4.105  14.641  0.00  0.00    +0.000 C 
ATOM     22  O   UNL     1      47.346   2.979  14.249  0.00  0.00    +0.000 OA
ATOM     23  H   UNL     1      46.912   5.380  16.257  0.00  0.00    +0.000 HD
BRANCH  21  24
ATOM     24  C   UNL     1      46.820   5.216  13.713  0.00  0.00    +0.000 A 
ATOM     25  C   UNL     1      45.782   5.163  12.793  0.00  0.00    +0.000 A 
ATOM     26  S   UNL     1      45.613   6.601  11.881  0.00  0.00    +0.000 S 
ATOM     27  C   UNL     1      46.955   7.314  12.647  0.00  0.00    +0.000 A 
ATOM     28  N   UNL     1      47.369   8.571  12.333  0.00  0.00    +0.000 NA
ATOM     29  C   UNL     1      48.403   8.974  12.995  0.00  0.00    +0.000 A 
ATOM     30  N   UNL     1      49.069   8.234  13.933  0.00  0.00    +0.000 N 
ATOM     31  C   UNL     1      48.700   6.957  14.270  0.00  0.00    +0.000 A 
ATOM     32  O   UNL     1      49.329   6.315  15.107  0.00  0.00    +0.000 OA
ATOM     33  C   UNL     1      47.523   6.466  13.582  0.00  0.00    +0.000 A 
ATOM     34  H   UNL     1      49.871   8.603  14.424  0.00  0.00    +0.000 HD
ENDBRANCH  21  24
ENDBRANCH  19  20
ENDBRANCH   4  19
TORSDOF 6
ENDMDL
MODEL 9
REMARK VINA RESULT:    -6.850      3.301      8.949
REMARK INTER + INTRA:         -10.103
REMARK INTER:                  -9.081
REMARK INTRA:                  -1.023
REMARK UNBOUND:                -0.851
REMARK  Name = 
REMARK  7 active torsions:
REMARK  status: ('A' for Active; 'I' for Inactive)
REMARK    1  A    between atoms: C_1  and  C_2
REMARK    2  A    between atoms: C_2  and  N_3
REMARK    3  A    between atoms: C_2  and  C_11
REMARK    4  A    between atoms: C_4  and  C_6
REMARK    5  A    between atoms: C_14  and  C_15
REMARK    6  A    between atoms: C_15  and  N_16
REMARK    7  A    between atoms: C_17  and  C_19
REMARK                            x       y       z     vdW  Elec       q    Type
REMARK                         _______ _______ _______ _____ _____    ______ ____
ROOT
ATOM      1  C   UNL     1      49.837   6.010  18.865  0.00  0.00    +0.000 A 
ATOM      2  C   UNL     1      49.358   5.323  17.738  0.00  0.00    +0.000 A 
ATOM      3  C   UNL     1      49.027   6.008  16.563  0.00  0.00    +0.000 A 
ATOM      4  C   UNL     1      49.180   7.398  16.482  0.00  0.00    +0.000 A 
ATOM      5  C   UNL     1      49.599   8.092  17.624  0.00  0.00    +0.000 A 
ATOM      6  C   UNL     1      49.949   7.406  18.791  0.00  0.00    +0.000 A 
ENDROOT
BRANCH   1   8
ATOM      7  C   UNL     1      49.035   4.729  20.857  0.00  0.00    +0.000 C 
ATOM      8  C   UNL     1      50.266   5.231  20.099  0.00  0.00    +0.000 C 
BRANCH   8   9
ATOM      9  N   UNL     1      51.162   4.130  19.779  0.00  0.00    +0.000 N 
ATOM     10  C   UNL     1      52.512   4.309  19.567  0.00  0.00    +0.000 C 
ATOM     11  O   UNL     1      53.083   5.389  19.684  0.00  0.00    +0.000 OA
ATOM     12  H   UNL     1      50.798   3.209  19.555  0.00  0.00    +0.000 HD
BRANCH  10  13
ATOM     13  C   UNL     1      53.261   3.041  19.129  0.00  0.00    +0.000 C 
ATOM     14  C   UNL     1      54.252   3.291  18.009  0.00  0.00    +0.000 C 
ATOM     15  C   UNL     1      54.467   1.900  17.435  0.00  0.00    +0.000 C 
ATOM     16  C   UNL     1      53.148   1.177  17.672  0.00  0.00    +0.000 C 
ATOM     17  N   UNL     1      52.335   2.045  18.528  0.00  0.00    +0.000 NA
ATOM     18  H   UNL     1      51.902   1.502  19.277  0.00  0.00    +0.000 HD
ENDBRANCH  10  13
ENDBRANCH   8   9
ENDBRANCH   1   8
BRANCH   4  19
ATOM     19  C   UNL     1      48.917   8.136  15.192  0.00  0.00    +0.000 C 
BRANCH  19  20
ATOM     20  N   UNL     1      47.765   7.622  14.509  0.00  0.00    +0.000 N 
ATOM     21  C   UNL     1      47.874   6.841  13.378  0.00  0.00    +0.000 C 
ATOM     22  O   UNL     1      48.949   6.443  12.948  0.00  0.00    +0.000 OA
ATOM     23  H   UNL     1      46.902   8.126  14.670  0.00  0.00    +0.000 HD
BRANCH  21  24
ATOM     24  C   UNL     1      46.596   6.458  12.764  0.00  0.00    +0.000 A 
ATOM     25  C   UNL     1      45.773   7.408  12.175  0.00  0.00    +0.000 A 
ATOM     26  S   UNL     1      44.387   6.733  11.433  0.00  0.00    +0.000 S 
ATOM     27  C   UNL     1      44.815   5.161  11.925  0.00  0.00    +0.000 A 
ATOM     28  N   UNL     1      44.046   4.084  11.615  0.00  0.00    +0.000 NA
ATOM     29  C   UNL     1      44.498   2.958  12.061  0.00  0.00    +0.000 A 
ATOM     30  N   UNL     1      45.641   2.811  12.798  0.00  0.00    +0.000 N 
ATOM     31  C   UNL     1      46.438   3.869  13.150  0.00  0.00    +0.000 A 
ATOM     32  O   UNL     1      47.452   3.702  13.825  0.00  0.00    +0.000 OA
ATOM     33  C   UNL     1      45.997   5.153  12.646  0.00  0.00    +0.000 A 
ATOM     34  H   UNL     1      45.950   1.903  13.117  0.00  0.00    +0.000 HD
ENDBRANCH  21  24
ENDBRANCH  19  20
ENDBRANCH   4  19
TORSDOF 6
ENDMDL
