MODEL 1
REMARK VINA RESULT:    -8.384      0.000      0.000
REMARK INTER + INTRA:         -13.053
REMARK INTER:                 -11.814
REMARK INTRA:                  -1.238
REMARK UNBOUND:                -1.238
REMARK  Name = 
REMARK  8 active torsions:
REMARK  status: ('A' for Active; 'I' for Inactive)
REMARK    1  A    between atoms: C_1  and  C_2
REMARK    2  A    between atoms: C_2  and  N_3
REMARK    3  A    between atoms: C_2  and  C_26
REMARK    4  A    between atoms: N_3  and  C_4
REMARK    5  A    between atoms: C_4  and  C_5
REMARK    6  A    between atoms: C_8  and  C_9
REMARK    7  A    between atoms: C_9  and  N_10
REMARK    8  A    between atoms: C_11  and  C_13
REMARK                            x       y       z     vdW  Elec       q    Type
REMARK                         _______ _______ _______ _____ _____    ______ ____
ROOT
ATOM      1  C   UNL     1      44.608   5.530  11.032  0.00  0.00    +0.000 A 
ATOM      2  N   UNL     1      45.751   5.964  10.427  0.00  0.00    +0.000 NA
ATOM      3  C   UNL     1      46.632   6.668  11.171  0.00  0.00    +0.000 A 
ATOM      4  C   UNL     1      46.444   6.983  12.510  0.00  0.00    +0.000 A 
ATOM      5  C   UNL     1      45.276   6.519  13.120  0.00  0.00    +0.000 A 
ATOM      6  C   UNL     1      44.345   5.786  12.380  0.00  0.00    +0.000 A 
ATOM      7 CL   UNL     1      42.928   5.220  13.181  0.00  0.00    +0.000 Cl
ENDROOT
BRANCH   1   8
ATOM      8  C   UNL     1      43.665   4.723  10.156  0.00  0.00    +0.000 C 
BRANCH   8   9
ATOM      9  N   UNL     1      44.224   4.409   8.834  0.00  0.00    +0.000 NA
ATOM     10  H   UNL     1      43.563   4.739   8.127  0.00  0.00    +0.000 HD
BRANCH   9  12
ATOM     11  C   UNL     1      44.453   2.153   9.917  0.00  0.00    +0.000 C 
ATOM     12  C   UNL     1      44.388   2.957   8.611  0.00  0.00    +0.000 C 
BRANCH  12  13
ATOM     13  C   UNL     1      45.642   2.690   7.776  0.00  0.00    +0.000 A 
ATOM     14  C   UNL     1      46.405   1.538   7.983  0.00  0.00    +0.000 A 
ATOM     15  C   UNL     1      47.544   1.330   7.213  0.00  0.00    +0.000 A 
ATOM     16  C   UNL     1      47.902   2.277   6.263  0.00  0.00    +0.000 A 
ATOM     17  C   UNL     1      47.102   3.398   6.124  0.00  0.00    +0.000 A 
ATOM     18  N   UNL     1      45.985   3.625   6.853  0.00  0.00    +0.000 NA
ENDBRANCH  12  13
ENDBRANCH   9  12
ENDBRANCH   8   9
ENDBRANCH   1   8
BRANCH   4  19
ATOM     19  C   UNL     1      47.499   7.727  13.274  0.00  0.00    +0.000 C 
BRANCH  19  20
ATOM     20  N   UNL     1      47.748   7.095  14.545  0.00  0.00    +0.000 N 
ATOM     21  C   UNL     1      49.022   6.927  15.021  0.00  0.00    +0.000 C 
ATOM     22  O   UNL     1      50.000   7.357  14.418  0.00  0.00    +0.000 OA
ATOM     23  H   UNL     1      46.995   6.542  14.946  0.00  0.00    +0.000 HD
BRANCH  21  24
ATOM     24  C   UNL     1      49.152   6.254  16.319  0.00  0.00    +0.000 A 
ATOM     25  C   UNL     1      49.946   6.818  17.308  0.00  0.00    +0.000 A 
ATOM     26  S   UNL     1      49.957   5.934  18.766  0.00  0.00    +0.000 S 
ATOM     27  C   UNL     1      48.939   4.738  18.112  0.00  0.00    +0.000 A 
ATOM     28  N   UNL     1      48.569   3.655  18.849  0.00  0.00    +0.000 NA
ATOM     29  C   UNL     1      47.819   2.814  18.221  0.00  0.00    +0.000 A 
ATOM     30  N   UNL     1      47.398   2.958  16.925  0.00  0.00    +0.000 N 
ATOM     31  C   UNL     1      47.717   4.051  16.155  0.00  0.00    +0.000 A 
ATOM     32  O   UNL     1      47.280   4.179  15.015  0.00  0.00    +0.000 OA
ATOM     33  C   UNL     1      48.577   5.021  16.808  0.00  0.00    +0.000 A 
ATOM     34  H   UNL     1      46.801   2.267  16.496  0.00  0.00    +0.000 HD
ENDBRANCH  21  24
ENDBRANCH  19  20
ENDBRANCH   4  19
TORSDOF 7
ENDMDL
MODEL 2
REMARK VINA RESULT:    -8.020      1.562      1.895
REMARK INTER + INTRA:         -12.540
REMARK INTER:                 -11.578
REMARK INTRA:                  -0.962
REMARK UNBOUND:                -1.238
REMARK  Name = 
REMARK  8 active torsions:
REMARK  status: ('A' for Active; 'I' for Inactive)
REMARK    1  A    between atoms: C_1  and  C_2
REMARK    2  A    between atoms: C_2  and  N_3
REMARK    3  A    between atoms: C_2  and  C_26
REMARK    4  A    between atoms: N_3  and  C_4
REMARK    5  A    between atoms: C_4  and  C_5
REMARK    6  A    between atoms: C_8  and  C_9
REMARK    7  A    between atoms: C_9  and  N_10
REMARK    8  A    between atoms: C_11  and  C_13
REMARK                            x       y       z     vdW  Elec       q    Type
REMARK                         _______ _______ _______ _____ _____    ______ ____
ROOT
ATOM      1  C   UNL     1      45.434   5.833  11.628  0.00  0.00    +0.000 A 
ATOM      2  N   UNL     1      45.597   7.166  11.389  0.00  0.00    +0.000 NA
ATOM      3  C   UNL     1      46.510   7.835  12.126  0.00  0.00    +0.000 A 
ATOM      4  C   UNL     1      47.289   7.252  13.117  0.00  0.00    +0.000 A 
ATOM      5  C   UNL     1      47.123   5.882  13.340  0.00  0.00    +0.000 A 
ATOM      6  C   UNL     1      46.188   5.161  12.593  0.00  0.00    +0.000 A 
ATOM      7 CL   UNL     1      46.031   3.470  12.892  0.00  0.00    +0.000 Cl
ENDROOT
BRANCH   1   8
ATOM      8  C   UNL     1      44.412   5.127  10.753  0.00  0.00    +0.000 C 
BRANCH   8   9
ATOM      9  N   UNL     1      44.927   4.778   9.422  0.00  0.00    +0.000 NA
ATOM     10  H   UNL     1      44.530   5.437   8.748  0.00  0.00    +0.000 HD
BRANCH   9  12
ATOM     11  C   UNL     1      44.170   2.497  10.154  0.00  0.00    +0.000 C 
ATOM     12  C   UNL     1      44.514   3.428   8.984  0.00  0.00    +0.000 C 
BRANCH  12  13
ATOM     13  C   UNL     1      45.609   2.796   8.122  0.00  0.00    +0.000 A 
ATOM     14  C   UNL     1      46.168   3.497   7.052  0.00  0.00    +0.000 A 
ATOM     15  C   UNL     1      47.155   2.890   6.282  0.00  0.00    +0.000 A 
ATOM     16  C   UNL     1      47.554   1.596   6.590  0.00  0.00    +0.000 A 
ATOM     17  C   UNL     1      46.945   0.963   7.659  0.00  0.00    +0.000 A 
ATOM     18  N   UNL     1      45.988   1.529   8.430  0.00  0.00    +0.000 NA
ENDBRANCH  12  13
ENDBRANCH   9  12
ENDBRANCH   8   9
ENDBRANCH   1   8
BRANCH   4  19
ATOM     19  C   UNL     1      48.316   8.058  13.853  0.00  0.00    +0.000 C 
BRANCH  19  20
ATOM     20  N   UNL     1      48.198   7.856  15.275  0.00  0.00    +0.000 N 
ATOM     21  C   UNL     1      49.164   7.191  15.985  0.00  0.00    +0.000 C 
ATOM     22  O   UNL     1      50.195   6.790  15.454  0.00  0.00    +0.000 OA
ATOM     23  H   UNL     1      47.276   7.972  15.688  0.00  0.00    +0.000 HD
BRANCH  21  24
ATOM     24  C   UNL     1      48.925   7.030  17.423  0.00  0.00    +0.000 A 
ATOM     25  C   UNL     1      48.687   8.151  18.209  0.00  0.00    +0.000 A 
ATOM     26  S   UNL     1      48.390   7.788  19.848  0.00  0.00    +0.000 S 
ATOM     27  C   UNL     1      48.617   6.124  19.578  0.00  0.00    +0.000 A 
ATOM     28  N   UNL     1      48.523   5.230  20.601  0.00  0.00    +0.000 NA
ATOM     29  C   UNL     1      48.745   4.006  20.260  0.00  0.00    +0.000 A 
ATOM     30  N   UNL     1      49.046   3.590  18.989  0.00  0.00    +0.000 N 
ATOM     31  C   UNL     1      49.115   4.451  17.920  0.00  0.00    +0.000 A 
ATOM     32  O   UNL     1      49.332   4.042  16.784  0.00  0.00    +0.000 OA
ATOM     33  C   UNL     1      48.892   5.846  18.252  0.00  0.00    +0.000 A 
ATOM     34  H   UNL     1      49.196   2.612  18.788  0.00  0.00    +0.000 HD
ENDBRANCH  21  24
ENDBRANCH  19  20
ENDBRANCH   4  19
TORSDOF 7
ENDMDL
MODEL 3
REMARK VINA RESULT:    -7.811      2.170      2.751
REMARK INTER + INTRA:         -12.245
REMARK INTER:                 -11.122
REMARK INTRA:                  -1.123
REMARK UNBOUND:                -1.238
REMARK  Name = 
REMARK  8 active torsions:
REMARK  status: ('A' for Active; 'I' for Inactive)
REMARK    1  A    between atoms: C_1  and  C_2
REMARK    2  A    between atoms: C_2  and  N_3
REMARK    3  A    between atoms: C_2  and  C_26
REMARK    4  A    between atoms: N_3  and  C_4
REMARK    5  A    between atoms: C_4  and  C_5
REMARK    6  A    between atoms: C_8  and  C_9
REMARK    7  A    between atoms: C_9  and  N_10
REMARK    8  A    between atoms: C_11  and  C_13
REMARK                            x       y       z     vdW  Elec       q    Type
REMARK                         _______ _______ _______ _____ _____    ______ ____
ROOT
ATOM      1  C   UNL     1      45.182   6.192  11.645  0.00  0.00    +0.000 A 
ATOM      2  N   UNL     1      46.065   5.359  12.267  0.00  0.00    +0.000 NA
ATOM      3  C   UNL     1      47.023   5.915  13.041  0.00  0.00    +0.000 A 
ATOM      4  C   UNL     1      47.170   7.282  13.236  0.00  0.00    +0.000 A 
ATOM      5  C   UNL     1      46.249   8.123  12.605  0.00  0.00    +0.000 A 
ATOM      6  C   UNL     1      45.245   7.579  11.799  0.00  0.00    +0.000 A 
ATOM      7 CL   UNL     1      44.122   8.656  11.056  0.00  0.00    +0.000 Cl
ENDROOT
BRANCH   1   8
ATOM      8  C   UNL     1      44.112   5.512  10.809  0.00  0.00    +0.000 C 
BRANCH   8   9
ATOM      9  N   UNL     1      44.607   5.023   9.514  0.00  0.00    +0.000 NA
ATOM     10  H   UNL     1      44.123   5.542   8.777  0.00  0.00    +0.000 HD
BRANCH   9  12
ATOM     11  C   UNL     1      44.094   2.813  10.593  0.00  0.00    +0.000 C 
ATOM     12  C   UNL     1      44.307   3.594   9.289  0.00  0.00    +0.000 C 
BRANCH  12  13
ATOM     13  C   UNL     1      45.426   2.943   8.473  0.00  0.00    +0.000 A 
ATOM     14  C   UNL     1      46.180   3.696   7.570  0.00  0.00    +0.000 A 
ATOM     15  C   UNL     1      47.184   3.072   6.837  0.00  0.00    +0.000 A 
ATOM     16  C   UNL     1      47.406   1.713   7.012  0.00  0.00    +0.000 A 
ATOM     17  C   UNL     1      46.610   1.033   7.917  0.00  0.00    +0.000 A 
ATOM     18  N   UNL     1      45.631   1.612   8.649  0.00  0.00    +0.000 NA
ENDBRANCH  12  13
ENDBRANCH   9  12
ENDBRANCH   8   9
ENDBRANCH   1   8
BRANCH   4  19
ATOM     19  C   UNL     1      48.232   7.812  14.152  0.00  0.00    +0.000 C 
BRANCH  19  20
ATOM     20  N   UNL     1      48.075   7.272  15.479  0.00  0.00    +0.000 N 
ATOM     21  C   UNL     1      49.111   6.645  16.122  0.00  0.00    +0.000 C 
ATOM     22  O   UNL     1      50.230   6.568  15.623  0.00  0.00    +0.000 OA
ATOM     23  H   UNL     1      47.127   7.123  15.813  0.00  0.00    +0.000 HD
BRANCH  21  24
ATOM     24  C   UNL     1      48.828   6.120  17.462  0.00  0.00    +0.000 A 
ATOM     25  C   UNL     1      49.026   4.771  17.726  0.00  0.00    +0.000 A 
ATOM     26  S   UNL     1      48.690   4.332  19.339  0.00  0.00    +0.000 S 
ATOM     27  C   UNL     1      48.219   5.919  19.731  0.00  0.00    +0.000 A 
ATOM     28  N   UNL     1      47.785   6.230  20.983  0.00  0.00    +0.000 NA
ATOM     29  C   UNL     1      47.434   7.463  21.134  0.00  0.00    +0.000 A 
ATOM     30  N   UNL     1      47.484   8.416  20.150  0.00  0.00    +0.000 N 
ATOM     31  C   UNL     1      47.950   8.156  18.883  0.00  0.00    +0.000 A 
ATOM     32  O   UNL     1      48.035   9.043  18.039  0.00  0.00    +0.000 OA
ATOM     33  C   UNL     1      48.340   6.777  18.654  0.00  0.00    +0.000 A 
ATOM     34  H   UNL     1      47.207   9.368  20.338  0.00  0.00    +0.000 HD
ENDBRANCH  21  24
ENDBRANCH  19  20
ENDBRANCH   4  19
TORSDOF 7
ENDMDL
MODEL 4
REMARK VINA RESULT:    -7.436      2.905      3.670
REMARK INTER + INTRA:         -11.717
REMARK INTER:                 -11.063
REMARK INTRA:                  -0.654
REMARK UNBOUND:                -1.238
REMARK  Name = 
REMARK  8 active torsions:
REMARK  status: ('A' for Active; 'I' for Inactive)
REMARK    1  A    between atoms: C_1  and  C_2
REMARK    2  A    between atoms: C_2  and  N_3
REMARK    3  A    between atoms: C_2  and  C_26
REMARK    4  A    between atoms: N_3  and  C_4
REMARK    5  A    between atoms: C_4  and  C_5
REMARK    6  A    between atoms: C_8  and  C_9
REMARK    7  A    between atoms: C_9  and  N_10
REMARK    8  A    between atoms: C_11  and  C_13
REMARK                            x       y       z     vdW  Elec       q    Type
REMARK                         _______ _______ _______ _____ _____    ______ ____
ROOT
ATOM      1  C   UNL     1      46.768   5.008  13.339  0.00  0.00    +0.000 A 
ATOM      2  N   UNL     1      46.789   4.445  14.582  0.00  0.00    +0.000 NA
ATOM      3  C   UNL     1      47.547   5.036  15.531  0.00  0.00    +0.000 A 
ATOM      4  C   UNL     1      48.312   6.175  15.319  0.00  0.00    +0.000 A 
ATOM      5  C   UNL     1      48.269   6.749  14.046  0.00  0.00    +0.000 A 
ATOM      6  C   UNL     1      47.492   6.165  13.042  0.00  0.00    +0.000 A 
ATOM      7 CL   UNL     1      47.456   6.920  11.493  0.00  0.00    +0.000 Cl
ENDROOT
BRANCH   1   8
ATOM      8  C   UNL     1      45.879   4.317  12.319  0.00  0.00    +0.000 C 
BRANCH   8   9
ATOM      9  N   UNL     1      44.984   5.240  11.607  0.00  0.00    +0.000 NA
ATOM     10  H   UNL     1      44.393   5.703  12.302  0.00  0.00    +0.000 HD
BRANCH   9  12
ATOM     11  C   UNL     1      43.151   3.536  11.374  0.00  0.00    +0.000 C 
ATOM     12  C   UNL     1      44.071   4.546  10.674  0.00  0.00    +0.000 C 
BRANCH  12  13
ATOM     13  C   UNL     1      44.872   3.843   9.577  0.00  0.00    +0.000 A 
ATOM     14  C   UNL     1      44.921   2.449   9.512  0.00  0.00    +0.000 A 
ATOM     15  C   UNL     1      45.667   1.841   8.508  0.00  0.00    +0.000 A 
ATOM     16  C   UNL     1      46.353   2.634   7.599  0.00  0.00    +0.000 A 
ATOM     17  C   UNL     1      46.265   4.008   7.735  0.00  0.00    +0.000 A 
ATOM     18  N   UNL     1      45.544   4.629   8.696  0.00  0.00    +0.000 NA
ENDBRANCH  12  13
ENDBRANCH   9  12
ENDBRANCH   8   9
ENDBRANCH   1   8
BRANCH   4  19
ATOM     19  C   UNL     1      49.086   6.794  16.444  0.00  0.00    +0.000 C 
BRANCH  19  20
ATOM     20  N   UNL     1      50.165   5.932  16.855  0.00  0.00    +0.000 N 
ATOM     21  C   UNL     1      50.121   5.252  18.045  0.00  0.00    +0.000 C 
ATOM     22  O   UNL     1      49.141   5.300  18.782  0.00  0.00    +0.000 OA
ATOM     23  H   UNL     1      51.060   6.049  16.388  0.00  0.00    +0.000 HD
BRANCH  21  24
ATOM     24  C   UNL     1      51.286   4.419  18.365  0.00  0.00    +0.000 A 
ATOM     25  C   UNL     1      52.326   4.952  19.116  0.00  0.00    +0.000 A 
ATOM     26  S   UNL     1      53.581   3.842  19.434  0.00  0.00    +0.000 S 
ATOM     27  C   UNL     1      52.803   2.623  18.538  0.00  0.00    +0.000 A 
ATOM     28  N   UNL     1      53.372   1.395  18.389  0.00  0.00    +0.000 NA
ATOM     29  C   UNL     1      52.688   0.576  17.664  0.00  0.00    +0.000 A 
ATOM     30  N   UNL     1      51.484   0.868  17.078  0.00  0.00    +0.000 N 
ATOM     31  C   UNL     1      50.856   2.081  17.231  0.00  0.00    +0.000 A 
ATOM     32  O   UNL     1      49.752   2.295  16.740  0.00  0.00    +0.000 OA
ATOM     33  C   UNL     1      51.592   3.048  18.024  0.00  0.00    +0.000 A 
ATOM     34  H   UNL     1      50.994   0.176  16.532  0.00  0.00    +0.000 HD
ENDBRANCH  21  24
ENDBRANCH  19  20
ENDBRANCH   4  19
TORSDOF 7
ENDMDL
MODEL 5
REMARK VINA RESULT:    -7.262      2.153      2.898
REMARK INTER + INTRA:         -11.472
REMARK INTER:                 -10.849
REMARK INTRA:                  -0.623
REMARK UNBOUND:                -1.238
REMARK  Name = 
REMARK  8 active torsions:
REMARK  status: ('A' for Active; 'I' for Inactive)
REMARK    1  A    between atoms: C_1  and  C_2
REMARK    2  A    between atoms: C_2  and  N_3
REMARK    3  A    between atoms: C_2  and  C_26
REMARK    4  A    between atoms: N_3  and  C_4
REMARK    5  A    between atoms: C_4  and  C_5
REMARK    6  A    between atoms: C_8  and  C_9
REMARK    7  A    between atoms: C_9  and  N_10
REMARK    8  A    between atoms: C_11  and  C_13
REMARK                            x       y       z     vdW  Elec       q    Type
REMARK                         _______ _______ _______ _____ _____    ______ ____
ROOT
ATOM      1  C   UNL     1      44.541   4.016  12.061  0.00  0.00    +0.000 A 
ATOM      2  N   UNL     1      45.754   3.615  12.540  0.00  0.00    +0.000 NA
ATOM      3  C   UNL     1      46.554   4.550  13.099  0.00  0.00    +0.000 A 
ATOM      4  C   UNL     1      46.222   5.894  13.210  0.00  0.00    +0.000 A 
ATOM      5  C   UNL     1      44.970   6.287  12.729  0.00  0.00    +0.000 A 
ATOM      6  C   UNL     1      44.118   5.344  12.147  0.00  0.00    +0.000 A 
ATOM      7 CL   UNL     1      42.576   5.874  11.585  0.00  0.00    +0.000 Cl
ENDROOT
BRANCH   1   8
ATOM      8  C   UNL     1      43.673   2.920  11.467  0.00  0.00    +0.000 C 
BRANCH   8   9
ATOM      9  N   UNL     1      44.228   2.340  10.236  0.00  0.00    +0.000 NA
ATOM     10  H   UNL     1      44.894   1.611  10.504  0.00  0.00    +0.000 HD
BRANCH   9  12
ATOM     11  C   UNL     1      44.076   4.336   8.717  0.00  0.00    +0.000 C 
ATOM     12  C   UNL     1      44.982   3.323   9.430  0.00  0.00    +0.000 C 
BRANCH  12  13
ATOM     13  C   UNL     1      45.859   2.602   8.405  0.00  0.00    +0.000 A 
ATOM     14  C   UNL     1      46.478   3.310   7.372  0.00  0.00    +0.000 A 
ATOM     15  C   UNL     1      47.262   2.623   6.451  0.00  0.00    +0.000 A 
ATOM     16  C   UNL     1      47.402   1.247   6.574  0.00  0.00    +0.000 A 
ATOM     17  C   UNL     1      46.748   0.615   7.617  0.00  0.00    +0.000 A 
ATOM     18  N   UNL     1      45.985   1.256   8.532  0.00  0.00    +0.000 NA
ENDBRANCH  12  13
ENDBRANCH   9  12
ENDBRANCH   8   9
ENDBRANCH   1   8
BRANCH   4  19
ATOM     19  C   UNL     1      47.149   6.855  13.890  0.00  0.00    +0.000 C 
BRANCH  19  20
ATOM     20  N   UNL     1      47.971   6.172  14.856  0.00  0.00    +0.000 N 
ATOM     21  C   UNL     1      48.703   6.863  15.787  0.00  0.00    +0.000 C 
ATOM     22  O   UNL     1      48.644   8.086  15.878  0.00  0.00    +0.000 OA
ATOM     23  H   UNL     1      48.211   5.203  14.664  0.00  0.00    +0.000 HD
BRANCH  21  24
ATOM     24  C   UNL     1      49.517   6.061  16.707  0.00  0.00    +0.000 A 
ATOM     25  C   UNL     1      48.895   5.204  17.606  0.00  0.00    +0.000 A 
ATOM     26  S   UNL     1      49.983   4.316  18.572  0.00  0.00    +0.000 S 
ATOM     27  C   UNL     1      51.325   5.082  17.860  0.00  0.00    +0.000 A 
ATOM     28  N   UNL     1      52.592   4.787  18.262  0.00  0.00    +0.000 NA
ATOM     29  C   UNL     1      53.512   5.460  17.658  0.00  0.00    +0.000 A 
ATOM     30  N   UNL     1      53.284   6.397  16.683  0.00  0.00    +0.000 N 
ATOM     31  C   UNL     1      52.025   6.700  16.221  0.00  0.00    +0.000 A 
ATOM     32  O   UNL     1      51.856   7.503  15.309  0.00  0.00    +0.000 OA
ATOM     33  C   UNL     1      50.950   5.984  16.882  0.00  0.00    +0.000 A 
ATOM     34  H   UNL     1      54.052   6.880  16.241  0.00  0.00    +0.000 HD
ENDBRANCH  21  24
ENDBRANCH  19  20
ENDBRANCH   4  19
TORSDOF 7
ENDMDL
MODEL 6
REMARK VINA RESULT:    -7.110      3.186      8.519
REMARK INTER + INTRA:         -11.258
REMARK INTER:                  -9.813
REMARK INTRA:                  -1.445
REMARK UNBOUND:                -1.238
REMARK  Name = 
REMARK  8 active torsions:
REMARK  status: ('A' for Active; 'I' for Inactive)
REMARK    1  A    between atoms: C_1  and  C_2
REMARK    2  A    between atoms: C_2  and  N_3
REMARK    3  A    between atoms: C_2  and  C_26
REMARK    4  A    between atoms: N_3  and  C_4
REMARK    5  A    between atoms: C_4  and  C_5
REMARK    6  A    between atoms: C_8  and  C_9
REMARK    7  A    between atoms: C_9  and  N_10
REMARK    8  A    between atoms: C_11  and  C_13
REMARK                            x       y       z     vdW  Elec       q    Type
REMARK                         _______ _______ _______ _____ _____    ______ ____
ROOT
ATOM      1  C   UNL     1      49.036   7.726  16.007  0.00  0.00    +0.000 A 
ATOM      2  N   UNL     1      48.859   6.572  15.302  0.00  0.00    +0.000 NA
ATOM      3  C   UNL     1      48.277   6.655  14.086  0.00  0.00    +0.000 A 
ATOM      4  C   UNL     1      47.842   7.842  13.511  0.00  0.00    +0.000 A 
ATOM      5  C   UNL     1      48.044   9.019  14.237  0.00  0.00    +0.000 A 
ATOM      6  C   UNL     1      48.645   8.967  15.498  0.00  0.00    +0.000 A 
ATOM      7 CL   UNL     1      48.890  10.447  16.348  0.00  0.00    +0.000 Cl
ENDROOT
BRANCH   1   8
ATOM      8  C   UNL     1      49.718   7.576  17.356  0.00  0.00    +0.000 C 
BRANCH   8   9
ATOM      9  N   UNL     1      48.808   7.138  18.423  0.00  0.00    +0.000 NA
ATOM     10  H   UNL     1      48.780   7.873  19.134  0.00  0.00    +0.000 HD
BRANCH   9  12
ATOM     11  C   UNL     1      50.776   5.926  19.407  0.00  0.00    +0.000 C 
ATOM     12  C   UNL     1      49.272   5.911  19.104  0.00  0.00    +0.000 C 
BRANCH  12  13
ATOM     13  C   UNL     1      48.924   4.679  18.267  0.00  0.00    +0.000 A 
ATOM     14  C   UNL     1      49.926   3.812  17.825  0.00  0.00    +0.000 A 
ATOM     15  C   UNL     1      49.577   2.706  17.057  0.00  0.00    +0.000 A 
ATOM     16  C   UNL     1      48.242   2.495  16.739  0.00  0.00    +0.000 A 
ATOM     17  C   UNL     1      47.309   3.406  17.204  0.00  0.00    +0.000 A 
ATOM     18  N   UNL     1      47.616   4.487  17.957  0.00  0.00    +0.000 NA
ENDBRANCH  12  13
ENDBRANCH   9  12
ENDBRANCH   8   9
ENDBRANCH   1   8
BRANCH   4  19
ATOM     19  C   UNL     1      47.251   7.851  12.133  0.00  0.00    +0.000 C 
BRANCH  19  20
ATOM     20  N   UNL     1      46.629   6.585  11.838  0.00  0.00    +0.000 N 
ATOM     21  C   UNL     1      45.269   6.472  11.704  0.00  0.00    +0.000 C 
ATOM     22  O   UNL     1      44.529   7.449  11.771  0.00  0.00    +0.000 OA
ATOM     23  H   UNL     1      47.178   5.746  12.000  0.00  0.00    +0.000 HD
BRANCH  21  24
ATOM     24  C   UNL     1      44.749   5.129  11.422  0.00  0.00    +0.000 A 
ATOM     25  C   UNL     1      44.004   4.465  12.388  0.00  0.00    +0.000 A 
ATOM     26  S   UNL     1      43.441   2.935  11.887  0.00  0.00    +0.000 S 
ATOM     27  C   UNL     1      44.213   3.084  10.378  0.00  0.00    +0.000 A 
ATOM     28  N   UNL     1      44.146   2.084   9.457  0.00  0.00    +0.000 NA
ATOM     29  C   UNL     1      44.799   2.318   8.369  0.00  0.00    +0.000 A 
ATOM     30  N   UNL     1      45.509   3.462   8.113  0.00  0.00    +0.000 N 
ATOM     31  C   UNL     1      45.574   4.512   8.999  0.00  0.00    +0.000 A 
ATOM     32  O   UNL     1      46.172   5.547   8.719  0.00  0.00    +0.000 OA
ATOM     33  C   UNL     1      44.871   4.293  10.249  0.00  0.00    +0.000 A 
ATOM     34  H   UNL     1      45.988   3.587   7.235  0.00  0.00    +0.000 HD
ENDBRANCH  21  24
ENDBRANCH  19  20
ENDBRANCH   4  19
TORSDOF 7
ENDMDL
MODEL 7
REMARK VINA RESULT:    -7.021      5.296      9.648
REMARK INTER + INTRA:         -11.132
REMARK INTER:                 -10.000
REMARK INTRA:                  -1.132
REMARK UNBOUND:                -1.238
REMARK  Name = 
REMARK  8 active torsions:
REMARK  status: ('A' for Active; 'I' for Inactive)
REMARK    1  A    between atoms: C_1  and  C_2
REMARK    2  A    between atoms: C_2  and  N_3
REMARK    3  A    between atoms: C_2  and  C_26
REMARK    4  A    between atoms: N_3  and  C_4
REMARK    5  A    between atoms: C_4  and  C_5
REMARK    6  A    between atoms: C_8  and  C_9
REMARK    7  A    between atoms: C_9  and  N_10
REMARK    8  A    between atoms: C_11  and  C_13
REMARK                            x       y       z     vdW  Elec       q    Type
REMARK                         _______ _______ _______ _____ _____    ______ ____
ROOT
ATOM      1  C   UNL     1      51.296   2.322  17.373  0.00  0.00    +0.000 A 
ATOM      2  N   UNL     1      49.949   2.173  17.222  0.00  0.00    +0.000 NA
ATOM      3  C   UNL     1      49.180   3.282  17.273  0.00  0.00    +0.000 A 
ATOM      4  C   UNL     1      49.675   4.564  17.475  0.00  0.00    +0.000 A 
ATOM      5  C   UNL     1      51.058   4.703  17.613  0.00  0.00    +0.000 A 
ATOM      6  C   UNL     1      51.882   3.576  17.563  0.00  0.00    +0.000 A 
ATOM      7 CL   UNL     1      53.584   3.800  17.719  0.00  0.00    +0.000 Cl
ENDROOT
BRANCH   1   8
ATOM      8  C   UNL     1      52.114   1.045  17.283  0.00  0.00    +0.000 C 
BRANCH   8   9
ATOM      9  N   UNL     1      52.793   0.697  18.539  0.00  0.00    +0.000 NA
ATOM     10  H   UNL     1      52.909   1.557  19.081  0.00  0.00    +0.000 HD
BRANCH   9  12
ATOM     11  C   UNL     1      54.705   0.452  16.928  0.00  0.00    +0.000 C 
ATOM     12  C   UNL     1      54.148   0.148  18.325  0.00  0.00    +0.000 C 
BRANCH  12  13
ATOM     13  C   UNL     1      54.148  -1.363  18.565  0.00  0.00    +0.000 A 
ATOM     14  C   UNL     1      54.861  -2.219  17.722  0.00  0.00    +0.000 A 
ATOM     15  C   UNL     1      54.833  -3.588  17.962  0.00  0.00    +0.000 A 
ATOM     16  C   UNL     1      54.089  -4.074  19.029  0.00  0.00    +0.000 A 
ATOM     17  C   UNL     1      53.400  -3.164  19.812  0.00  0.00    +0.000 A 
ATOM     18  N   UNL     1      53.413  -1.827  19.608  0.00  0.00    +0.000 NA
ENDBRANCH  12  13
ENDBRANCH   9  12
ENDBRANCH   8   9
ENDBRANCH   1   8
BRANCH   4  19
ATOM     19  C   UNL     1      48.754   5.747  17.467  0.00  0.00    +0.000 C 
BRANCH  19  20
ATOM     20  N   UNL     1      47.932   5.745  16.283  0.00  0.00    +0.000 N 
ATOM     21  C   UNL     1      48.400   6.229  15.089  0.00  0.00    +0.000 C 
ATOM     22  O   UNL     1      49.553   6.630  14.960  0.00  0.00    +0.000 OA
ATOM     23  H   UNL     1      46.930   5.636  16.411  0.00  0.00    +0.000 HD
BRANCH  21  24
ATOM     24  C   UNL     1      47.466   6.193  13.958  0.00  0.00    +0.000 A 
ATOM     25  C   UNL     1      47.131   7.372  13.306  0.00  0.00    +0.000 A 
ATOM     26  S   UNL     1      46.070   7.151  11.990  0.00  0.00    +0.000 S 
ATOM     27  C   UNL     1      45.980   5.476  12.274  0.00  0.00    +0.000 A 
ATOM     28  N   UNL     1      45.199   4.676  11.497  0.00  0.00    +0.000 NA
ATOM     29  C   UNL     1      45.202   3.432  11.840  0.00  0.00    +0.000 A 
ATOM     30  N   UNL     1      45.920   2.912  12.886  0.00  0.00    +0.000 N 
ATOM     31  C   UNL     1      46.748   3.675  13.674  0.00  0.00    +0.000 A 
ATOM     32  O   UNL     1      47.421   3.171  14.569  0.00  0.00    +0.000 OA
ATOM     33  C   UNL     1      46.767   5.087  13.342  0.00  0.00    +0.000 A 
ATOM     34  H   UNL     1      45.888   1.925  13.094  0.00  0.00    +0.000 HD
ENDBRANCH  21  24
ENDBRANCH  19  20
ENDBRANCH   4  19
TORSDOF 7
ENDMDL
MODEL 8
REMARK VINA RESULT:    -6.893      5.082      9.773
REMARK INTER + INTRA:         -10.952
REMARK INTER:                 -10.043
REMARK INTRA:                  -0.910
REMARK UNBOUND:                -1.238
REMARK  Name = 
REMARK  8 active torsions:
REMARK  status: ('A' for Active; 'I' for Inactive)
REMARK    1  A    between atoms: C_1  and  C_2
REMARK    2  A    between atoms: C_2  and  N_3
REMARK    3  A    between atoms: C_2  and  C_26
REMARK    4  A    between atoms: N_3  and  C_4
REMARK    5  A    between atoms: C_4  and  C_5
REMARK    6  A    between atoms: C_8  and  C_9
REMARK    7  A    between atoms: C_9  and  N_10
REMARK    8  A    between atoms: C_11  and  C_13
REMARK                            x       y       z     vdW  Elec       q    Type
REMARK                         _______ _______ _______ _____ _____    ______ ____
ROOT
ATOM      1  C   UNL     1      51.281   2.661  17.552  0.00  0.00    +0.000 A 
ATOM      2  N   UNL     1      50.528   1.779  16.833  0.00  0.00    +0.000 NA
ATOM      3  C   UNL     1      49.226   2.077  16.630  0.00  0.00    +0.000 A 
ATOM      4  C   UNL     1      48.604   3.221  17.112  0.00  0.00    +0.000 A 
ATOM      5  C   UNL     1      49.391   4.122  17.833  0.00  0.00    +0.000 A 
ATOM      6  C   UNL     1      50.742   3.845  18.060  0.00  0.00    +0.000 A 
ATOM      7 CL   UNL     1      51.676   4.997  18.939  0.00  0.00    +0.000 Cl
ENDROOT
BRANCH   1   8
ATOM      8  C   UNL     1      52.743   2.288  17.728  0.00  0.00    +0.000 C 
BRANCH   8   9
ATOM      9  N   UNL     1      52.939   1.038  18.474  0.00  0.00    +0.000 NA
ATOM     10  H   UNL     1      52.848   1.249  19.471  0.00  0.00    +0.000 HD
BRANCH   9  12
ATOM     11  C   UNL     1      54.923   0.851  16.944  0.00  0.00    +0.000 C 
ATOM     12  C   UNL     1      54.288   0.464  18.286  0.00  0.00    +0.000 C 
BRANCH  12  13
ATOM     13  C   UNL     1      54.236  -1.059  18.415  0.00  0.00    +0.000 A 
ATOM     14  C   UNL     1      54.913  -1.875  17.506  0.00  0.00    +0.000 A 
ATOM     15  C   UNL     1      54.838  -3.257  17.645  0.00  0.00    +0.000 A 
ATOM     16  C   UNL     1      54.084  -3.793  18.680  0.00  0.00    +0.000 A 
ATOM     17  C   UNL     1      53.432  -2.920  19.534  0.00  0.00    +0.000 A 
ATOM     18  N   UNL     1      53.491  -1.573  19.428  0.00  0.00    +0.000 NA
ENDBRANCH  12  13
ENDBRANCH   9  12
ENDBRANCH   8   9
ENDBRANCH   1   8
BRANCH   4  19
ATOM     19  C   UNL     1      47.165   3.497  16.797  0.00  0.00    +0.000 C 
BRANCH  19  20
ATOM     20  N   UNL     1      47.050   4.572  15.844  0.00  0.00    +0.000 N 
ATOM     21  C   UNL     1      47.101   4.339  14.494  0.00  0.00    +0.000 C 
ATOM     22  O   UNL     1      47.187   3.203  14.037  0.00  0.00    +0.000 OA
ATOM     23  H   UNL     1      47.204   5.517  16.186  0.00  0.00    +0.000 HD
BRANCH  21  24
ATOM     24  C   UNL     1      46.991   5.513  13.622  0.00  0.00    +0.000 A 
ATOM     25  C   UNL     1      48.107   6.310  13.401  0.00  0.00    +0.000 A 
ATOM     26  S   UNL     1      47.821   7.608  12.333  0.00  0.00    +0.000 S 
ATOM     27  C   UNL     1      46.182   7.182  12.166  0.00  0.00    +0.000 A 
ATOM     28  N   UNL     1      45.344   7.919  11.387  0.00  0.00    +0.000 NA
ATOM     29  C   UNL     1      44.124   7.499  11.372  0.00  0.00    +0.000 A 
ATOM     30  N   UNL     1      43.665   6.406  12.059  0.00  0.00    +0.000 N 
ATOM     31  C   UNL     1      44.482   5.612  12.829  0.00  0.00    +0.000 A 
ATOM     32  O   UNL     1      44.053   4.608  13.388  0.00  0.00    +0.000 OA
ATOM     33  C   UNL     1      45.863   6.051  12.895  0.00  0.00    +0.000 A 
ATOM     34  H   UNL     1      42.698   6.124  11.994  0.00  0.00    +0.000 HD
ENDBRANCH  21  24
ENDBRANCH  19  20
ENDBRANCH   4  19
TORSDOF 7
ENDMDL
MODEL 9
REMARK VINA RESULT:    -6.711      5.160      9.820
REMARK INTER + INTRA:         -10.696
REMARK INTER:                  -9.537
REMARK INTRA:                  -1.159
REMARK UNBOUND:                -1.238
REMARK  Name = 
REMARK  8 active torsions:
REMARK  status: ('A' for Active; 'I' for Inactive)
REMARK    1  A    between atoms: C_1  and  C_2
REMARK    2  A    between atoms: C_2  and  N_3
REMARK    3  A    between atoms: C_2  and  C_26
REMARK    4  A    between atoms: N_3  and  C_4
REMARK    5  A    between atoms: C_4  and  C_5
REMARK    6  A    between atoms: C_8  and  C_9
REMARK    7  A    between atoms: C_9  and  N_10
REMARK    8  A    between atoms: C_11  and  C_13
REMARK                            x       y       z     vdW  Elec       q    Type
REMARK                         _______ _______ _______ _____ _____    ______ ____
ROOT
ATOM      1  C   UNL     1      51.190   2.576  17.543  0.00  0.00    +0.000 A 
ATOM      2  N   UNL     1      50.411   1.733  16.807  0.00  0.00    +0.000 NA
ATOM      3  C   UNL     1      49.123   2.083  16.598  0.00  0.00    +0.000 A 
ATOM      4  C   UNL     1      48.541   3.243  17.092  0.00  0.00    +0.000 A 
ATOM      5  C   UNL     1      49.355   4.104  17.832  0.00  0.00    +0.000 A 
ATOM      6  C   UNL     1      50.693   3.773  18.064  0.00  0.00    +0.000 A 
ATOM      7 CL   UNL     1      51.663   4.876  18.967  0.00  0.00    +0.000 Cl
ENDROOT
BRANCH   1   8
ATOM      8  C   UNL     1      52.636   2.146  17.725  0.00  0.00    +0.000 C 
BRANCH   8   9
ATOM      9  N   UNL     1      52.775   0.798  18.294  0.00  0.00    +0.000 NA
ATOM     10  H   UNL     1      52.594   0.861  19.299  0.00  0.00    +0.000 HD
BRANCH   9  12
ATOM     11  C   UNL     1      54.684   0.375  16.716  0.00  0.00    +0.000 C 
ATOM     12  C   UNL     1      54.140   0.252  18.146  0.00  0.00    +0.000 C 
BRANCH  12  13
ATOM     13  C   UNL     1      54.173  -1.212  18.589  0.00  0.00    +0.000 A 
ATOM     14  C   UNL     1      55.228  -2.047  18.212  0.00  0.00    +0.000 A 
ATOM     15  C   UNL     1      55.223  -3.376  18.623  0.00  0.00    +0.000 A 
ATOM     16  C   UNL     1      54.165  -3.844  19.390  0.00  0.00    +0.000 A 
ATOM     17  C   UNL     1      53.152  -2.958  19.714  0.00  0.00    +0.000 A 
ATOM     18  N   UNL     1      53.131  -1.660  19.335  0.00  0.00    +0.000 NA
ENDBRANCH  12  13
ENDBRANCH   9  12
ENDBRANCH   8   9
ENDBRANCH   1   8
BRANCH   4  19
ATOM     19  C   UNL     1      47.115   3.578  16.770  0.00  0.00    +0.000 C 
BRANCH  19  20
ATOM     20  N   UNL     1      47.049   4.597  15.753  0.00  0.00    +0.000 N 
ATOM     21  C   UNL     1      47.098   4.279  14.420  0.00  0.00    +0.000 C 
ATOM     22  O   UNL     1      47.140   3.115  14.034  0.00  0.00    +0.000 OA
ATOM     23  H   UNL     1      47.240   5.554  16.037  0.00  0.00    +0.000 HD
BRANCH  21  24
ATOM     24  C   UNL     1      47.041   5.402  13.477  0.00  0.00    +0.000 A 
ATOM     25  C   UNL     1      46.078   5.409  12.476  0.00  0.00    +0.000 A 
ATOM     26  S   UNL     1      46.122   6.802  11.493  0.00  0.00    +0.000 S 
ATOM     27  C   UNL     1      47.462   7.423  12.338  0.00  0.00    +0.000 A 
ATOM     28  N   UNL     1      48.027   8.608  11.979  0.00  0.00    +0.000 NA
ATOM     29  C   UNL     1      49.052   8.946  12.686  0.00  0.00    +0.000 A 
ATOM     30  N   UNL     1      49.561   8.211  13.726  0.00  0.00    +0.000 N 
ATOM     31  C   UNL     1      49.001   7.028  14.147  0.00  0.00    +0.000 A 
ATOM     32  O   UNL     1      49.446   6.421  15.116  0.00  0.00    +0.000 OA
ATOM     33  C   UNL     1      47.855   6.592  13.371  0.00  0.00    +0.000 A 
ATOM     34  H   UNL     1      50.359   8.539  14.248  0.00  0.00    +0.000 HD
ENDBRANCH  21  24
ENDBRANCH  19  20
ENDBRANCH   4  19
TORSDOF 7
ENDMDL
