MODEL 1
REMARK VINA RESULT:    -7.620      0.000      0.000
REMARK INTER + INTRA:         -11.431
REMARK INTER:                 -10.515
REMARK INTRA:                  -0.916
REMARK UNBOUND:                -0.916
REMARK  Name = 
REMARK  7 active torsions:
REMARK  status: ('A' for Active; 'I' for Inactive)
REMARK    1  A    between atoms: N_1  and  C_2
REMARK    2  A    between atoms: C_2  and  C_3
REMARK    3  A    between atoms: C_7  and  O_8
REMARK    4  A    between atoms: O_8  and  C_9
REMARK    5  A    between atoms: C_9  and  C_10
REMARK    6  A    between atoms: C_10  and  C_11
REMARK    7  A    between atoms: C_15  and  C_16
REMARK                            x       y       z     vdW  Elec       q    Type
REMARK                         _______ _______ _______ _____ _____    ______ ____
ROOT
ATOM      1  C   UNL     1      43.257   4.156  11.306  0.00  0.00    +0.000 C 
ENDROOT
BRANCH   1   2
ATOM      2  O   UNL     1      43.661   4.306  12.673  0.00  0.00    +0.000 OA
BRANCH   2   7
ATOM      3  C   UNL     1      46.041   7.080  12.622  0.00  0.00    +0.000 A 
ATOM      4  C   UNL     1      47.170   6.497  13.213  0.00  0.00    +0.000 A 
ATOM      5  C   UNL     1      47.148   5.167  13.622  0.00  0.00    +0.000 A 
ATOM      6  C   UNL     1      45.993   4.402  13.452  0.00  0.00    +0.000 A 
ATOM      7  C   UNL     1      44.852   4.961  12.876  0.00  0.00    +0.000 A 
ATOM      8  C   UNL     1      44.884   6.300  12.458  0.00  0.00    +0.000 A 
BRANCH   3   9
ATOM      9  C   UNL     1      46.077   8.527  12.199  0.00  0.00    +0.000 C 
BRANCH   9  10
ATOM     10  N   UNL     1      44.976   9.287  12.784  0.00  0.00    +0.000 NA
ATOM     11  H   UNL     1      44.915  10.194  12.328  0.00  0.00    +0.000 HD
ATOM     12  H   UNL     1      45.188   9.467  13.764  0.00  0.00    +0.000 HD
ENDBRANCH   9  10
ENDBRANCH   3   9
ENDBRANCH   2   7
ENDBRANCH   1   2
BRANCH   1  13
ATOM     13  C   UNL     1      43.803   2.841  10.752  0.00  0.00    +0.000 C 
BRANCH  13  14
ATOM     14  C   UNL     1      44.779   3.069   9.620  0.00  0.00    +0.000 A 
ATOM     15  C   UNL     1      45.043   4.365   9.159  0.00  0.00    +0.000 A 
ATOM     16  C   UNL     1      45.923   4.577   8.095  0.00  0.00    +0.000 A 
ATOM     17  C   UNL     1      46.554   3.494   7.485  0.00  0.00    +0.000 A 
ATOM     18  C   UNL     1      46.312   2.194   7.939  0.00  0.00    +0.000 A 
ATOM     19  C   UNL     1      45.409   1.982   8.991  0.00  0.00    +0.000 A 
BRANCH  18  20
ATOM     20  C   UNL     1      47.029   1.074   7.273  0.00  0.00    +0.000 C 
ATOM     21  N   UNL     1      46.756  -0.193   7.709  0.00  0.00    +0.000 N 
ATOM     22  O   UNL     1      47.867   1.270   6.402  0.00  0.00    +0.000 OA
ATOM     23  H   UNL     1      46.277  -0.376   8.579  0.00  0.00    +0.000 HD
ATOM     24  H   UNL     1      47.349  -0.928   7.343  0.00  0.00    +0.000 HD
ENDBRANCH  18  20
ENDBRANCH  13  14
ENDBRANCH   1  13
TORSDOF 7
ENDMDL
MODEL 2
REMARK VINA RESULT:    -7.533      1.624      6.548
REMARK INTER + INTRA:         -11.312
REMARK INTER:                 -10.450
REMARK INTRA:                  -0.862
REMARK UNBOUND:                -0.916
REMARK  Name = 
REMARK  7 active torsions:
REMARK  status: ('A' for Active; 'I' for Inactive)
REMARK    1  A    between atoms: N_1  and  C_2
REMARK    2  A    between atoms: C_2  and  C_3
REMARK    3  A    between atoms: C_7  and  O_8
REMARK    4  A    between atoms: O_8  and  C_9
REMARK    5  A    between atoms: C_9  and  C_10
REMARK    6  A    between atoms: C_10  and  C_11
REMARK    7  A    between atoms: C_15  and  C_16
REMARK                            x       y       z     vdW  Elec       q    Type
REMARK                         _______ _______ _______ _____ _____    ______ ____
ROOT
ATOM      1  C   UNL     1      43.356   3.400  11.333  0.00  0.00    +0.000 C 
ENDROOT
BRANCH   1   2
ATOM      2  O   UNL     1      43.734   2.403  10.375  0.00  0.00    +0.000 OA
BRANCH   2   7
ATOM      3  C   UNL     1      46.368   2.050   7.865  0.00  0.00    +0.000 A 
ATOM      4  C   UNL     1      46.543   3.376   7.448  0.00  0.00    +0.000 A 
ATOM      5  C   UNL     1      45.790   4.402   8.013  0.00  0.00    +0.000 A 
ATOM      6  C   UNL     1      44.844   4.114   8.999  0.00  0.00    +0.000 A 
ATOM      7  C   UNL     1      44.643   2.800   9.424  0.00  0.00    +0.000 A 
ATOM      8  C   UNL     1      45.411   1.773   8.857  0.00  0.00    +0.000 A 
BRANCH   3   9
ATOM      9  C   UNL     1      47.182   0.949   7.231  0.00  0.00    +0.000 C 
BRANCH   9  10
ATOM     10  N   UNL     1      46.802  -0.364   7.744  0.00  0.00    +0.000 NA
ATOM     11  H   UNL     1      45.794  -0.392   7.879  0.00  0.00    +0.000 HD
ATOM     12  H   UNL     1      47.224  -0.491   8.662  0.00  0.00    +0.000 HD
ENDBRANCH   9  10
ENDBRANCH   3   9
ENDBRANCH   2   7
ENDBRANCH   1   2
BRANCH   1  13
ATOM     13  C   UNL     1      44.273   3.311  12.552  0.00  0.00    +0.000 C 
BRANCH  13  14
ATOM     14  C   UNL     1      45.137   4.543  12.698  0.00  0.00    +0.000 A 
ATOM     15  C   UNL     1      46.387   4.465  13.326  0.00  0.00    +0.000 A 
ATOM     16  C   UNL     1      47.177   5.605  13.487  0.00  0.00    +0.000 A 
ATOM     17  C   UNL     1      46.727   6.838  13.014  0.00  0.00    +0.000 A 
ATOM     18  C   UNL     1      45.487   6.934  12.374  0.00  0.00    +0.000 A 
ATOM     19  C   UNL     1      44.686   5.791  12.236  0.00  0.00    +0.000 A 
BRANCH  18  20
ATOM     20  C   UNL     1      45.063   8.265  11.865  0.00  0.00    +0.000 C 
ATOM     21  N   UNL     1      43.912   8.317  11.128  0.00  0.00    +0.000 N 
ATOM     22  O   UNL     1      45.734   9.272  12.050  0.00  0.00    +0.000 OA
ATOM     23  H   UNL     1      43.477   7.491  10.743  0.00  0.00    +0.000 HD
ATOM     24  H   UNL     1      43.711   9.201  10.677  0.00  0.00    +0.000 HD
ENDBRANCH  18  20
ENDBRANCH  13  14
ENDBRANCH   1  13
TORSDOF 7
ENDMDL
MODEL 3
REMARK VINA RESULT:    -7.502      2.315      6.427
REMARK INTER + INTRA:         -11.268
REMARK INTER:                 -10.635
REMARK INTRA:                  -0.633
REMARK UNBOUND:                -0.916
REMARK  Name = 
REMARK  7 active torsions:
REMARK  status: ('A' for Active; 'I' for Inactive)
REMARK    1  A    between atoms: N_1  and  C_2
REMARK    2  A    between atoms: C_2  and  C_3
REMARK    3  A    between atoms: C_7  and  O_8
REMARK    4  A    between atoms: O_8  and  C_9
REMARK    5  A    between atoms: C_9  and  C_10
REMARK    6  A    between atoms: C_10  and  C_11
REMARK    7  A    between atoms: C_15  and  C_16
REMARK                            x       y       z     vdW  Elec       q    Type
REMARK                         _______ _______ _______ _____ _____    ______ ____
ROOT
ATOM      1  C   UNL     1      43.752   4.304  10.477  0.00  0.00    +0.000 C 
ENDROOT
BRANCH   1   2
ATOM      2  O   UNL     1      44.185   4.396   9.113  0.00  0.00    +0.000 OA
BRANCH   2   7
ATOM      3  C   UNL     1      46.666   2.657   7.069  0.00  0.00    +0.000 A 
ATOM      4  C   UNL     1      46.580   1.350   7.568  0.00  0.00    +0.000 A 
ATOM      5  C   UNL     1      45.682   1.037   8.585  0.00  0.00    +0.000 A 
ATOM      6  C   UNL     1      44.860   2.030   9.122  0.00  0.00    +0.000 A 
ATOM      7  C   UNL     1      44.933   3.341   8.651  0.00  0.00    +0.000 A 
ATOM      8  C   UNL     1      45.835   3.647   7.621  0.00  0.00    +0.000 A 
BRANCH   3   9
ATOM      9  C   UNL     1      47.656   2.981   5.979  0.00  0.00    +0.000 C 
BRANCH   9  10
ATOM     10  N   UNL     1      48.566   1.866   5.730  0.00  0.00    +0.000 NA
ATOM     11  H   UNL     1      49.411   1.995   6.280  0.00  0.00    +0.000 HD
ATOM     12  H   UNL     1      48.848   1.888   4.751  0.00  0.00    +0.000 HD
ENDBRANCH   9  10
ENDBRANCH   3   9
ENDBRANCH   2   7
ENDBRANCH   1   2
BRANCH   1  13
ATOM     13  C   UNL     1      43.916   5.662  11.158  0.00  0.00    +0.000 C 
BRANCH  13  14
ATOM     14  C   UNL     1      45.250   5.783  11.860  0.00  0.00    +0.000 A 
ATOM     15  C   UNL     1      46.204   6.709  11.418  0.00  0.00    +0.000 A 
ATOM     16  C   UNL     1      47.448   6.804  12.046  0.00  0.00    +0.000 A 
ATOM     17  C   UNL     1      47.749   5.978  13.129  0.00  0.00    +0.000 A 
ATOM     18  C   UNL     1      46.804   5.056  13.591  0.00  0.00    +0.000 A 
ATOM     19  C   UNL     1      45.565   4.945  12.943  0.00  0.00    +0.000 A 
BRANCH  18  20
ATOM     20  C   UNL     1      47.162   4.215  14.765  0.00  0.00    +0.000 C 
ATOM     21  N   UNL     1      47.140   4.815  15.994  0.00  0.00    +0.000 N 
ATOM     22  O   UNL     1      47.510   3.048  14.643  0.00  0.00    +0.000 OA
ATOM     23  H   UNL     1      47.111   5.817  16.109  0.00  0.00    +0.000 HD
ATOM     24  H   UNL     1      47.516   4.271  16.761  0.00  0.00    +0.000 HD
ENDBRANCH  18  20
ENDBRANCH  13  14
ENDBRANCH   1  13
TORSDOF 7
ENDMDL
MODEL 4
REMARK VINA RESULT:    -7.366      2.050      6.426
REMARK INTER + INTRA:         -11.081
REMARK INTER:                 -10.286
REMARK INTRA:                  -0.795
REMARK UNBOUND:                -0.916
REMARK  Name = 
REMARK  7 active torsions:
REMARK  status: ('A' for Active; 'I' for Inactive)
REMARK    1  A    between atoms: N_1  and  C_2
REMARK    2  A    between atoms: C_2  and  C_3
REMARK    3  A    between atoms: C_7  and  O_8
REMARK    4  A    between atoms: O_8  and  C_9
REMARK    5  A    between atoms: C_9  and  C_10
REMARK    6  A    between atoms: C_10  and  C_11
REMARK    7  A    between atoms: C_15  and  C_16
REMARK                            x       y       z     vdW  Elec       q    Type
REMARK                         _______ _______ _______ _____ _____    ______ ____
ROOT
ATOM      1  C   UNL     1      43.354   3.511  11.313  0.00  0.00    +0.000 C 
ENDROOT
BRANCH   1   2
ATOM      2  O   UNL     1      43.800   2.508  10.392  0.00  0.00    +0.000 OA
BRANCH   2   7
ATOM      3  C   UNL     1      46.381   2.211   7.821  0.00  0.00    +0.000 A 
ATOM      4  C   UNL     1      46.563   3.549   7.445  0.00  0.00    +0.000 A 
ATOM      5  C   UNL     1      45.832   4.563   8.058  0.00  0.00    +0.000 A 
ATOM      6  C   UNL     1      44.902   4.252   9.052  0.00  0.00    +0.000 A 
ATOM      7  C   UNL     1      44.694   2.927   9.437  0.00  0.00    +0.000 A 
ATOM      8  C   UNL     1      45.440   1.911   8.821  0.00  0.00    +0.000 A 
BRANCH   3   9
ATOM      9  C   UNL     1      47.169   1.124   7.135  0.00  0.00    +0.000 C 
BRANCH   9  10
ATOM     10  N   UNL     1      48.298   1.669   6.385  0.00  0.00    +0.000 NA
ATOM     11  H   UNL     1      48.390   2.660   6.593  0.00  0.00    +0.000 HD
ATOM     12  H   UNL     1      48.094   1.597   5.390  0.00  0.00    +0.000 HD
ENDBRANCH   9  10
ENDBRANCH   3   9
ENDBRANCH   2   7
ENDBRANCH   1   2
BRANCH   1  13
ATOM     13  C   UNL     1      44.306   3.569  12.507  0.00  0.00    +0.000 C 
BRANCH  13  14
ATOM     14  C   UNL     1      44.973   4.920  12.631  0.00  0.00    +0.000 A 
ATOM     15  C   UNL     1      44.360   6.066  12.108  0.00  0.00    +0.000 A 
ATOM     16  C   UNL     1      44.985   7.312  12.196  0.00  0.00    +0.000 A 
ATOM     17  C   UNL     1      46.230   7.426  12.815  0.00  0.00    +0.000 A 
ATOM     18  C   UNL     1      46.852   6.294  13.353  0.00  0.00    +0.000 A 
ATOM     19  C   UNL     1      46.233   5.041  13.241  0.00  0.00    +0.000 A 
BRANCH  18  20
ATOM     20  C   UNL     1      48.167   6.472  14.026  0.00  0.00    +0.000 C 
ATOM     21  N   UNL     1      48.165   6.559  15.391  0.00  0.00    +0.000 N 
ATOM     22  O   UNL     1      49.208   6.584  13.392  0.00  0.00    +0.000 OA
ATOM     23  H   UNL     1      47.323   6.726  15.923  0.00  0.00    +0.000 HD
ATOM     24  H   UNL     1      49.045   6.815  15.822  0.00  0.00    +0.000 HD
ENDBRANCH  18  20
ENDBRANCH  13  14
ENDBRANCH   1  13
TORSDOF 7
ENDMDL
MODEL 5
REMARK VINA RESULT:    -6.886      1.138      1.740
REMARK INTER + INTRA:         -10.418
REMARK INTER:                  -9.566
REMARK INTRA:                  -0.852
REMARK UNBOUND:                -0.916
REMARK  Name = 
REMARK  7 active torsions:
REMARK  status: ('A' for Active; 'I' for Inactive)
REMARK    1  A    between atoms: N_1  and  C_2
REMARK    2  A    between atoms: C_2  and  C_3
REMARK    3  A    between atoms: C_7  and  O_8
REMARK    4  A    between atoms: O_8  and  C_9
REMARK    5  A    between atoms: C_9  and  C_10
REMARK    6  A    between atoms: C_10  and  C_11
REMARK    7  A    between atoms: C_15  and  C_16
REMARK                            x       y       z     vdW  Elec       q    Type
REMARK                         _______ _______ _______ _____ _____    ______ ____
ROOT
ATOM      1  C   UNL     1      44.657   2.706  11.897  0.00  0.00    +0.000 C 
ENDROOT
BRANCH   1   2
ATOM      2  O   UNL     1      44.470   3.725  12.886  0.00  0.00    +0.000 OA
BRANCH   2   7
ATOM      3  C   UNL     1      46.884   6.426  12.398  0.00  0.00    +0.000 A 
ATOM      4  C   UNL     1      46.068   7.450  11.900  0.00  0.00    +0.000 A 
ATOM      5  C   UNL     1      44.700   7.250  11.736  0.00  0.00    +0.000 A 
ATOM      6  C   UNL     1      44.130   6.017  12.060  0.00  0.00    +0.000 A 
ATOM      7  C   UNL     1      44.922   4.978  12.548  0.00  0.00    +0.000 A 
ATOM      8  C   UNL     1      46.298   5.189  12.719  0.00  0.00    +0.000 A 
BRANCH   3   9
ATOM      9  C   UNL     1      48.367   6.655  12.554  0.00  0.00    +0.000 C 
BRANCH   9  10
ATOM     10  N   UNL     1      48.684   8.078  12.644  0.00  0.00    +0.000 NA
ATOM     11  H   UNL     1      48.690   8.358  13.622  0.00  0.00    +0.000 HD
ATOM     12  H   UNL     1      47.941   8.608  12.193  0.00  0.00    +0.000 HD
ENDBRANCH   9  10
ENDBRANCH   3   9
ENDBRANCH   2   7
ENDBRANCH   1   2
BRANCH   1  13
ATOM     13  C   UNL     1      43.963   3.119  10.599  0.00  0.00    +0.000 C 
BRANCH  13  14
ATOM     14  C   UNL     1      44.941   3.239   9.452  0.00  0.00    +0.000 A 
ATOM     15  C   UNL     1      45.235   4.491   8.896  0.00  0.00    +0.000 A 
ATOM     16  C   UNL     1      46.116   4.604   7.818  0.00  0.00    +0.000 A 
ATOM     17  C   UNL     1      46.720   3.463   7.289  0.00  0.00    +0.000 A 
ATOM     18  C   UNL     1      46.447   2.206   7.838  0.00  0.00    +0.000 A 
ATOM     19  C   UNL     1      45.543   2.094   8.904  0.00  0.00    +0.000 A 
BRANCH  18  20
ATOM     20  C   UNL     1      47.136   1.023   7.255  0.00  0.00    +0.000 C 
ATOM     21  N   UNL     1      46.752  -0.210   7.703  0.00  0.00    +0.000 N 
ATOM     22  O   UNL     1      48.044   1.140   6.442  0.00  0.00    +0.000 OA
ATOM     23  H   UNL     1      46.201  -0.335   8.540  0.00  0.00    +0.000 HD
ATOM     24  H   UNL     1      47.320  -0.991   7.400  0.00  0.00    +0.000 HD
ENDBRANCH  18  20
ENDBRANCH  13  14
ENDBRANCH   1  13
TORSDOF 7
ENDMDL
MODEL 6
REMARK VINA RESULT:    -6.871      1.982      2.770
REMARK INTER + INTRA:         -10.398
REMARK INTER:                  -9.795
REMARK INTRA:                  -0.603
REMARK UNBOUND:                -0.916
REMARK  Name = 
REMARK  7 active torsions:
REMARK  status: ('A' for Active; 'I' for Inactive)
REMARK    1  A    between atoms: N_1  and  C_2
REMARK    2  A    between atoms: C_2  and  C_3
REMARK    3  A    between atoms: C_7  and  O_8
REMARK    4  A    between atoms: O_8  and  C_9
REMARK    5  A    between atoms: C_9  and  C_10
REMARK    6  A    between atoms: C_10  and  C_11
REMARK    7  A    between atoms: C_15  and  C_16
REMARK                            x       y       z     vdW  Elec       q    Type
REMARK                         _______ _______ _______ _____ _____    ______ ____
ROOT
ATOM      1  C   UNL     1      43.524   4.522  10.649  0.00  0.00    +0.000 C 
ENDROOT
BRANCH   1   2
ATOM      2  O   UNL     1      43.429   5.670  11.501  0.00  0.00    +0.000 OA
BRANCH   2   7
ATOM      3  C   UNL     1      46.432   5.543  13.581  0.00  0.00    +0.000 A 
ATOM      4  C   UNL     1      47.036   6.772  13.285  0.00  0.00    +0.000 A 
ATOM      5  C   UNL     1      46.436   7.660  12.396  0.00  0.00    +0.000 A 
ATOM      6  C   UNL     1      45.226   7.327  11.785  0.00  0.00    +0.000 A 
ATOM      7  C   UNL     1      44.610   6.104  12.054  0.00  0.00    +0.000 A 
ATOM      8  C   UNL     1      45.216   5.218  12.956  0.00  0.00    +0.000 A 
BRANCH   3   9
ATOM      9  C   UNL     1      47.105   4.586  14.533  0.00  0.00    +0.000 C 
BRANCH   9  10
ATOM     10  N   UNL     1      47.186   3.239  13.976  0.00  0.00    +0.000 NA
ATOM     11  H   UNL     1      46.545   3.163  13.190  0.00  0.00    +0.000 HD
ATOM     12  H   UNL     1      46.867   2.575  14.679  0.00  0.00    +0.000 HD
ENDBRANCH   9  10
ENDBRANCH   3   9
ENDBRANCH   2   7
ENDBRANCH   1   2
BRANCH   1  13
ATOM     13  C   UNL     1      44.365   4.865   9.420  0.00  0.00    +0.000 C 
BRANCH  13  14
ATOM     14  C   UNL     1      45.023   3.639   8.827  0.00  0.00    +0.000 A 
ATOM     15  C   UNL     1      44.757   2.367   9.349  0.00  0.00    +0.000 A 
ATOM     16  C   UNL     1      45.383   1.235   8.823  0.00  0.00    +0.000 A 
ATOM     17  C   UNL     1      46.280   1.364   7.762  0.00  0.00    +0.000 A 
ATOM     18  C   UNL     1      46.549   2.625   7.220  0.00  0.00    +0.000 A 
ATOM     19  C   UNL     1      45.937   3.762   7.767  0.00  0.00    +0.000 A 
BRANCH  18  20
ATOM     20  C   UNL     1      47.492   2.706   6.072  0.00  0.00    +0.000 C 
ATOM     21  N   UNL     1      48.826   2.585   6.348  0.00  0.00    +0.000 N 
ATOM     22  O   UNL     1      47.104   2.921   4.931  0.00  0.00    +0.000 OA
ATOM     23  H   UNL     1      49.196   2.664   7.284  0.00  0.00    +0.000 HD
ATOM     24  H   UNL     1      49.458   2.778   5.580  0.00  0.00    +0.000 HD
ENDBRANCH  18  20
ENDBRANCH  13  14
ENDBRANCH   1  13
TORSDOF 7
ENDMDL
MODEL 7
REMARK VINA RESULT:    -6.238      2.982      6.826
REMARK INTER + INTRA:          -9.524
REMARK INTER:                  -8.978
REMARK INTRA:                  -0.546
REMARK UNBOUND:                -0.916
REMARK  Name = 
REMARK  7 active torsions:
REMARK  status: ('A' for Active; 'I' for Inactive)
REMARK    1  A    between atoms: N_1  and  C_2
REMARK    2  A    between atoms: C_2  and  C_3
REMARK    3  A    between atoms: C_7  and  O_8
REMARK    4  A    between atoms: O_8  and  C_9
REMARK    5  A    between atoms: C_9  and  C_10
REMARK    6  A    between atoms: C_10  and  C_11
REMARK    7  A    between atoms: C_15  and  C_16
REMARK                            x       y       z     vdW  Elec       q    Type
REMARK                         _______ _______ _______ _____ _____    ______ ____
ROOT
ATOM      1  C   UNL     1      45.161   5.769  12.459  0.00  0.00    +0.000 C 
ENDROOT
BRANCH   1   2
ATOM      2  O   UNL     1      44.622   5.782  11.131  0.00  0.00    +0.000 OA
BRANCH   2   7
ATOM      3  C   UNL     1      45.324   3.399   8.451  0.00  0.00    +0.000 A 
ATOM      4  C   UNL     1      44.760   2.222   8.962  0.00  0.00    +0.000 A 
ATOM      5  C   UNL     1      44.128   2.220  10.202  0.00  0.00    +0.000 A 
ATOM      6  C   UNL     1      44.058   3.394  10.954  0.00  0.00    +0.000 A 
ATOM      7  C   UNL     1      44.621   4.577  10.473  0.00  0.00    +0.000 A 
ATOM      8  C   UNL     1      45.249   4.574   9.219  0.00  0.00    +0.000 A 
BRANCH   3   9
ATOM      9  C   UNL     1      46.019   3.379   7.113  0.00  0.00    +0.000 C 
BRANCH   9  10
ATOM     10  N   UNL     1      47.075   4.385   7.040  0.00  0.00    +0.000 NA
ATOM     11  H   UNL     1      47.918   3.958   6.665  0.00  0.00    +0.000 HD
ATOM     12  H   UNL     1      47.299   4.693   7.985  0.00  0.00    +0.000 HD
ENDBRANCH   9  10
ENDBRANCH   3   9
ENDBRANCH   2   7
ENDBRANCH   1   2
BRANCH   1  13
ATOM     13  C   UNL     1      46.673   5.978  12.400  0.00  0.00    +0.000 C 
BRANCH  13  14
ATOM     14  C   UNL     1      47.311   5.871  13.766  0.00  0.00    +0.000 A 
ATOM     15  C   UNL     1      48.128   6.900  14.253  0.00  0.00    +0.000 A 
ATOM     16  C   UNL     1      48.741   6.792  15.503  0.00  0.00    +0.000 A 
ATOM     17  C   UNL     1      48.538   5.655  16.285  0.00  0.00    +0.000 A 
ATOM     18  C   UNL     1      47.716   4.623  15.820  0.00  0.00    +0.000 A 
ATOM     19  C   UNL     1      47.122   4.723  14.554  0.00  0.00    +0.000 A 
BRANCH  18  20
ATOM     20  C   UNL     1      47.510   3.442  16.702  0.00  0.00    +0.000 C 
ATOM     21  N   UNL     1      48.505   2.506  16.738  0.00  0.00    +0.000 N 
ATOM     22  O   UNL     1      46.475   3.282  17.336  0.00  0.00    +0.000 OA
ATOM     23  H   UNL     1      49.244   2.472  16.050  0.00  0.00    +0.000 HD
ATOM     24  H   UNL     1      48.292   1.648  17.233  0.00  0.00    +0.000 HD
ENDBRANCH  18  20
ENDBRANCH  13  14
ENDBRANCH   1  13
TORSDOF 7
ENDMDL
MODEL 8
REMARK VINA RESULT:    -5.934      5.250      7.731
REMARK INTER + INTRA:          -9.104
REMARK INTER:                  -8.665
REMARK INTRA:                  -0.439
REMARK UNBOUND:                -0.916
REMARK  Name = 
REMARK  7 active torsions:
REMARK  status: ('A' for Active; 'I' for Inactive)
REMARK    1  A    between atoms: N_1  and  C_2
REMARK    2  A    between atoms: C_2  and  C_3
REMARK    3  A    between atoms: C_7  and  O_8
REMARK    4  A    between atoms: O_8  and  C_9
REMARK    5  A    between atoms: C_9  and  C_10
REMARK    6  A    between atoms: C_10  and  C_11
REMARK    7  A    between atoms: C_15  and  C_16
REMARK                            x       y       z     vdW  Elec       q    Type
REMARK                         _______ _______ _______ _____ _____    ______ ____
ROOT
ATOM      1  C   UNL     1      47.006   4.342  15.884  0.00  0.00    +0.000 C 
ENDROOT
BRANCH   1   2
ATOM      2  O   UNL     1      47.634   4.254  14.599  0.00  0.00    +0.000 OA
BRANCH   2   7
ATOM      3  C   UNL     1      45.134   5.703  12.361  0.00  0.00    +0.000 A 
ATOM      4  C   UNL     1      45.882   6.682  11.694  0.00  0.00    +0.000 A 
ATOM      5  C   UNL     1      47.234   6.857  11.979  0.00  0.00    +0.000 A 
ATOM      6  C   UNL     1      47.854   6.059  12.942  0.00  0.00    +0.000 A 
ATOM      7  C   UNL     1      47.130   5.084  13.628  0.00  0.00    +0.000 A 
ATOM      8  C   UNL     1      45.770   4.908  13.330  0.00  0.00    +0.000 A 
BRANCH   3   9
ATOM      9  C   UNL     1      43.667   5.538  12.052  0.00  0.00    +0.000 C 
BRANCH   9  10
ATOM     10  N   UNL     1      42.856   5.549  13.266  0.00  0.00    +0.000 NA
ATOM     11  H   UNL     1      43.241   6.226  13.919  0.00  0.00    +0.000 HD
ATOM     12  H   UNL     1      42.928   4.637  13.715  0.00  0.00    +0.000 HD
ENDBRANCH   9  10
ENDBRANCH   3   9
ENDBRANCH   2   7
ENDBRANCH   1   2
BRANCH   1  13
ATOM     13  C   UNL     1      47.534   3.230  16.790  0.00  0.00    +0.000 C 
BRANCH  13  14
ATOM     14  C   UNL     1      48.992   3.431  17.136  0.00  0.00    +0.000 A 
ATOM     15  C   UNL     1      49.497   4.717  17.371  0.00  0.00    +0.000 A 
ATOM     16  C   UNL     1      50.849   4.909  17.664  0.00  0.00    +0.000 A 
ATOM     17  C   UNL     1      51.711   3.814  17.733  0.00  0.00    +0.000 A 
ATOM     18  C   UNL     1      51.222   2.522  17.513  0.00  0.00    +0.000 A 
ATOM     19  C   UNL     1      49.869   2.335  17.194  0.00  0.00    +0.000 A 
BRANCH  18  20
ATOM     20  C   UNL     1      52.175   1.385  17.623  0.00  0.00    +0.000 C 
ATOM     21  N   UNL     1      51.687   0.203  18.107  0.00  0.00    +0.000 N 
ATOM     22  O   UNL     1      53.360   1.505  17.341  0.00  0.00    +0.000 OA
ATOM     23  H   UNL     1      50.799   0.137  18.583  0.00  0.00    +0.000 HD
ATOM     24  H   UNL     1      52.373  -0.515  18.303  0.00  0.00    +0.000 HD
ENDBRANCH  18  20
ENDBRANCH  13  14
ENDBRANCH   1  13
TORSDOF 7
ENDMDL
MODEL 9
REMARK VINA RESULT:    -5.904      4.429      6.183
REMARK INTER + INTRA:          -9.063
REMARK INTER:                  -8.592
REMARK INTRA:                  -0.471
REMARK UNBOUND:                -0.916
REMARK  Name = 
REMARK  7 active torsions:
REMARK  status: ('A' for Active; 'I' for Inactive)
REMARK    1  A    between atoms: N_1  and  C_2
REMARK    2  A    between atoms: C_2  and  C_3
REMARK    3  A    between atoms: C_7  and  O_8
REMARK    4  A    between atoms: O_8  and  C_9
REMARK    5  A    between atoms: C_9  and  C_10
REMARK    6  A    between atoms: C_10  and  C_11
REMARK    7  A    between atoms: C_15  and  C_16
REMARK                            x       y       z     vdW  Elec       q    Type
REMARK                         _______ _______ _______ _____ _____    ______ ____
ROOT
ATOM      1  C   UNL     1      47.126   3.560  14.913  0.00  0.00    +0.000 C 
ENDROOT
BRANCH   1   2
ATOM      2  O   UNL     1      47.054   3.609  16.343  0.00  0.00    +0.000 OA
BRANCH   2   7
ATOM      3  C   UNL     1      50.402   2.529  17.334  0.00  0.00    +0.000 A 
ATOM      4  C   UNL     1      50.782   3.550  18.215  0.00  0.00    +0.000 A 
ATOM      5  C   UNL     1      49.915   4.603  18.495  0.00  0.00    +0.000 A 
ATOM      6  C   UNL     1      48.657   4.653  17.890  0.00  0.00    +0.000 A 
ATOM      7  C   UNL     1      48.259   3.654  17.002  0.00  0.00    +0.000 A 
ATOM      8  C   UNL     1      49.135   2.592  16.731  0.00  0.00    +0.000 A 
BRANCH   3   9
ATOM      9  C   UNL     1      51.360   1.404  17.031  0.00  0.00    +0.000 C 
BRANCH   9  10
ATOM     10  N   UNL     1      51.443   0.455  18.137  0.00  0.00    +0.000 NA
ATOM     11  H   UNL     1      50.549   0.426  18.621  0.00  0.00    +0.000 HD
ATOM     12  H   UNL     1      52.128   0.795  18.810  0.00  0.00    +0.000 HD
ENDBRANCH   9  10
ENDBRANCH   3   9
ENDBRANCH   2   7
ENDBRANCH   1   2
BRANCH   1  13
ATOM     13  C   UNL     1      47.096   4.980  14.350  0.00  0.00    +0.000 C 
BRANCH  13  14
ATOM     14  C   UNL     1      46.378   5.045  13.021  0.00  0.00    +0.000 A 
ATOM     15  C   UNL     1      46.494   6.177  12.204  0.00  0.00    +0.000 A 
ATOM     16  C   UNL     1      45.810   6.252  10.988  0.00  0.00    +0.000 A 
ATOM     17  C   UNL     1      45.007   5.189  10.573  0.00  0.00    +0.000 A 
ATOM     18  C   UNL     1      44.889   4.046  11.369  0.00  0.00    +0.000 A 
ATOM     19  C   UNL     1      45.557   3.984  12.601  0.00  0.00    +0.000 A 
BRANCH  18  20
ATOM     20  C   UNL     1      44.042   2.930  10.870  0.00  0.00    +0.000 C 
ATOM     21  N   UNL     1      44.521   2.203   9.815  0.00  0.00    +0.000 N 
ATOM     22  O   UNL     1      42.939   2.692  11.345  0.00  0.00    +0.000 OA
ATOM     23  H   UNL     1      45.289   2.521   9.242  0.00  0.00    +0.000 HD
ATOM     24  H   UNL     1      43.877   1.540   9.403  0.00  0.00    +0.000 HD
ENDBRANCH  18  20
ENDBRANCH  13  14
ENDBRANCH   1  13
TORSDOF 7
ENDMDL
