MODEL 1
REMARK VINA RESULT:    -8.009      0.000      0.000
REMARK INTER + INTRA:         -11.580
REMARK INTER:                 -10.819
REMARK INTRA:                  -0.762
REMARK UNBOUND:                -0.762
REMARK  Name = 
REMARK  6 active torsions:
REMARK  status: ('A' for Active; 'I' for Inactive)
REMARK    1  A    between atoms: C_2  and  C_3
REMARK    2  A    between atoms: N_7  and  C_8
REMARK    3  A    between atoms: C_8  and  C_9
REMARK    4  A    between atoms: C_9  and  C_10
REMARK    5  A    between atoms: C_14  and  N_15
REMARK    6  A    between atoms: N_15  and  C_16
REMARK                            x       y       z     vdW  Elec       q    Type
REMARK                         _______ _______ _______ _____ _____    ______ ____
ROOT
ATOM      1  C   UNL     1      44.931   5.525  12.609  0.00  0.00    +0.000 A 
ATOM      2  C   UNL     1      45.855   6.393  12.016  0.00  0.00    +0.000 A 
ATOM      3  C   UNL     1      47.188   6.389  12.429  0.00  0.00    +0.000 A 
ATOM      4  C   UNL     1      47.618   5.508  13.427  0.00  0.00    +0.000 A 
ATOM      5  C   UNL     1      46.717   4.633  14.032  0.00  0.00    +0.000 A 
ATOM      6  C   UNL     1      45.374   4.654  13.616  0.00  0.00    +0.000 A 
ENDROOT
BRANCH   5   7
ATOM      7  N   UNL     1      47.085   3.733  15.056  0.00  0.00    +0.000 N 
ATOM      8  H   UNL     1      46.322   3.079  15.227  0.00  0.00    +0.000 HD
BRANCH   7   9
ATOM      9  C   UNL     1      47.838   4.047  16.242  0.00  0.00    +0.000 C 
ATOM     10  C   UNL     1      48.302   2.779  16.998  0.00  0.00    +0.000 C 
ATOM     11  N   UNL     1      47.920   3.425  18.273  0.00  0.00    +0.000 NA
ATOM     12  C   UNL     1      47.025   4.336  17.520  0.00  0.00    +0.000 C 
ATOM     13  H   UNL     1      48.700   3.905  18.724  0.00  0.00    +0.000 HD
ENDBRANCH   7   9
ENDBRANCH   5   7
BRANCH   1  14
ATOM     14  C   UNL     1      43.492   5.503  12.139  0.00  0.00    +0.000 C 
BRANCH  14  15
ATOM     15  C   UNL     1      43.394   5.150  10.652  0.00  0.00    +0.000 C 
BRANCH  15  20
ATOM     16  C   UNL     1      46.579   2.522   7.606  0.00  0.00    +0.000 A 
ATOM     17  C   UNL     1      46.320   3.885   7.712  0.00  0.00    +0.000 A 
ATOM     18  C   UNL     1      45.383   4.329   8.643  0.00  0.00    +0.000 A 
ATOM     19  C   UNL     1      44.715   3.413   9.452  0.00  0.00    +0.000 A 
ATOM     20  N   UNL     1      43.787   3.778  10.393  0.00  0.00    +0.000 N 
ATOM     21  N   UNL     1      44.959   2.089   9.352  0.00  0.00    +0.000 NA
ATOM     22  C   UNL     1      45.879   1.672   8.443  0.00  0.00    +0.000 A 
ATOM     23  H   UNL     1      43.355   3.003  10.878  0.00  0.00    +0.000 HD
BRANCH  16  25
ATOM     24  N   UNL     1      48.318   1.605   5.922  0.00  0.00    +0.000 NA
ATOM     25  C   UNL     1      47.533   2.021   6.671  0.00  0.00    +0.000 C 
ENDBRANCH  16  25
ENDBRANCH  15  20
ENDBRANCH  14  15
ENDBRANCH   1  14
TORSDOF 6
ENDMDL
MODEL 2
REMARK VINA RESULT:    -7.297      2.513      4.053
REMARK INTER + INTRA:         -10.619
REMARK INTER:                  -9.911
REMARK INTRA:                  -0.708
REMARK UNBOUND:                -0.762
REMARK  Name = 
REMARK  6 active torsions:
REMARK  status: ('A' for Active; 'I' for Inactive)
REMARK    1  A    between atoms: C_2  and  C_3
REMARK    2  A    between atoms: N_7  and  C_8
REMARK    3  A    between atoms: C_8  and  C_9
REMARK    4  A    between atoms: C_9  and  C_10
REMARK    5  A    between atoms: C_14  and  N_15
REMARK    6  A    between atoms: N_15  and  C_16
REMARK                            x       y       z     vdW  Elec       q    Type
REMARK                         _______ _______ _______ _____ _____    ______ ____
ROOT
ATOM      1  C   UNL     1      44.586   5.306  12.801  0.00  0.00    +0.000 A 
ATOM      2  C   UNL     1      45.381   4.223  13.194  0.00  0.00    +0.000 A 
ATOM      3  C   UNL     1      46.706   4.427  13.579  0.00  0.00    +0.000 A 
ATOM      4  C   UNL     1      47.250   5.715  13.592  0.00  0.00    +0.000 A 
ATOM      5  C   UNL     1      46.479   6.811  13.206  0.00  0.00    +0.000 A 
ATOM      6  C   UNL     1      45.148   6.592  12.810  0.00  0.00    +0.000 A 
ENDROOT
BRANCH   5   7
ATOM      7  N   UNL     1      46.975   8.133  13.182  0.00  0.00    +0.000 N 
ATOM      8  H   UNL     1      46.772   8.590  14.070  0.00  0.00    +0.000 HD
BRANCH   7   9
ATOM      9  C   UNL     1      46.949   9.036  12.061  0.00  0.00    +0.000 C 
ATOM     10  C   UNL     1      47.840  10.281  12.289  0.00  0.00    +0.000 C 
ATOM     11  N   UNL     1      46.767  11.126  11.719  0.00  0.00    +0.000 NA
ATOM     12  C   UNL     1      45.790  10.051  12.018  0.00  0.00    +0.000 C 
ATOM     13  H   UNL     1      46.886  11.299  10.720  0.00  0.00    +0.000 HD
ENDBRANCH   7   9
ENDBRANCH   5   7
BRANCH   1  14
ATOM     14  C   UNL     1      43.138   5.092  12.417  0.00  0.00    +0.000 C 
BRANCH  14  15
ATOM     15  C   UNL     1      43.014   4.297  11.115  0.00  0.00    +0.000 C 
BRANCH  15  20
ATOM     16  C   UNL     1      46.474   2.671   7.691  0.00  0.00    +0.000 A 
ATOM     17  C   UNL     1      45.739   1.987   8.655  0.00  0.00    +0.000 A 
ATOM     18  C   UNL     1      44.856   2.697   9.467  0.00  0.00    +0.000 A 
ATOM     19  C   UNL     1      44.718   4.074   9.312  0.00  0.00    +0.000 A 
ATOM     20  N   UNL     1      43.864   4.834  10.069  0.00  0.00    +0.000 N 
ATOM     21  N   UNL     1      45.430   4.743   8.381  0.00  0.00    +0.000 NA
ATOM     22  C   UNL     1      46.283   4.037   7.593  0.00  0.00    +0.000 A 
ATOM     23  H   UNL     1      43.898   5.825   9.872  0.00  0.00    +0.000 HD
BRANCH  16  25
ATOM     24  N   UNL     1      48.136   1.424   6.148  0.00  0.00    +0.000 NA
ATOM     25  C   UNL     1      47.386   1.987   6.834  0.00  0.00    +0.000 C 
ENDBRANCH  16  25
ENDBRANCH  15  20
ENDBRANCH  14  15
ENDBRANCH   1  14
TORSDOF 6
ENDMDL
MODEL 3
REMARK VINA RESULT:    -6.997      1.569      7.995
REMARK INTER + INTRA:         -10.213
REMARK INTER:                 -10.038
REMARK INTRA:                  -0.176
REMARK UNBOUND:                -0.762
REMARK  Name = 
REMARK  6 active torsions:
REMARK  status: ('A' for Active; 'I' for Inactive)
REMARK    1  A    between atoms: C_2  and  C_3
REMARK    2  A    between atoms: N_7  and  C_8
REMARK    3  A    between atoms: C_8  and  C_9
REMARK    4  A    between atoms: C_9  and  C_10
REMARK    5  A    between atoms: C_14  and  N_15
REMARK    6  A    between atoms: N_15  and  C_16
REMARK                            x       y       z     vdW  Elec       q    Type
REMARK                         _______ _______ _______ _____ _____    ______ ____
ROOT
ATOM      1  C   UNL     1      45.060   5.068  10.445  0.00  0.00    +0.000 A 
ATOM      2  C   UNL     1      44.278   4.119  11.114  0.00  0.00    +0.000 A 
ATOM      3  C   UNL     1      43.981   2.899  10.507  0.00  0.00    +0.000 A 
ATOM      4  C   UNL     1      44.473   2.604   9.231  0.00  0.00    +0.000 A 
ATOM      5  C   UNL     1      45.255   3.532   8.543  0.00  0.00    +0.000 A 
ATOM      6  C   UNL     1      45.538   4.763   9.161  0.00  0.00    +0.000 A 
ENDROOT
BRANCH   5   7
ATOM      7  N   UNL     1      45.766   3.301   7.248  0.00  0.00    +0.000 N 
ATOM      8  H   UNL     1      45.119   2.711   6.726  0.00  0.00    +0.000 HD
BRANCH   7   9
ATOM      9  C   UNL     1      47.144   3.075   6.900  0.00  0.00    +0.000 C 
ATOM     10  C   UNL     1      47.330   2.787   5.390  0.00  0.00    +0.000 C 
ATOM     11  N   UNL     1      48.277   1.703   5.736  0.00  0.00    +0.000 NA
ATOM     12  C   UNL     1      47.681   1.643   7.092  0.00  0.00    +0.000 C 
ATOM     13  H   UNL     1      49.250   2.011   5.734  0.00  0.00    +0.000 HD
ENDBRANCH   7   9
ENDBRANCH   5   7
BRANCH   1  14
ATOM     14  C   UNL     1      45.413   6.378  11.116  0.00  0.00    +0.000 C 
BRANCH  14  15
ATOM     15  C   UNL     1      46.649   6.236  12.009  0.00  0.00    +0.000 C 
BRANCH  15  20
ATOM     16  C   UNL     1      48.342   5.041  16.703  0.00  0.00    +0.000 A 
ATOM     17  C   UNL     1      48.635   6.111  15.863  0.00  0.00    +0.000 A 
ATOM     18  C   UNL     1      48.018   6.183  14.614  0.00  0.00    +0.000 A 
ATOM     19  C   UNL     1      47.125   5.190  14.219  0.00  0.00    +0.000 A 
ATOM     20  N   UNL     1      46.477   5.201  13.010  0.00  0.00    +0.000 N 
ATOM     21  N   UNL     1      46.840   4.149  15.028  0.00  0.00    +0.000 NA
ATOM     22  C   UNL     1      47.444   4.095  16.244  0.00  0.00    +0.000 A 
ATOM     23  H   UNL     1      45.888   4.396  12.844  0.00  0.00    +0.000 HD
BRANCH  16  25
ATOM     24  N   UNL     1      49.447   4.844  19.036  0.00  0.00    +0.000 NA
ATOM     25  C   UNL     1      48.944   4.928  17.991  0.00  0.00    +0.000 C 
ENDBRANCH  16  25
ENDBRANCH  15  20
ENDBRANCH  14  15
ENDBRANCH   1  14
TORSDOF 6
ENDMDL
MODEL 4
REMARK VINA RESULT:    -6.872      2.612      3.010
REMARK INTER + INTRA:         -10.045
REMARK INTER:                  -9.459
REMARK INTRA:                  -0.586
REMARK UNBOUND:                -0.762
REMARK  Name = 
REMARK  6 active torsions:
REMARK  status: ('A' for Active; 'I' for Inactive)
REMARK    1  A    between atoms: C_2  and  C_3
REMARK    2  A    between atoms: N_7  and  C_8
REMARK    3  A    between atoms: C_8  and  C_9
REMARK    4  A    between atoms: C_9  and  C_10
REMARK    5  A    between atoms: C_14  and  N_15
REMARK    6  A    between atoms: N_15  and  C_16
REMARK                            x       y       z     vdW  Elec       q    Type
REMARK                         _______ _______ _______ _____ _____    ______ ____
ROOT
ATOM      1  C   UNL     1      44.454   6.707  12.160  0.00  0.00    +0.000 A 
ATOM      2  C   UNL     1      44.069   7.724  11.279  0.00  0.00    +0.000 A 
ATOM      3  C   UNL     1      44.718   8.959  11.305  0.00  0.00    +0.000 A 
ATOM      4  C   UNL     1      45.768   9.188  12.199  0.00  0.00    +0.000 A 
ATOM      5  C   UNL     1      46.172   8.191  13.087  0.00  0.00    +0.000 A 
ATOM      6  C   UNL     1      45.503   6.955  13.059  0.00  0.00    +0.000 A 
ENDROOT
BRANCH   5   7
ATOM      7  N   UNL     1      47.213   8.368  14.023  0.00  0.00    +0.000 N 
ATOM      8  H   UNL     1      47.550   9.330  13.982  0.00  0.00    +0.000 HD
BRANCH   7   9
ATOM      9  C   UNL     1      48.247   7.419  14.342  0.00  0.00    +0.000 C 
ATOM     10  C   UNL     1      49.476   8.088  15.004  0.00  0.00    +0.000 C 
ATOM     11  N   UNL     1      50.359   7.258  14.153  0.00  0.00    +0.000 NA
ATOM     12  C   UNL     1      49.231   7.062  13.210  0.00  0.00    +0.000 C 
ATOM     13  H   UNL     1      50.657   6.397  14.613  0.00  0.00    +0.000 HD
ENDBRANCH   7   9
ENDBRANCH   5   7
BRANCH   1  14
ATOM     14  C   UNL     1      43.776   5.354  12.111  0.00  0.00    +0.000 C 
BRANCH  14  15
ATOM     15  C   UNL     1      43.421   4.957  10.675  0.00  0.00    +0.000 C 
BRANCH  15  20
ATOM     16  C   UNL     1      46.618   2.521   7.485  0.00  0.00    +0.000 A 
ATOM     17  C   UNL     1      46.322   3.872   7.639  0.00  0.00    +0.000 A 
ATOM     18  C   UNL     1      45.392   4.258   8.602  0.00  0.00    +0.000 A 
ATOM     19  C   UNL     1      44.767   3.298   9.395  0.00  0.00    +0.000 A 
ATOM     20  N   UNL     1      43.849   3.606  10.365  0.00  0.00    +0.000 N 
ATOM     21  N   UNL     1      45.047   1.986   9.248  0.00  0.00    +0.000 NA
ATOM     22  C   UNL     1      45.960   1.625   8.308  0.00  0.00    +0.000 A 
ATOM     23  H   UNL     1      43.450   2.804  10.834  0.00  0.00    +0.000 HD
BRANCH  16  25
ATOM     24  N   UNL     1      48.329   1.719   5.716  0.00  0.00    +0.000 NA
ATOM     25  C   UNL     1      47.567   2.078   6.517  0.00  0.00    +0.000 C 
ENDBRANCH  16  25
ENDBRANCH  15  20
ENDBRANCH  14  15
ENDBRANCH   1  14
TORSDOF 6
ENDMDL
MODEL 5
REMARK VINA RESULT:    -6.827      3.283      7.364
REMARK INTER + INTRA:          -9.984
REMARK INTER:                  -9.508
REMARK INTRA:                  -0.476
REMARK UNBOUND:                -0.762
REMARK  Name = 
REMARK  6 active torsions:
REMARK  status: ('A' for Active; 'I' for Inactive)
REMARK    1  A    between atoms: C_2  and  C_3
REMARK    2  A    between atoms: N_7  and  C_8
REMARK    3  A    between atoms: C_8  and  C_9
REMARK    4  A    between atoms: C_9  and  C_10
REMARK    5  A    between atoms: C_14  and  N_15
REMARK    6  A    between atoms: N_15  and  C_16
REMARK                            x       y       z     vdW  Elec       q    Type
REMARK                         _______ _______ _______ _____ _____    ______ ____
ROOT
ATOM      1  C   UNL     1      43.977   4.427  10.303  0.00  0.00    +0.000 A 
ATOM      2  C   UNL     1      43.753   3.209  10.955  0.00  0.00    +0.000 A 
ATOM      3  C   UNL     1      44.163   2.012  10.367  0.00  0.00    +0.000 A 
ATOM      4  C   UNL     1      44.815   2.017   9.130  0.00  0.00    +0.000 A 
ATOM      5  C   UNL     1      45.050   3.217   8.460  0.00  0.00    +0.000 A 
ATOM      6  C   UNL     1      44.623   4.416   9.057  0.00  0.00    +0.000 A 
ENDROOT
BRANCH   5   7
ATOM      7  N   UNL     1      45.687   3.286   7.202  0.00  0.00    +0.000 N 
ATOM      8  H   UNL     1      45.085   2.870   6.492  0.00  0.00    +0.000 HD
BRANCH   7   9
ATOM      9  C   UNL     1      47.089   3.092   6.941  0.00  0.00    +0.000 C 
ATOM     10  C   UNL     1      47.382   2.870   5.437  0.00  0.00    +0.000 C 
ATOM     11  N   UNL     1      48.319   1.783   5.802  0.00  0.00    +0.000 NA
ATOM     12  C   UNL     1      47.632   1.658   7.110  0.00  0.00    +0.000 C 
ATOM     13  H   UNL     1      49.285   2.102   5.880  0.00  0.00    +0.000 HD
ENDBRANCH   7   9
ENDBRANCH   5   7
BRANCH   1  14
ATOM     14  C   UNL     1      43.566   5.730  10.954  0.00  0.00    +0.000 C 
BRANCH  14  15
ATOM     15  C   UNL     1      44.001   5.786  12.421  0.00  0.00    +0.000 C 
BRANCH  15  20
ATOM     16  C   UNL     1      48.281   8.594  12.072  0.00  0.00    +0.000 A 
ATOM     17  C   UNL     1      47.991   7.301  11.650  0.00  0.00    +0.000 A 
ATOM     18  C   UNL     1      46.720   6.778  11.884  0.00  0.00    +0.000 A 
ATOM     19  C   UNL     1      45.758   7.547  12.536  0.00  0.00    +0.000 A 
ATOM     20  N   UNL     1      44.488   7.101  12.793  0.00  0.00    +0.000 N 
ATOM     21  N   UNL     1      46.035   8.801  12.951  0.00  0.00    +0.000 NA
ATOM     22  C   UNL     1      47.276   9.298  12.711  0.00  0.00    +0.000 A 
ATOM     23  H   UNL     1      43.911   7.752  13.308  0.00  0.00    +0.000 HD
BRANCH  16  25
ATOM     24  N   UNL     1      50.612   9.652  11.684  0.00  0.00    +0.000 NA
ATOM     25  C   UNL     1      49.566   9.173  11.850  0.00  0.00    +0.000 C 
ENDBRANCH  16  25
ENDBRANCH  15  20
ENDBRANCH  14  15
ENDBRANCH   1  14
TORSDOF 6
ENDMDL
MODEL 6
REMARK VINA RESULT:    -6.481      2.694      7.899
REMARK INTER + INTRA:          -9.516
REMARK INTER:                  -9.127
REMARK INTRA:                  -0.388
REMARK UNBOUND:                -0.762
REMARK  Name = 
REMARK  6 active torsions:
REMARK  status: ('A' for Active; 'I' for Inactive)
REMARK    1  A    between atoms: C_2  and  C_3
REMARK    2  A    between atoms: N_7  and  C_8
REMARK    3  A    between atoms: C_8  and  C_9
REMARK    4  A    between atoms: C_9  and  C_10
REMARK    5  A    between atoms: C_14  and  N_15
REMARK    6  A    between atoms: N_15  and  C_16
REMARK                            x       y       z     vdW  Elec       q    Type
REMARK                         _______ _______ _______ _____ _____    ______ ____
ROOT
ATOM      1  C   UNL     1      44.967   5.048  10.461  0.00  0.00    +0.000 A 
ATOM      2  C   UNL     1      44.226   4.063  11.124  0.00  0.00    +0.000 A 
ATOM      3  C   UNL     1      43.996   2.828  10.515  0.00  0.00    +0.000 A 
ATOM      4  C   UNL     1      44.516   2.557   9.245  0.00  0.00    +0.000 A 
ATOM      5  C   UNL     1      45.258   3.522   8.564  0.00  0.00    +0.000 A 
ATOM      6  C   UNL     1      45.474   4.766   9.183  0.00  0.00    +0.000 A 
ENDROOT
BRANCH   5   7
ATOM      7  N   UNL     1      45.794   3.315   7.275  0.00  0.00    +0.000 N 
ATOM      8  H   UNL     1      45.146   2.755   6.722  0.00  0.00    +0.000 HD
BRANCH   7   9
ATOM      9  C   UNL     1      47.174   3.067   6.952  0.00  0.00    +0.000 C 
ATOM     10  C   UNL     1      47.393   2.844   5.435  0.00  0.00    +0.000 C 
ATOM     11  N   UNL     1      48.301   1.719   5.754  0.00  0.00    +0.000 NA
ATOM     12  C   UNL     1      47.667   1.613   7.090  0.00  0.00    +0.000 C 
ATOM     13  H   UNL     1      49.281   2.000   5.791  0.00  0.00    +0.000 HD
ENDBRANCH   7   9
ENDBRANCH   5   7
BRANCH   1  14
ATOM     14  C   UNL     1      45.248   6.375  11.134  0.00  0.00    +0.000 C 
BRANCH  14  15
ATOM     15  C   UNL     1      45.115   6.272  12.656  0.00  0.00    +0.000 C 
BRANCH  15  20
ATOM     16  C   UNL     1      49.426   8.609  14.167  0.00  0.00    +0.000 A 
ATOM     17  C   UNL     1      48.281   9.099  13.546  0.00  0.00    +0.000 A 
ATOM     18  C   UNL     1      47.244   8.219  13.241  0.00  0.00    +0.000 A 
ATOM     19  C   UNL     1      47.361   6.867  13.553  0.00  0.00    +0.000 A 
ATOM     20  N   UNL     1      46.379   5.947  13.290  0.00  0.00    +0.000 N 
ATOM     21  N   UNL     1      48.470   6.385  14.152  0.00  0.00    +0.000 NA
ATOM     22  C   UNL     1      49.470   7.255  14.448  0.00  0.00    +0.000 A 
ATOM     23  H   UNL     1      46.618   4.996  13.536  0.00  0.00    +0.000 HD
BRANCH  16  25
ATOM     24  N   UNL     1      51.389  10.186  14.768  0.00  0.00    +0.000 NA
ATOM     25  C   UNL     1      50.511   9.471  14.503  0.00  0.00    +0.000 C 
ENDBRANCH  16  25
ENDBRANCH  15  20
ENDBRANCH  14  15
ENDBRANCH   1  14
TORSDOF 6
ENDMDL
MODEL 7
REMARK VINA RESULT:    -6.395      1.471      7.974
REMARK INTER + INTRA:          -9.400
REMARK INTER:                  -9.118
REMARK INTRA:                  -0.282
REMARK UNBOUND:                -0.762
REMARK  Name = 
REMARK  6 active torsions:
REMARK  status: ('A' for Active; 'I' for Inactive)
REMARK    1  A    between atoms: C_2  and  C_3
REMARK    2  A    between atoms: N_7  and  C_8
REMARK    3  A    between atoms: C_8  and  C_9
REMARK    4  A    between atoms: C_9  and  C_10
REMARK    5  A    between atoms: C_14  and  N_15
REMARK    6  A    between atoms: N_15  and  C_16
REMARK                            x       y       z     vdW  Elec       q    Type
REMARK                         _______ _______ _______ _____ _____    ______ ____
ROOT
ATOM      1  C   UNL     1      45.194   5.918  12.117  0.00  0.00    +0.000 A 
ATOM      2  C   UNL     1      44.134   5.503  12.932  0.00  0.00    +0.000 A 
ATOM      3  C   UNL     1      43.083   4.759  12.393  0.00  0.00    +0.000 A 
ATOM      4  C   UNL     1      43.085   4.408  11.040  0.00  0.00    +0.000 A 
ATOM      5  C   UNL     1      44.129   4.809  10.207  0.00  0.00    +0.000 A 
ATOM      6  C   UNL     1      45.177   5.567  10.758  0.00  0.00    +0.000 A 
ENDROOT
BRANCH   5   7
ATOM      7  N   UNL     1      44.180   4.501   8.830  0.00  0.00    +0.000 N 
ATOM      8  H   UNL     1      43.410   4.965   8.348  0.00  0.00    +0.000 HD
BRANCH   7   9
ATOM      9  C   UNL     1      44.528   3.231   8.250  0.00  0.00    +0.000 C 
ATOM     10  C   UNL     1      45.020   2.215   9.309  0.00  0.00    +0.000 C 
ATOM     11  N   UNL     1      46.103   1.809   8.385  0.00  0.00    +0.000 NA
ATOM     12  C   UNL     1      45.952   3.101   7.673  0.00  0.00    +0.000 C 
ATOM     13  H   UNL     1      45.854   1.000   7.814  0.00  0.00    +0.000 HD
ENDBRANCH   7   9
ENDBRANCH   5   7
BRANCH   1  14
ATOM     14  C   UNL     1      46.352   6.694  12.706  0.00  0.00    +0.000 C 
BRANCH  14  15
ATOM     15  C   UNL     1      47.495   5.764  13.125  0.00  0.00    +0.000 C 
BRANCH  15  20
ATOM     16  C   UNL     1      48.153   4.618  18.083  0.00  0.00    +0.000 A 
ATOM     17  C   UNL     1      48.675   5.640  17.296  0.00  0.00    +0.000 A 
ATOM     18  C   UNL     1      48.321   5.710  15.950  0.00  0.00    +0.000 A 
ATOM     19  C   UNL     1      47.458   4.763  15.405  0.00  0.00    +0.000 A 
ATOM     20  N   UNL     1      47.061   4.774  14.093  0.00  0.00    +0.000 N 
ATOM     21  N   UNL     1      46.950   3.767  16.162  0.00  0.00    +0.000 NA
ATOM     22  C   UNL     1      47.300   3.715  17.474  0.00  0.00    +0.000 A 
ATOM     23  H   UNL     1      46.464   4.003  13.828  0.00  0.00    +0.000 HD
BRANCH  16  25
ATOM     24  N   UNL     1      48.765   4.425  20.591  0.00  0.00    +0.000 NA
ATOM     25  C   UNL     1      48.482   4.509  19.467  0.00  0.00    +0.000 C 
ENDBRANCH  16  25
ENDBRANCH  15  20
ENDBRANCH  14  15
ENDBRANCH   1  14
TORSDOF 6
ENDMDL
MODEL 8
REMARK VINA RESULT:    -5.714      3.021      4.939
REMARK INTER + INTRA:          -8.479
REMARK INTER:                  -7.726
REMARK INTRA:                  -0.753
REMARK UNBOUND:                -0.762
REMARK  Name = 
REMARK  6 active torsions:
REMARK  status: ('A' for Active; 'I' for Inactive)
REMARK    1  A    between atoms: C_2  and  C_3
REMARK    2  A    between atoms: N_7  and  C_8
REMARK    3  A    between atoms: C_8  and  C_9
REMARK    4  A    between atoms: C_9  and  C_10
REMARK    5  A    between atoms: C_14  and  N_15
REMARK    6  A    between atoms: N_15  and  C_16
REMARK                            x       y       z     vdW  Elec       q    Type
REMARK                         _______ _______ _______ _____ _____    ______ ____
ROOT
ATOM      1  C   UNL     1      48.635   8.200  15.386  0.00  0.00    +0.000 A 
ATOM      2  C   UNL     1      48.247   9.131  16.356  0.00  0.00    +0.000 A 
ATOM      3  C   UNL     1      48.193   8.764  17.701  0.00  0.00    +0.000 A 
ATOM      4  C   UNL     1      48.541   7.468  18.096  0.00  0.00    +0.000 A 
ATOM      5  C   UNL     1      48.932   6.522  17.150  0.00  0.00    +0.000 A 
ATOM      6  C   UNL     1      48.971   6.900  15.796  0.00  0.00    +0.000 A 
ENDROOT
BRANCH   5   7
ATOM      7  N   UNL     1      49.278   5.195  17.484  0.00  0.00    +0.000 N 
ATOM      8  H   UNL     1      50.292   5.088  17.452  0.00  0.00    +0.000 HD
BRANCH   7   9
ATOM      9  C   UNL     1      48.572   4.002  17.095  0.00  0.00    +0.000 C 
ATOM     10  C   UNL     1      47.051   4.246  16.933  0.00  0.00    +0.000 C 
ATOM     11  N   UNL     1      46.794   2.970  17.638  0.00  0.00    +0.000 NA
ATOM     12  C   UNL     1      48.152   3.046  18.230  0.00  0.00    +0.000 C 
ATOM     13  H   UNL     1      46.674   2.182  17.001  0.00  0.00    +0.000 HD
ENDBRANCH   7   9
ENDBRANCH   5   7
BRANCH   1  14
ATOM     14  C   UNL     1      48.728   8.605  13.931  0.00  0.00    +0.000 C 
BRANCH  14  15
ATOM     15  C   UNL     1      48.850   7.383  13.015  0.00  0.00    +0.000 C 
BRANCH  15  20
ATOM     16  C   UNL     1      44.910   4.284  11.923  0.00  0.00    +0.000 A 
ATOM     17  C   UNL     1      45.908   4.200  12.889  0.00  0.00    +0.000 A 
ATOM     18  C   UNL     1      46.874   5.203  12.958  0.00  0.00    +0.000 A 
ATOM     19  C   UNL     1      46.835   6.271  12.065  0.00  0.00    +0.000 A 
ATOM     20  N   UNL     1      47.746   7.295  12.079  0.00  0.00    +0.000 N 
ATOM     21  N   UNL     1      45.872   6.356  11.124  0.00  0.00    +0.000 NA
ATOM     22  C   UNL     1      44.934   5.374  11.073  0.00  0.00    +0.000 A 
ATOM     23  H   UNL     1      47.617   7.981  11.347  0.00  0.00    +0.000 HD
BRANCH  16  25
ATOM     24  N   UNL     1      43.083   2.460  11.725  0.00  0.00    +0.000 NA
ATOM     25  C   UNL     1      43.897   3.284  11.818  0.00  0.00    +0.000 C 
ENDBRANCH  16  25
ENDBRANCH  15  20
ENDBRANCH  14  15
ENDBRANCH   1  14
TORSDOF 6
ENDMDL
MODEL 9
REMARK VINA RESULT:    -5.522      3.253      8.111
REMARK INTER + INTRA:          -8.221
REMARK INTER:                  -7.353
REMARK INTRA:                  -0.867
REMARK UNBOUND:                -0.762
REMARK  Name = 
REMARK  6 active torsions:
REMARK  status: ('A' for Active; 'I' for Inactive)
REMARK    1  A    between atoms: C_2  and  C_3
REMARK    2  A    between atoms: N_7  and  C_8
REMARK    3  A    between atoms: C_8  and  C_9
REMARK    4  A    between atoms: C_9  and  C_10
REMARK    5  A    between atoms: C_14  and  N_15
REMARK    6  A    between atoms: N_15  and  C_16
REMARK                            x       y       z     vdW  Elec       q    Type
REMARK                         _______ _______ _______ _____ _____    ______ ____
ROOT
ATOM      1  C   UNL     1      47.950   7.991  11.999  0.00  0.00    +0.000 A 
ATOM      2  C   UNL     1      47.160   9.003  12.556  0.00  0.00    +0.000 A 
ATOM      3  C   UNL     1      45.822   8.758  12.869  0.00  0.00    +0.000 A 
ATOM      4  C   UNL     1      45.261   7.497  12.644  0.00  0.00    +0.000 A 
ATOM      5  C   UNL     1      46.028   6.472  12.091  0.00  0.00    +0.000 A 
ATOM      6  C   UNL     1      47.371   6.733  11.770  0.00  0.00    +0.000 A 
ENDROOT
BRANCH   5   7
ATOM      7  N   UNL     1      45.515   5.184  11.824  0.00  0.00    +0.000 N 
ATOM      8  H   UNL     1      46.135   4.696  11.178  0.00  0.00    +0.000 HD
BRANCH   7   9
ATOM      9  C   UNL     1      44.130   4.833  11.652  0.00  0.00    +0.000 C 
ATOM     10  C   UNL     1      43.712   3.632  12.535  0.00  0.00    +0.000 C 
ATOM     11  N   UNL     1      42.965   3.074  11.385  0.00  0.00    +0.000 NA
ATOM     12  C   UNL     1      43.795   3.898  10.473  0.00  0.00    +0.000 C 
ATOM     13  H   UNL     1      41.979   3.339  11.387  0.00  0.00    +0.000 HD
ENDBRANCH   7   9
ENDBRANCH   5   7
BRANCH   1  14
ATOM     14  C   UNL     1      49.411   8.243  11.692  0.00  0.00    +0.000 C 
BRANCH  14  15
ATOM     15  C   UNL     1      50.216   8.501  12.969  0.00  0.00    +0.000 C 
BRANCH  15  20
ATOM     16  C   UNL     1      48.605   7.266  17.682  0.00  0.00    +0.000 A 
ATOM     17  C   UNL     1      48.539   8.459  16.968  0.00  0.00    +0.000 A 
ATOM     18  C   UNL     1      49.071   8.512  15.681  0.00  0.00    +0.000 A 
ATOM     19  C   UNL     1      49.662   7.381  15.123  0.00  0.00    +0.000 A 
ATOM     20  N   UNL     1      50.198   7.358  13.862  0.00  0.00    +0.000 N 
ATOM     21  N   UNL     1      49.732   6.222  15.811  0.00  0.00    +0.000 NA
ATOM     22  C   UNL     1      49.204   6.185  17.063  0.00  0.00    +0.000 A 
ATOM     23  H   UNL     1      50.629   6.480  13.605  0.00  0.00    +0.000 HD
BRANCH  16  25
ATOM     24  N   UNL     1      47.648   7.079  20.080  0.00  0.00    +0.000 NA
ATOM     25  C   UNL     1      48.069   7.163  19.000  0.00  0.00    +0.000 C 
ENDBRANCH  16  25
ENDBRANCH  15  20
ENDBRANCH  14  15
ENDBRANCH   1  14
TORSDOF 6
ENDMDL
