MODEL 1
REMARK VINA RESULT:    -6.716      0.000      0.000
REMARK INTER + INTRA:          -9.283
REMARK INTER:                  -8.679
REMARK INTRA:                  -0.605
REMARK UNBOUND:                -0.605
REMARK  Name = 
REMARK  6 active torsions:
REMARK  status: ('A' for Active; 'I' for Inactive)
REMARK    1  A    between atoms: N_1  and  C_2
REMARK    2  A    between atoms: C_2  and  C_3
REMARK    3  A    between atoms: C_6  and  C_7
REMARK    4  A    between atoms: C_7  and  N_8
REMARK    5  A    between atoms: C_14  and  C_15
REMARK    6  A    between atoms: C_15  and  O_17
REMARK                            x       y       z     vdW  Elec       q    Type
REMARK                         _______ _______ _______ _____ _____    ______ ____
ROOT
ATOM      1  N   UNL     1      44.182   4.927  11.365  0.00  0.00    +0.000 N 
ATOM      2  C   UNL     1      43.406   4.214  12.239  0.00  0.00    +0.000 A 
ATOM      3  C   UNL     1      43.293   2.928  11.759  0.00  0.00    +0.000 A 
ATOM      4  C   UNL     1      44.027   2.854  10.545  0.00  0.00    +0.000 A 
ATOM      5  C   UNL     1      44.226   1.837   9.586  0.00  0.00    +0.000 A 
ATOM      6  C   UNL     1      44.997   2.098   8.444  0.00  0.00    +0.000 A 
ATOM      7  C   UNL     1      45.624   3.340   8.289  0.00  0.00    +0.000 A 
ATOM      8  C   UNL     1      45.508   4.328   9.277  0.00  0.00    +0.000 A 
ATOM      9  C   UNL     1      44.647   4.095  10.362  0.00  0.00    +0.000 A 
ENDROOT
BRANCH   7  10
ATOM     10  C   UNL     1      46.416   3.677   7.079  0.00  0.00    +0.000 C 
ATOM     11  O   UNL     1      46.388   3.003   6.067  0.00  0.00    +0.000 OA
BRANCH  10  12
ATOM     12  O   UNL     1      47.230   4.740   7.226  0.00  0.00    +0.000 OA
ATOM     13  H   UNL     1      47.399   5.257   6.416  0.00  0.00    +0.000 HD
ENDBRANCH  10  12
ENDBRANCH   7  10
BRANCH   1  14
ATOM     14  C   UNL     1      44.408   6.366  11.471  0.00  0.00    +0.000 C 
BRANCH  14  18
ATOM     15  C   UNL     1      48.084   7.765  13.398  0.00  0.00    +0.000 C 
ATOM     16  C   UNL     1      46.862   8.692  13.466  0.00  0.00    +0.000 C 
ATOM     17  C   UNL     1      45.766   8.269  12.492  0.00  0.00    +0.000 C 
ATOM     18  C   UNL     1      45.320   6.803  12.644  0.00  0.00    +0.000 C 
ATOM     19  C   UNL     1      46.522   5.849  12.747  0.00  0.00    +0.000 C 
ATOM     20  C   UNL     1      47.613   6.337  13.711  0.00  0.00    +0.000 C 
BRANCH  15  21
ATOM     21  C   UNL     1      48.818   7.911  12.046  0.00  0.00    +0.000 C 
BRANCH  21  22
ATOM     22  N   UNL     1      50.148   7.312  12.063  0.00  0.00    +0.000 NA
ATOM     23  H   UNL     1      50.843   8.053  12.154  0.00  0.00    +0.000 HD
ATOM     24  H   UNL     1      50.340   6.866  11.167  0.00  0.00    +0.000 HD
ENDBRANCH  21  22
ENDBRANCH  15  21
ENDBRANCH  14  18
ENDBRANCH   1  14
TORSDOF 6
ENDMDL
MODEL 2
REMARK VINA RESULT:    -6.152      3.540      5.395
REMARK INTER + INTRA:          -8.555
REMARK INTER:                  -8.251
REMARK INTRA:                  -0.305
REMARK UNBOUND:                -0.605
REMARK  Name = 
REMARK  6 active torsions:
REMARK  status: ('A' for Active; 'I' for Inactive)
REMARK    1  A    between atoms: N_1  and  C_2
REMARK    2  A    between atoms: C_2  and  C_3
REMARK    3  A    between atoms: C_6  and  C_7
REMARK    4  A    between atoms: C_7  and  N_8
REMARK    5  A    between atoms: C_14  and  C_15
REMARK    6  A    between atoms: C_15  and  O_17
REMARK                            x       y       z     vdW  Elec       q    Type
REMARK                         _______ _______ _______ _____ _____    ______ ____
ROOT
ATOM      1  N   UNL     1      47.168   6.894  13.666  0.00  0.00    +0.000 N 
ATOM      2  C   UNL     1      47.195   8.258  13.546  0.00  0.00    +0.000 A 
ATOM      3  C   UNL     1      46.123   8.642  12.771  0.00  0.00    +0.000 A 
ATOM      4  C   UNL     1      45.416   7.467  12.401  0.00  0.00    +0.000 A 
ATOM      5  C   UNL     1      44.293   7.222  11.581  0.00  0.00    +0.000 A 
ATOM      6  C   UNL     1      43.850   5.907  11.381  0.00  0.00    +0.000 A 
ATOM      7  C   UNL     1      44.474   4.847  12.049  0.00  0.00    +0.000 A 
ATOM      8  C   UNL     1      45.533   5.085  12.937  0.00  0.00    +0.000 A 
ATOM      9  C   UNL     1      46.039   6.391  13.044  0.00  0.00    +0.000 A 
ENDROOT
BRANCH   7  10
ATOM     10  C   UNL     1      44.067   3.434  11.839  0.00  0.00    +0.000 C 
ATOM     11  O   UNL     1      43.066   3.124  11.223  0.00  0.00    +0.000 OA
BRANCH  10  12
ATOM     12  O   UNL     1      44.851   2.532  12.459  0.00  0.00    +0.000 OA
ATOM     13  H   UNL     1      45.483   2.057  11.886  0.00  0.00    +0.000 HD
ENDBRANCH  10  12
ENDBRANCH   7  10
BRANCH   1  14
ATOM     14  C   UNL     1      48.226   6.115  14.302  0.00  0.00    +0.000 C 
BRANCH  14  18
ATOM     15  C   UNL     1      48.606   3.524  17.814  0.00  0.00    +0.000 C 
ATOM     16  C   UNL     1      48.898   5.018  18.010  0.00  0.00    +0.000 C 
ATOM     17  C   UNL     1      49.067   5.751  16.683  0.00  0.00    +0.000 C 
ATOM     18  C   UNL     1      47.884   5.573  15.712  0.00  0.00    +0.000 C 
ATOM     19  C   UNL     1      47.447   4.103  15.609  0.00  0.00    +0.000 C 
ATOM     20  C   UNL     1      47.329   3.399  16.969  0.00  0.00    +0.000 C 
BRANCH  15  21
ATOM     21  C   UNL     1      49.832   2.791  17.223  0.00  0.00    +0.000 C 
BRANCH  21  22
ATOM     22  N   UNL     1      49.459   1.781  16.237  0.00  0.00    +0.000 NA
ATOM     23  H   UNL     1      49.136   0.946  16.726  0.00  0.00    +0.000 HD
ATOM     24  H   UNL     1      50.282   1.490  15.713  0.00  0.00    +0.000 HD
ENDBRANCH  21  22
ENDBRANCH  15  21
ENDBRANCH  14  18
ENDBRANCH   1  14
TORSDOF 6
ENDMDL
MODEL 3
REMARK VINA RESULT:    -6.065      4.003      7.542
REMARK INTER + INTRA:          -8.443
REMARK INTER:                  -7.766
REMARK INTRA:                  -0.677
REMARK UNBOUND:                -0.605
REMARK  Name = 
REMARK  6 active torsions:
REMARK  status: ('A' for Active; 'I' for Inactive)
REMARK    1  A    between atoms: N_1  and  C_2
REMARK    2  A    between atoms: C_2  and  C_3
REMARK    3  A    between atoms: C_6  and  C_7
REMARK    4  A    between atoms: C_7  and  N_8
REMARK    5  A    between atoms: C_14  and  C_15
REMARK    6  A    between atoms: C_15  and  O_17
REMARK                            x       y       z     vdW  Elec       q    Type
REMARK                         _______ _______ _______ _____ _____    ______ ____
ROOT
ATOM      1  N   UNL     1      47.863   6.675  13.620  0.00  0.00    +0.000 N 
ATOM      2  C   UNL     1      48.299   7.964  13.463  0.00  0.00    +0.000 A 
ATOM      3  C   UNL     1      48.795   8.397  14.673  0.00  0.00    +0.000 A 
ATOM      4  C   UNL     1      48.654   7.334  15.604  0.00  0.00    +0.000 A 
ATOM      5  C   UNL     1      48.921   7.204  16.984  0.00  0.00    +0.000 A 
ATOM      6  C   UNL     1      48.628   6.000  17.640  0.00  0.00    +0.000 A 
ATOM      7  C   UNL     1      48.140   4.906  16.915  0.00  0.00    +0.000 A 
ATOM      8  C   UNL     1      47.955   4.993  15.528  0.00  0.00    +0.000 A 
ATOM      9  C   UNL     1      48.147   6.235  14.901  0.00  0.00    +0.000 A 
ENDROOT
BRANCH   7  10
ATOM     10  C   UNL     1      47.777   3.624  17.571  0.00  0.00    +0.000 C 
ATOM     11  O   UNL     1      48.602   2.895  18.087  0.00  0.00    +0.000 OA
BRANCH  10  12
ATOM     12  O   UNL     1      46.475   3.297  17.470  0.00  0.00    +0.000 OA
ATOM     13  H   UNL     1      46.223   2.814  16.660  0.00  0.00    +0.000 HD
ENDBRANCH  10  12
ENDBRANCH   7  10
BRANCH   1  14
ATOM     14  C   UNL     1      47.147   5.930  12.588  0.00  0.00    +0.000 C 
BRANCH  14  18
ATOM     15  C   UNL     1      43.023   4.654  11.847  0.00  0.00    +0.000 C 
ATOM     16  C   UNL     1      43.528   4.586  13.295  0.00  0.00    +0.000 C 
ATOM     17  C   UNL     1      45.044   4.723  13.382  0.00  0.00    +0.000 C 
ATOM     18  C   UNL     1      45.603   5.983  12.693  0.00  0.00    +0.000 C 
ATOM     19  C   UNL     1      44.996   6.183  11.294  0.00  0.00    +0.000 C 
ATOM     20  C   UNL     1      43.473   5.997  11.252  0.00  0.00    +0.000 C 
BRANCH  15  21
ATOM     21  C   UNL     1      43.480   3.417  11.040  0.00  0.00    +0.000 C 
BRANCH  21  22
ATOM     22  N   UNL     1      43.033   2.163  11.638  0.00  0.00    +0.000 NA
ATOM     23  H   UNL     1      42.064   2.268  11.941  0.00  0.00    +0.000 HD
ATOM     24  H   UNL     1      43.565   1.975  12.486  0.00  0.00    +0.000 HD
ENDBRANCH  21  22
ENDBRANCH  15  21
ENDBRANCH  14  18
ENDBRANCH   1  14
TORSDOF 6
ENDMDL
MODEL 4
REMARK VINA RESULT:    -5.968      1.453      2.074
REMARK INTER + INTRA:          -8.318
REMARK INTER:                  -7.963
REMARK INTRA:                  -0.355
REMARK UNBOUND:                -0.605
REMARK  Name = 
REMARK  6 active torsions:
REMARK  status: ('A' for Active; 'I' for Inactive)
REMARK    1  A    between atoms: N_1  and  C_2
REMARK    2  A    between atoms: C_2  and  C_3
REMARK    3  A    between atoms: C_6  and  C_7
REMARK    4  A    between atoms: C_7  and  N_8
REMARK    5  A    between atoms: C_14  and  C_15
REMARK    6  A    between atoms: C_15  and  O_17
REMARK                            x       y       z     vdW  Elec       q    Type
REMARK                         _______ _______ _______ _____ _____    ______ ____
ROOT
ATOM      1  N   UNL     1      44.504   6.110  11.637  0.00  0.00    +0.000 N 
ATOM      2  C   UNL     1      43.764   5.814  12.751  0.00  0.00    +0.000 A 
ATOM      3  C   UNL     1      43.419   4.482  12.695  0.00  0.00    +0.000 A 
ATOM      4  C   UNL     1      43.968   3.944  11.500  0.00  0.00    +0.000 A 
ATOM      5  C   UNL     1      43.901   2.677  10.881  0.00  0.00    +0.000 A 
ATOM      6  C   UNL     1      44.539   2.470   9.649  0.00  0.00    +0.000 A 
ATOM      7  C   UNL     1      45.300   3.493   9.071  0.00  0.00    +0.000 A 
ATOM      8  C   UNL     1      45.448   4.727   9.720  0.00  0.00    +0.000 A 
ATOM      9  C   UNL     1      44.716   4.961  10.896  0.00  0.00    +0.000 A 
ENDROOT
BRANCH   7  10
ATOM     10  C   UNL     1      45.960   3.334   7.751  0.00  0.00    +0.000 C 
ATOM     11  O   UNL     1      46.180   4.273   7.009  0.00  0.00    +0.000 OA
BRANCH  10  12
ATOM     12  O   UNL     1      46.217   2.058   7.407  0.00  0.00    +0.000 OA
ATOM     13  H   UNL     1      45.770   1.740   6.600  0.00  0.00    +0.000 HD
ENDBRANCH  10  12
ENDBRANCH   7  10
BRANCH   1  14
ATOM     14  C   UNL     1      44.930   7.460  11.281  0.00  0.00    +0.000 C 
BRANCH  14  18
ATOM     15  C   UNL     1      48.406   7.323  13.943  0.00  0.00    +0.000 C 
ATOM     16  C   UNL     1      48.640   6.970  12.467  0.00  0.00    +0.000 C 
ATOM     17  C   UNL     1      47.332   6.721  11.721  0.00  0.00    +0.000 C 
ATOM     18  C   UNL     1      46.318   7.876  11.829  0.00  0.00    +0.000 C 
ATOM     19  C   UNL     1      46.174   8.376  13.276  0.00  0.00    +0.000 C 
ATOM     20  C   UNL     1      47.516   8.574  13.995  0.00  0.00    +0.000 C 
BRANCH  15  21
ATOM     21  C   UNL     1      47.846   6.111  14.722  0.00  0.00    +0.000 C 
BRANCH  21  22
ATOM     22  N   UNL     1      48.209   6.139  16.135  0.00  0.00    +0.000 NA
ATOM     23  H   UNL     1      47.867   7.007  16.547  0.00  0.00    +0.000 HD
ATOM     24  H   UNL     1      49.222   6.171  16.232  0.00  0.00    +0.000 HD
ENDBRANCH  21  22
ENDBRANCH  15  21
ENDBRANCH  14  18
ENDBRANCH   1  14
TORSDOF 6
ENDMDL
MODEL 5
REMARK VINA RESULT:    -5.746      4.166      6.144
REMARK INTER + INTRA:          -8.030
REMARK INTER:                  -7.390
REMARK INTRA:                  -0.640
REMARK UNBOUND:                -0.605
REMARK  Name = 
REMARK  6 active torsions:
REMARK  status: ('A' for Active; 'I' for Inactive)
REMARK    1  A    between atoms: N_1  and  C_2
REMARK    2  A    between atoms: C_2  and  C_3
REMARK    3  A    between atoms: C_6  and  C_7
REMARK    4  A    between atoms: C_7  and  N_8
REMARK    5  A    between atoms: C_14  and  C_15
REMARK    6  A    between atoms: C_15  and  O_17
REMARK                            x       y       z     vdW  Elec       q    Type
REMARK                         _______ _______ _______ _____ _____    ______ ____
ROOT
ATOM      1  N   UNL     1      48.068   7.062  13.904  0.00  0.00    +0.000 N 
ATOM      2  C   UNL     1      48.968   7.637  13.047  0.00  0.00    +0.000 A 
ATOM      3  C   UNL     1      48.506   7.465  11.761  0.00  0.00    +0.000 A 
ATOM      4  C   UNL     1      47.277   6.756  11.835  0.00  0.00    +0.000 A 
ATOM      5  C   UNL     1      46.386   6.246  10.866  0.00  0.00    +0.000 A 
ATOM      6  C   UNL     1      45.245   5.539  11.273  0.00  0.00    +0.000 A 
ATOM      7  C   UNL     1      44.954   5.401  12.635  0.00  0.00    +0.000 A 
ATOM      8  C   UNL     1      45.783   5.979  13.606  0.00  0.00    +0.000 A 
ATOM      9  C   UNL     1      46.979   6.589  13.192  0.00  0.00    +0.000 A 
ENDROOT
BRANCH   7  10
ATOM     10  C   UNL     1      43.781   4.627  13.116  0.00  0.00    +0.000 C 
ATOM     11  O   UNL     1      43.784   3.414  13.200  0.00  0.00    +0.000 OA
BRANCH  10  12
ATOM     12  O   UNL     1      42.688   5.373  13.367  0.00  0.00    +0.000 OA
ATOM     13  H   UNL     1      42.616   5.724  14.275  0.00  0.00    +0.000 HD
ENDBRANCH  10  12
ENDBRANCH   7  10
BRANCH   1  14
ATOM     14  C   UNL     1      48.289   6.924  15.340  0.00  0.00    +0.000 C 
BRANCH  14  18
ATOM     15  C   UNL     1      49.329   3.726  18.147  0.00  0.00    +0.000 C 
ATOM     16  C   UNL     1      48.298   3.395  17.059  0.00  0.00    +0.000 C 
ATOM     17  C   UNL     1      47.768   4.648  16.369  0.00  0.00    +0.000 C 
ATOM     18  C   UNL     1      48.866   5.559  15.788  0.00  0.00    +0.000 C 
ATOM     19  C   UNL     1      50.009   5.785  16.792  0.00  0.00    +0.000 C 
ATOM     20  C   UNL     1      50.481   4.500  17.488  0.00  0.00    +0.000 C 
BRANCH  15  21
ATOM     21  C   UNL     1      48.667   4.461  19.334  0.00  0.00    +0.000 C 
BRANCH  21  22
ATOM     22  N   UNL     1      48.324   3.560  20.429  0.00  0.00    +0.000 NA
ATOM     23  H   UNL     1      48.513   2.600  20.139  0.00  0.00    +0.000 HD
ATOM     24  H   UNL     1      47.323   3.599  20.609  0.00  0.00    +0.000 HD
ENDBRANCH  21  22
ENDBRANCH  15  21
ENDBRANCH  14  18
ENDBRANCH   1  14
TORSDOF 6
ENDMDL
MODEL 6
REMARK VINA RESULT:    -5.476      3.555      6.894
REMARK INTER + INTRA:          -7.681
REMARK INTER:                  -7.064
REMARK INTRA:                  -0.617
REMARK UNBOUND:                -0.605
REMARK  Name = 
REMARK  6 active torsions:
REMARK  status: ('A' for Active; 'I' for Inactive)
REMARK    1  A    between atoms: N_1  and  C_2
REMARK    2  A    between atoms: C_2  and  C_3
REMARK    3  A    between atoms: C_6  and  C_7
REMARK    4  A    between atoms: C_7  and  N_8
REMARK    5  A    between atoms: C_14  and  C_15
REMARK    6  A    between atoms: C_15  and  O_17
REMARK                            x       y       z     vdW  Elec       q    Type
REMARK                         _______ _______ _______ _____ _____    ______ ____
ROOT
ATOM      1  N   UNL     1      47.318   4.724  15.120  0.00  0.00    +0.000 N 
ATOM      2  C   UNL     1      47.147   4.150  16.351  0.00  0.00    +0.000 A 
ATOM      3  C   UNL     1      48.027   4.746  17.227  0.00  0.00    +0.000 A 
ATOM      4  C   UNL     1      48.765   5.720  16.503  0.00  0.00    +0.000 A 
ATOM      5  C   UNL     1      49.828   6.587  16.839  0.00  0.00    +0.000 A 
ATOM      6  C   UNL     1      50.379   7.425  15.858  0.00  0.00    +0.000 A 
ATOM      7  C   UNL     1      49.831   7.453  14.570  0.00  0.00    +0.000 A 
ATOM      8  C   UNL     1      48.718   6.663  14.249  0.00  0.00    +0.000 A 
ATOM      9  C   UNL     1      48.245   5.749  15.204  0.00  0.00    +0.000 A 
ENDROOT
BRANCH   7  10
ATOM     10  C   UNL     1      50.405   8.294  13.489  0.00  0.00    +0.000 C 
ATOM     11  O   UNL     1      49.735   9.074  12.838  0.00  0.00    +0.000 OA
BRANCH  10  12
ATOM     12  O   UNL     1      51.705   8.057  13.232  0.00  0.00    +0.000 OA
ATOM     13  H   UNL     1      52.302   8.822  13.338  0.00  0.00    +0.000 HD
ENDBRANCH  10  12
ENDBRANCH   7  10
BRANCH   1  14
ATOM     14  C   UNL     1      46.656   4.254  13.907  0.00  0.00    +0.000 C 
BRANCH  14  18
ATOM     15  C   UNL     1      43.483   5.562  11.185  0.00  0.00    +0.000 C 
ATOM     16  C   UNL     1      43.074   5.221  12.625  0.00  0.00    +0.000 C 
ATOM     17  C   UNL     1      44.170   4.467  13.370  0.00  0.00    +0.000 C 
ATOM     18  C   UNL     1      45.536   5.180  13.369  0.00  0.00    +0.000 C 
ATOM     19  C   UNL     1      45.913   5.688  11.968  0.00  0.00    +0.000 C 
ATOM     20  C   UNL     1      44.765   6.405  11.244  0.00  0.00    +0.000 C 
BRANCH  15  21
ATOM     21  C   UNL     1      43.602   4.284  10.324  0.00  0.00    +0.000 C 
BRANCH  21  22
ATOM     22  N   UNL     1      43.883   4.578   8.922  0.00  0.00    +0.000 NA
ATOM     23  H   UNL     1      43.007   4.802   8.450  0.00  0.00    +0.000 HD
ATOM     24  H   UNL     1      44.238   3.744   8.458  0.00  0.00    +0.000 HD
ENDBRANCH  21  22
ENDBRANCH  15  21
ENDBRANCH  14  18
ENDBRANCH   1  14
TORSDOF 6
ENDMDL
MODEL 7
REMARK VINA RESULT:    -5.465      2.636      3.754
REMARK INTER + INTRA:          -7.667
REMARK INTER:                  -7.047
REMARK INTRA:                  -0.620
REMARK UNBOUND:                -0.605
REMARK  Name = 
REMARK  6 active torsions:
REMARK  status: ('A' for Active; 'I' for Inactive)
REMARK    1  A    between atoms: N_1  and  C_2
REMARK    2  A    between atoms: C_2  and  C_3
REMARK    3  A    between atoms: C_6  and  C_7
REMARK    4  A    between atoms: C_7  and  N_8
REMARK    5  A    between atoms: C_14  and  C_15
REMARK    6  A    between atoms: C_15  and  O_17
REMARK                            x       y       z     vdW  Elec       q    Type
REMARK                         _______ _______ _______ _____ _____    ______ ____
ROOT
ATOM      1  N   UNL     1      44.844   6.173  11.829  0.00  0.00    +0.000 N 
ATOM      2  C   UNL     1      44.028   5.910  12.897  0.00  0.00    +0.000 A 
ATOM      3  C   UNL     1      43.498   4.650  12.730  0.00  0.00    +0.000 A 
ATOM      4  C   UNL     1      44.009   4.124  11.514  0.00  0.00    +0.000 A 
ATOM      5  C   UNL     1      43.785   2.928  10.798  0.00  0.00    +0.000 A 
ATOM      6  C   UNL     1      44.434   2.718   9.572  0.00  0.00    +0.000 A 
ATOM      7  C   UNL     1      45.354   3.659   9.095  0.00  0.00    +0.000 A 
ATOM      8  C   UNL     1      45.653   4.808   9.839  0.00  0.00    +0.000 A 
ATOM      9  C   UNL     1      44.918   5.062  11.009  0.00  0.00    +0.000 A 
ENDROOT
BRANCH   7  10
ATOM     10  C   UNL     1      46.036   3.500   7.785  0.00  0.00    +0.000 C 
ATOM     11  O   UNL     1      46.391   4.448   7.110  0.00  0.00    +0.000 OA
BRANCH  10  12
ATOM     12  O   UNL     1      46.149   2.225   7.368  0.00  0.00    +0.000 OA
ATOM     13  H   UNL     1      45.695   2.013   6.530  0.00  0.00    +0.000 HD
ENDBRANCH  10  12
ENDBRANCH   7  10
BRANCH   1  14
ATOM     14  C   UNL     1      45.473   7.469  11.589  0.00  0.00    +0.000 C 
BRANCH  14  18
ATOM     15  C   UNL     1      43.510  11.189  10.365  0.00  0.00    +0.000 C 
ATOM     16  C   UNL     1      42.615   9.959  10.569  0.00  0.00    +0.000 C 
ATOM     17  C   UNL     1      43.423   8.668  10.657  0.00  0.00    +0.000 C 
ATOM     18  C   UNL     1      44.531   8.691  11.727  0.00  0.00    +0.000 C 
ATOM     19  C   UNL     1      45.354   9.988  11.666  0.00  0.00    +0.000 C 
ATOM     20  C   UNL     1      44.498  11.256  11.540  0.00  0.00    +0.000 C 
BRANCH  15  21
ATOM     21  C   UNL     1      44.180  11.163   8.973  0.00  0.00    +0.000 C 
BRANCH  21  22
ATOM     22  N   UNL     1      43.223  10.934   7.895  0.00  0.00    +0.000 NA
ATOM     23  H   UNL     1      42.861  11.833   7.578  0.00  0.00    +0.000 HD
ATOM     24  H   UNL     1      42.416  10.424   8.251  0.00  0.00    +0.000 HD
ENDBRANCH  21  22
ENDBRANCH  15  21
ENDBRANCH  14  18
ENDBRANCH   1  14
TORSDOF 6
ENDMDL
MODEL 8
REMARK VINA RESULT:    -5.304      3.103      6.478
REMARK INTER + INTRA:          -7.459
REMARK INTER:                  -7.542
REMARK INTRA:                   0.084
REMARK UNBOUND:                -0.605
REMARK  Name = 
REMARK  6 active torsions:
REMARK  status: ('A' for Active; 'I' for Inactive)
REMARK    1  A    between atoms: N_1  and  C_2
REMARK    2  A    between atoms: C_2  and  C_3
REMARK    3  A    between atoms: C_6  and  C_7
REMARK    4  A    between atoms: C_7  and  N_8
REMARK    5  A    between atoms: C_14  and  C_15
REMARK    6  A    between atoms: C_15  and  O_17
REMARK                            x       y       z     vdW  Elec       q    Type
REMARK                         _______ _______ _______ _____ _____    ______ ____
ROOT
ATOM      1  N   UNL     1      46.722   7.540  12.747  0.00  0.00    +0.000 N 
ATOM      2  C   UNL     1      45.597   8.306  12.902  0.00  0.00    +0.000 A 
ATOM      3  C   UNL     1      45.889   9.584  12.479  0.00  0.00    +0.000 A 
ATOM      4  C   UNL     1      47.243   9.599  12.051  0.00  0.00    +0.000 A 
ATOM      5  C   UNL     1      48.107  10.612  11.582  0.00  0.00    +0.000 A 
ATOM      6  C   UNL     1      49.439  10.303  11.268  0.00  0.00    +0.000 A 
ATOM      7  C   UNL     1      49.890   8.980  11.352  0.00  0.00    +0.000 A 
ATOM      8  C   UNL     1      49.019   7.949  11.731  0.00  0.00    +0.000 A 
ATOM      9  C   UNL     1      47.720   8.286  12.148  0.00  0.00    +0.000 A 
ENDROOT
BRANCH   7  10
ATOM     10  C   UNL     1      51.301   8.610  11.070  0.00  0.00    +0.000 C 
ATOM     11  O   UNL     1      52.068   9.348  10.482  0.00  0.00    +0.000 OA
BRANCH  10  12
ATOM     12  O   UNL     1      51.632   7.359  11.442  0.00  0.00    +0.000 OA
ATOM     13  H   UNL     1      51.411   6.656  10.801  0.00  0.00    +0.000 HD
ENDBRANCH  10  12
ENDBRANCH   7  10
BRANCH   1  14
ATOM     14  C   UNL     1      46.835   6.162  13.219  0.00  0.00    +0.000 C 
BRANCH  14  18
ATOM     15  C   UNL     1      43.320   4.345  11.340  0.00  0.00    +0.000 C 
ATOM     16  C   UNL     1      44.430   4.853  10.407  0.00  0.00    +0.000 C 
ATOM     17  C   UNL     1      45.423   5.754  11.134  0.00  0.00    +0.000 C 
ATOM     18  C   UNL     1      46.047   5.118  12.390  0.00  0.00    +0.000 C 
ATOM     19  C   UNL     1      44.985   4.449  13.278  0.00  0.00    +0.000 C 
ATOM     20  C   UNL     1      43.986   3.584  12.496  0.00  0.00    +0.000 C 
BRANCH  15  21
ATOM     21  C   UNL     1      42.399   5.503  11.788  0.00  0.00    +0.000 C 
BRANCH  21  22
ATOM     22  N   UNL     1      42.568   6.701  10.972  0.00  0.00    +0.000 NA
ATOM     23  H   UNL     1      42.719   6.421  10.003  0.00  0.00    +0.000 HD
ATOM     24  H   UNL     1      43.416   7.192  11.250  0.00  0.00    +0.000 HD
ENDBRANCH  21  22
ENDBRANCH  15  21
ENDBRANCH  14  18
ENDBRANCH   1  14
TORSDOF 6
ENDMDL
MODEL 9
REMARK VINA RESULT:    -5.302      3.954      7.675
REMARK INTER + INTRA:          -7.456
REMARK INTER:                  -7.053
REMARK INTRA:                  -0.403
REMARK UNBOUND:                -0.605
REMARK  Name = 
REMARK  6 active torsions:
REMARK  status: ('A' for Active; 'I' for Inactive)
REMARK    1  A    between atoms: N_1  and  C_2
REMARK    2  A    between atoms: C_2  and  C_3
REMARK    3  A    between atoms: C_6  and  C_7
REMARK    4  A    between atoms: C_7  and  N_8
REMARK    5  A    between atoms: C_14  and  C_15
REMARK    6  A    between atoms: C_15  and  O_17
REMARK                            x       y       z     vdW  Elec       q    Type
REMARK                         _______ _______ _______ _____ _____    ______ ____
ROOT
ATOM      1  N   UNL     1      48.374   7.745  12.857  0.00  0.00    +0.000 N 
ATOM      2  C   UNL     1      49.229   8.395  12.007  0.00  0.00    +0.000 A 
ATOM      3  C   UNL     1      50.453   8.501  12.629  0.00  0.00    +0.000 A 
ATOM      4  C   UNL     1      50.341   7.895  13.909  0.00  0.00    +0.000 A 
ATOM      5  C   UNL     1      51.224   7.753  15.002  0.00  0.00    +0.000 A 
ATOM      6  C   UNL     1      50.786   7.118  16.173  0.00  0.00    +0.000 A 
ATOM      7  C   UNL     1      49.501   6.564  16.233  0.00  0.00    +0.000 A 
ATOM      8  C   UNL     1      48.646   6.619  15.123  0.00  0.00    +0.000 A 
ATOM      9  C   UNL     1      49.054   7.352  13.996  0.00  0.00    +0.000 A 
ENDROOT
BRANCH   7  10
ATOM     10  C   UNL     1      48.979   5.917  17.463  0.00  0.00    +0.000 C 
ATOM     11  O   UNL     1      49.702   5.381  18.281  0.00  0.00    +0.000 OA
BRANCH  10  12
ATOM     12  O   UNL     1      47.635   5.900  17.554  0.00  0.00    +0.000 OA
ATOM     13  H   UNL     1      47.257   5.158  18.063  0.00  0.00    +0.000 HD
ENDBRANCH  10  12
ENDBRANCH   7  10
BRANCH   1  14
ATOM     14  C   UNL     1      46.948   7.572  12.597  0.00  0.00    +0.000 C 
BRANCH  14  18
ATOM     15  C   UNL     1      44.201   4.304  11.617  0.00  0.00    +0.000 C 
ATOM     16  C   UNL     1      45.023   4.898  10.464  0.00  0.00    +0.000 C 
ATOM     17  C   UNL     1      45.674   6.223  10.845  0.00  0.00    +0.000 C 
ATOM     18  C   UNL     1      46.535   6.157  12.121  0.00  0.00    +0.000 C 
ATOM     19  C   UNL     1      45.811   5.420  13.260  0.00  0.00    +0.000 C 
ATOM     20  C   UNL     1      45.140   4.112  12.817  0.00  0.00    +0.000 C 
BRANCH  15  21
ATOM     21  C   UNL     1      42.957   5.171  11.916  0.00  0.00    +0.000 C 
BRANCH  21  22
ATOM     22  N   UNL     1      42.651   5.238  13.341  0.00  0.00    +0.000 NA
ATOM     23  H   UNL     1      41.863   5.870  13.480  0.00  0.00    +0.000 HD
ATOM     24  H   UNL     1      43.431   5.658  13.843  0.00  0.00    +0.000 HD
ENDBRANCH  21  22
ENDBRANCH  15  21
ENDBRANCH  14  18
ENDBRANCH   1  14
TORSDOF 6
ENDMDL
