MODEL 1
REMARK VINA RESULT:    -8.369      0.000      0.000
REMARK INTER + INTRA:         -12.145
REMARK INTER:                 -11.060
REMARK INTRA:                  -1.086
REMARK UNBOUND:                -1.086
REMARK  Name = 
REMARK  7 active torsions:
REMARK  status: ('A' for Active; 'I' for Inactive)
REMARK    1  A    between atoms: C_1  and  C_2
REMARK    2  A    between atoms: C_2  and  C_3
REMARK    3  A    between atoms: C_7  and  C_8
REMARK    4  A    between atoms: C_8  and  C_9
REMARK    5  A    between atoms: C_9  and  N_10
REMARK    6  A    between atoms: C_14  and  C_15
REMARK    7  A    between atoms: C_23  and  O_24
REMARK                            x       y       z     vdW  Elec       q    Type
REMARK                         _______ _______ _______ _____ _____    ______ ____
ROOT
ATOM      1  C   UNL     1      47.008   6.370  12.982  0.00  0.00    +0.000 A 
ATOM      2  C   UNL     1      47.533   5.242  13.622  0.00  0.00    +0.000 A 
ATOM      3  C   UNL     1      46.776   4.081  13.780  0.00  0.00    +0.000 A 
ATOM      4  C   UNL     1      45.459   4.029  13.324  0.00  0.00    +0.000 A 
ATOM      5  C   UNL     1      44.891   5.142  12.690  0.00  0.00    +0.000 A 
ATOM      6  C   UNL     1      45.702   6.273  12.494  0.00  0.00    +0.000 A 
ENDROOT
BRANCH   1   8
ATOM      7  C   UNL     1      46.740   8.819  12.779  0.00  0.00    +0.000 C 
ATOM      8  C   UNL     1      47.797   7.695  12.933  0.00  0.00    +0.000 C 
ATOM      9  C   UNL     1      48.601   7.879  14.246  0.00  0.00    +0.000 C 
ATOM     10  C   UNL     1      49.506   9.116  14.248  0.00  0.00    +0.000 C 
ATOM     11  C   UNL     1      50.437   9.174  13.041  0.00  0.00    +0.000 C 
ATOM     12  C   UNL     1      49.675   9.018  11.730  0.00  0.00    +0.000 C 
ATOM     13  C   UNL     1      48.785   7.776  11.728  0.00  0.00    +0.000 C 
BRANCH  11  14
ATOM     14  O   UNL     1      51.442   8.167  13.146  0.00  0.00    +0.000 OA
ATOM     15  H   UNL     1      52.066   8.263  12.409  0.00  0.00    +0.000 HD
ENDBRANCH  11  14
ENDBRANCH   1   8
BRANCH   5  16
ATOM     16  C   UNL     1      43.423   5.159  12.291  0.00  0.00    +0.000 C 
BRANCH  16  17
ATOM     17  C   UNL     1      43.130   4.381  10.996  0.00  0.00    +0.000 C 
BRANCH  17  18
ATOM     18  N   UNL     1      43.818   4.926   9.824  0.00  0.00    +0.000 N 
ATOM     19  C   UNL     1      44.639   3.938   9.224  0.00  0.00    +0.000 A 
ATOM     20  C   UNL     1      45.372   4.266   8.089  0.00  0.00    +0.000 A 
ATOM     21  C   UNL     1      46.165   3.296   7.483  0.00  0.00    +0.000 A 
ATOM     22  C   UNL     1      46.207   2.035   8.053  0.00  0.00    +0.000 A 
ATOM     23  N   UNL     1      45.498   1.722   9.159  0.00  0.00    +0.000 NA
ATOM     24  N   UNL     1      44.705   2.679   9.727  0.00  0.00    +0.000 NA
ATOM     25  H   UNL     1      44.404   5.721  10.065  0.00  0.00    +0.000 HD
BRANCH  22  26
ATOM     26  C   UNL     1      47.050   0.958   7.473  0.00  0.00    +0.000 C 
ATOM     27  N   UNL     1      46.642  -0.331   7.699  0.00  0.00    +0.000 N 
ATOM     28  O   UNL     1      48.067   1.202   6.830  0.00  0.00    +0.000 OA
ATOM     29  H   UNL     1      45.801  -0.524   8.235  0.00  0.00    +0.000 HD
ATOM     30  H   UNL     1      47.188  -1.090   7.329  0.00  0.00    +0.000 HD
ENDBRANCH  22  26
ENDBRANCH  17  18
ENDBRANCH  16  17
ENDBRANCH   5  16
TORSDOF 6
ENDMDL
MODEL 2
REMARK VINA RESULT:    -7.565      4.313      7.617
REMARK INTER + INTRA:         -11.083
REMARK INTER:                  -9.812
REMARK INTRA:                  -1.271
REMARK UNBOUND:                -1.086
REMARK  Name = 
REMARK  7 active torsions:
REMARK  status: ('A' for Active; 'I' for Inactive)
REMARK    1  A    between atoms: C_1  and  C_2
REMARK    2  A    between atoms: C_2  and  C_3
REMARK    3  A    between atoms: C_7  and  C_8
REMARK    4  A    between atoms: C_8  and  C_9
REMARK    5  A    between atoms: C_9  and  N_10
REMARK    6  A    between atoms: C_14  and  C_15
REMARK    7  A    between atoms: C_23  and  O_24
REMARK                            x       y       z     vdW  Elec       q    Type
REMARK                         _______ _______ _______ _____ _____    ______ ____
ROOT
ATOM      1  C   UNL     1      45.763   7.244  11.593  0.00  0.00    +0.000 A 
ATOM      2  C   UNL     1      44.891   8.323  11.771  0.00  0.00    +0.000 A 
ATOM      3  C   UNL     1      45.364   9.588  12.119  0.00  0.00    +0.000 A 
ATOM      4  C   UNL     1      46.727   9.800  12.326  0.00  0.00    +0.000 A 
ATOM      5  C   UNL     1      47.633   8.742  12.171  0.00  0.00    +0.000 A 
ATOM      6  C   UNL     1      47.128   7.497  11.761  0.00  0.00    +0.000 A 
ENDROOT
BRANCH   1   8
ATOM      7  C   UNL     1      45.653   5.443   9.904  0.00  0.00    +0.000 C 
ATOM      8  C   UNL     1      45.226   5.819  11.345  0.00  0.00    +0.000 C 
ATOM      9  C   UNL     1      45.847   4.837  12.373  0.00  0.00    +0.000 C 
ATOM     10  C   UNL     1      45.289   3.412  12.278  0.00  0.00    +0.000 C 
ATOM     11  C   UNL     1      43.766   3.362  12.349  0.00  0.00    +0.000 C 
ATOM     12  C   UNL     1      43.122   4.302  11.336  0.00  0.00    +0.000 C 
ATOM     13  C   UNL     1      43.672   5.724  11.443  0.00  0.00    +0.000 C 
BRANCH  11  14
ATOM     14  O   UNL     1      43.325   3.685  13.666  0.00  0.00    +0.000 OA
ATOM     15  H   UNL     1      42.783   2.954  14.007  0.00  0.00    +0.000 HD
ENDBRANCH  11  14
ENDBRANCH   1   8
BRANCH   5  16
ATOM     16  C   UNL     1      49.107   8.911  12.507  0.00  0.00    +0.000 C 
BRANCH  16  17
ATOM     17  C   UNL     1      49.715   7.694  13.227  0.00  0.00    +0.000 C 
BRANCH  17  18
ATOM     18  N   UNL     1      49.920   7.911  14.661  0.00  0.00    +0.000 N 
ATOM     19  C   UNL     1      49.291   6.887  15.414  0.00  0.00    +0.000 A 
ATOM     20  C   UNL     1      49.380   6.918  16.801  0.00  0.00    +0.000 A 
ATOM     21  C   UNL     1      48.783   5.906  17.547  0.00  0.00    +0.000 A 
ATOM     22  C   UNL     1      48.100   4.909  16.871  0.00  0.00    +0.000 A 
ATOM     23  N   UNL     1      48.012   4.887  15.523  0.00  0.00    +0.000 NA
ATOM     24  N   UNL     1      48.625   5.874  14.805  0.00  0.00    +0.000 NA
ATOM     25  H   UNL     1      49.544   8.804  14.965  0.00  0.00    +0.000 HD
BRANCH  22  26
ATOM     26  C   UNL     1      47.419   3.812  17.604  0.00  0.00    +0.000 C 
ATOM     27  N   UNL     1      47.945   3.468  18.822  0.00  0.00    +0.000 N 
ATOM     28  O   UNL     1      46.439   3.231  17.144  0.00  0.00    +0.000 OA
ATOM     29  H   UNL     1      48.758   3.950  19.193  0.00  0.00    +0.000 HD
ATOM     30  H   UNL     1      47.517   2.726  19.349  0.00  0.00    +0.000 HD
ENDBRANCH  22  26
ENDBRANCH  17  18
ENDBRANCH  16  17
ENDBRANCH   5  16
TORSDOF 6
ENDMDL
MODEL 3
REMARK VINA RESULT:    -7.486      1.856      2.565
REMARK INTER + INTRA:         -10.978
REMARK INTER:                 -10.121
REMARK INTRA:                  -0.858
REMARK UNBOUND:                -1.086
REMARK  Name = 
REMARK  7 active torsions:
REMARK  status: ('A' for Active; 'I' for Inactive)
REMARK    1  A    between atoms: C_1  and  C_2
REMARK    2  A    between atoms: C_2  and  C_3
REMARK    3  A    between atoms: C_7  and  C_8
REMARK    4  A    between atoms: C_8  and  C_9
REMARK    5  A    between atoms: C_9  and  N_10
REMARK    6  A    between atoms: C_14  and  C_15
REMARK    7  A    between atoms: C_23  and  O_24
REMARK                            x       y       z     vdW  Elec       q    Type
REMARK                         _______ _______ _______ _____ _____    ______ ____
ROOT
ATOM      1  C   UNL     1      46.245   8.588  12.280  0.00  0.00    +0.000 A 
ATOM      2  C   UNL     1      45.506   9.558  11.595  0.00  0.00    +0.000 A 
ATOM      3  C   UNL     1      44.228   9.284  11.104  0.00  0.00    +0.000 A 
ATOM      4  C   UNL     1      43.667   8.017  11.264  0.00  0.00    +0.000 A 
ATOM      5  C   UNL     1      44.380   7.013  11.932  0.00  0.00    +0.000 A 
ATOM      6  C   UNL     1      45.638   7.342  12.466  0.00  0.00    +0.000 A 
ENDROOT
BRANCH   1   8
ATOM      7  C   UNL     1      48.074  10.242  12.125  0.00  0.00    +0.000 C 
ATOM      8  C   UNL     1      47.707   8.850  12.697  0.00  0.00    +0.000 C 
ATOM      9  C   UNL     1      47.821   8.847  14.244  0.00  0.00    +0.000 C 
ATOM     10  C   UNL     1      49.259   8.990  14.756  0.00  0.00    +0.000 C 
ATOM     11  C   UNL     1      50.211   7.963  14.151  0.00  0.00    +0.000 C 
ATOM     12  C   UNL     1      50.140   7.954  12.628  0.00  0.00    +0.000 C 
ATOM     13  C   UNL     1      48.705   7.798  12.122  0.00  0.00    +0.000 C 
BRANCH  11  14
ATOM     14  O   UNL     1      49.923   6.664  14.662  0.00  0.00    +0.000 OA
ATOM     15  H   UNL     1      48.988   6.458  14.499  0.00  0.00    +0.000 HD
ENDBRANCH  11  14
ENDBRANCH   1   8
BRANCH   5  16
ATOM     16  C   UNL     1      43.849   5.590  12.016  0.00  0.00    +0.000 C 
BRANCH  16  17
ATOM     17  C   UNL     1      43.475   4.993  10.648  0.00  0.00    +0.000 C 
BRANCH  17  18
ATOM     18  N   UNL     1      43.728   3.553  10.556  0.00  0.00    +0.000 N 
ATOM     19  C   UNL     1      44.655   3.275   9.519  0.00  0.00    +0.000 A 
ATOM     20  C   UNL     1      45.025   1.956   9.280  0.00  0.00    +0.000 A 
ATOM     21  C   UNL     1      45.949   1.677   8.278  0.00  0.00    +0.000 A 
ATOM     22  C   UNL     1      46.453   2.734   7.538  0.00  0.00    +0.000 A 
ATOM     23  N   UNL     1      46.085   4.012   7.770  0.00  0.00    +0.000 NA
ATOM     24  N   UNL     1      45.195   4.272   8.774  0.00  0.00    +0.000 NA
ATOM     25  H   UNL     1      42.876   3.031  10.367  0.00  0.00    +0.000 HD
BRANCH  22  26
ATOM     26  C   UNL     1      47.424   2.507   6.438  0.00  0.00    +0.000 C 
ATOM     27  N   UNL     1      47.259   3.264   5.307  0.00  0.00    +0.000 N 
ATOM     28  O   UNL     1      48.326   1.678   6.525  0.00  0.00    +0.000 OA
ATOM     29  H   UNL     1      46.508   3.944   5.241  0.00  0.00    +0.000 HD
ATOM     30  H   UNL     1      47.891   3.137   4.535  0.00  0.00    +0.000 HD
ENDBRANCH  22  26
ENDBRANCH  17  18
ENDBRANCH  16  17
ENDBRANCH   5  16
TORSDOF 6
ENDMDL
MODEL 4
REMARK VINA RESULT:    -7.046      5.451      8.217
REMARK INTER + INTRA:         -10.397
REMARK INTER:                  -9.630
REMARK INTRA:                  -0.767
REMARK UNBOUND:                -1.086
REMARK  Name = 
REMARK  7 active torsions:
REMARK  status: ('A' for Active; 'I' for Inactive)
REMARK    1  A    between atoms: C_1  and  C_2
REMARK    2  A    between atoms: C_2  and  C_3
REMARK    3  A    between atoms: C_7  and  C_8
REMARK    4  A    between atoms: C_8  and  C_9
REMARK    5  A    between atoms: C_9  and  N_10
REMARK    6  A    between atoms: C_14  and  C_15
REMARK    7  A    between atoms: C_23  and  O_24
REMARK                            x       y       z     vdW  Elec       q    Type
REMARK                         _______ _______ _______ _____ _____    ______ ____
ROOT
ATOM      1  C   UNL     1      46.982   6.141  12.651  0.00  0.00    +0.000 A 
ATOM      2  C   UNL     1      47.667   6.822  11.639  0.00  0.00    +0.000 A 
ATOM      3  C   UNL     1      48.737   7.669  11.933  0.00  0.00    +0.000 A 
ATOM      4  C   UNL     1      49.131   7.877  13.254  0.00  0.00    +0.000 A 
ATOM      5  C   UNL     1      48.462   7.224  14.298  0.00  0.00    +0.000 A 
ATOM      6  C   UNL     1      47.430   6.332  13.962  0.00  0.00    +0.000 A 
ENDROOT
BRANCH   1   8
ATOM      7  C   UNL     1      46.004   3.878  12.834  0.00  0.00    +0.000 C 
ATOM      8  C   UNL     1      45.715   5.317  12.338  0.00  0.00    +0.000 C 
ATOM      9  C   UNL     1      44.497   5.920  13.086  0.00  0.00    +0.000 C 
ATOM     10  C   UNL     1      43.167   5.235  12.751  0.00  0.00    +0.000 C 
ATOM     11  C   UNL     1      42.892   5.171  11.252  0.00  0.00    +0.000 C 
ATOM     12  C   UNL     1      44.062   4.564  10.486  0.00  0.00    +0.000 C 
ATOM     13  C   UNL     1      45.384   5.259  10.814  0.00  0.00    +0.000 C 
BRANCH  11  14
ATOM     14  O   UNL     1      42.602   6.474  10.749  0.00  0.00    +0.000 OA
ATOM     15  H   UNL     1      42.317   7.041  11.484  0.00  0.00    +0.000 HD
ENDBRANCH  11  14
ENDBRANCH   1   8
BRANCH   5  16
ATOM     16  C   UNL     1      48.788   7.523  15.753  0.00  0.00    +0.000 C 
BRANCH  16  17
ATOM     17  C   UNL     1      49.001   6.259  16.606  0.00  0.00    +0.000 C 
BRANCH  17  18
ATOM     18  N   UNL     1      50.260   6.270  17.355  0.00  0.00    +0.000 N 
ATOM     19  C   UNL     1      50.788   4.959  17.461  0.00  0.00    +0.000 A 
ATOM     20  C   UNL     1      51.988   4.766  18.136  0.00  0.00    +0.000 A 
ATOM     21  C   UNL     1      52.523   3.485  18.227  0.00  0.00    +0.000 A 
ATOM     22  C   UNL     1      51.821   2.439  17.652  0.00  0.00    +0.000 A 
ATOM     23  N   UNL     1      50.653   2.630  17.002  0.00  0.00    +0.000 NA
ATOM     24  N   UNL     1      50.153   3.898  16.900  0.00  0.00    +0.000 NA
ATOM     25  H   UNL     1      50.138   6.639  18.293  0.00  0.00    +0.000 HD
BRANCH  22  26
ATOM     26  C   UNL     1      52.321   1.043  17.732  0.00  0.00    +0.000 C 
ATOM     27  N   UNL     1      51.442   0.102  18.205  0.00  0.00    +0.000 N 
ATOM     28  O   UNL     1      53.464   0.740  17.402  0.00  0.00    +0.000 OA
ATOM     29  H   UNL     1      50.500   0.362  18.480  0.00  0.00    +0.000 HD
ATOM     30  H   UNL     1      51.743  -0.854  18.281  0.00  0.00    +0.000 HD
ENDBRANCH  22  26
ENDBRANCH  17  18
ENDBRANCH  16  17
ENDBRANCH   5  16
TORSDOF 6
ENDMDL
MODEL 5
REMARK VINA RESULT:    -7.044      2.448      3.250
REMARK INTER + INTRA:         -10.394
REMARK INTER:                  -9.496
REMARK INTRA:                  -0.899
REMARK UNBOUND:                -1.086
REMARK  Name = 
REMARK  7 active torsions:
REMARK  status: ('A' for Active; 'I' for Inactive)
REMARK    1  A    between atoms: C_1  and  C_2
REMARK    2  A    between atoms: C_2  and  C_3
REMARK    3  A    between atoms: C_7  and  C_8
REMARK    4  A    between atoms: C_8  and  C_9
REMARK    5  A    between atoms: C_9  and  N_10
REMARK    6  A    between atoms: C_14  and  C_15
REMARK    7  A    between atoms: C_23  and  O_24
REMARK                            x       y       z     vdW  Elec       q    Type
REMARK                         _______ _______ _______ _____ _____    ______ ____
ROOT
ATOM      1  C   UNL     1      48.158   6.976  14.086  0.00  0.00    +0.000 A 
ATOM      2  C   UNL     1      48.895   7.281  12.937  0.00  0.00    +0.000 A 
ATOM      3  C   UNL     1      48.331   7.179  11.665  0.00  0.00    +0.000 A 
ATOM      4  C   UNL     1      47.016   6.740  11.509  0.00  0.00    +0.000 A 
ATOM      5  C   UNL     1      46.248   6.411  12.633  0.00  0.00    +0.000 A 
ATOM      6  C   UNL     1      46.828   6.584  13.901  0.00  0.00    +0.000 A 
ENDROOT
BRANCH   1   8
ATOM      7  C   UNL     1      48.459   8.304  16.149  0.00  0.00    +0.000 C 
ATOM      8  C   UNL     1      48.825   6.956  15.477  0.00  0.00    +0.000 C 
ATOM      9  C   UNL     1      48.276   5.766  16.307  0.00  0.00    +0.000 C 
ATOM     10  C   UNL     1      48.960   5.596  17.668  0.00  0.00    +0.000 C 
ATOM     11  C   UNL     1      50.480   5.516  17.564  0.00  0.00    +0.000 C 
ATOM     12  C   UNL     1      51.056   6.684  16.771  0.00  0.00    +0.000 C 
ATOM     13  C   UNL     1      50.379   6.842  15.410  0.00  0.00    +0.000 C 
BRANCH  11  14
ATOM     14  O   UNL     1      50.868   4.281  16.967  0.00  0.00    +0.000 OA
ATOM     15  H   UNL     1      51.344   3.746  17.623  0.00  0.00    +0.000 HD
ENDBRANCH  11  14
ENDBRANCH   1   8
BRANCH   5  16
ATOM     16  C   UNL     1      44.855   5.815  12.491  0.00  0.00    +0.000 C 
BRANCH  16  17
ATOM     17  C   UNL     1      44.474   5.488  11.036  0.00  0.00    +0.000 C 
BRANCH  17  18
ATOM     18  N   UNL     1      44.397   4.050  10.767  0.00  0.00    +0.000 N 
ATOM     19  C   UNL     1      45.116   3.724   9.589  0.00  0.00    +0.000 A 
ATOM     20  C   UNL     1      45.164   2.399   9.171  0.00  0.00    +0.000 A 
ATOM     21  C   UNL     1      45.884   2.070   8.027  0.00  0.00    +0.000 A 
ATOM     22  C   UNL     1      46.516   3.088   7.334  0.00  0.00    +0.000 A 
ATOM     23  N   UNL     1      46.462   4.374   7.741  0.00  0.00    +0.000 NA
ATOM     24  N   UNL     1      45.771   4.678   8.879  0.00  0.00    +0.000 NA
ATOM     25  H   UNL     1      43.437   3.739  10.647  0.00  0.00    +0.000 HD
BRANCH  22  26
ATOM     26  C   UNL     1      47.282   2.811   6.092  0.00  0.00    +0.000 C 
ATOM     27  N   UNL     1      48.607   2.493   6.245  0.00  0.00    +0.000 N 
ATOM     28  O   UNL     1      46.765   2.871   4.980  0.00  0.00    +0.000 OA
ATOM     29  H   UNL     1      49.029   2.450   7.168  0.00  0.00    +0.000 HD
ATOM     30  H   UNL     1      49.164   2.305   5.429  0.00  0.00    +0.000 HD
ENDBRANCH  22  26
ENDBRANCH  17  18
ENDBRANCH  16  17
ENDBRANCH   5  16
TORSDOF 6
ENDMDL
MODEL 6
REMARK VINA RESULT:    -6.947      2.158      2.805
REMARK INTER + INTRA:         -10.267
REMARK INTER:                  -9.667
REMARK INTRA:                  -0.600
REMARK UNBOUND:                -1.086
REMARK  Name = 
REMARK  7 active torsions:
REMARK  status: ('A' for Active; 'I' for Inactive)
REMARK    1  A    between atoms: C_1  and  C_2
REMARK    2  A    between atoms: C_2  and  C_3
REMARK    3  A    between atoms: C_7  and  C_8
REMARK    4  A    between atoms: C_8  and  C_9
REMARK    5  A    between atoms: C_9  and  N_10
REMARK    6  A    between atoms: C_14  and  C_15
REMARK    7  A    between atoms: C_23  and  O_24
REMARK                            x       y       z     vdW  Elec       q    Type
REMARK                         _______ _______ _______ _____ _____    ______ ____
ROOT
ATOM      1  C   UNL     1      46.220   6.307  12.655  0.00  0.00    +0.000 A 
ATOM      2  C   UNL     1      47.185   5.794  13.527  0.00  0.00    +0.000 A 
ATOM      3  C   UNL     1      47.028   4.544  14.129  0.00  0.00    +0.000 A 
ATOM      4  C   UNL     1      45.882   3.786  13.892  0.00  0.00    +0.000 A 
ATOM      5  C   UNL     1      44.884   4.270  13.035  0.00  0.00    +0.000 A 
ATOM      6  C   UNL     1      45.104   5.504  12.400  0.00  0.00    +0.000 A 
ENDROOT
BRANCH   1   8
ATOM      7  C   UNL     1      47.654   7.795  11.300  0.00  0.00    +0.000 C 
ATOM      8  C   UNL     1      46.329   7.743  12.102  0.00  0.00    +0.000 C 
ATOM      9  C   UNL     1      45.120   8.046  11.180  0.00  0.00    +0.000 C 
ATOM     10  C   UNL     1      45.081   9.491  10.669  0.00  0.00    +0.000 C 
ATOM     11  C   UNL     1      45.167  10.522  11.790  0.00  0.00    +0.000 C 
ATOM     12  C   UNL     1      46.358  10.266  12.705  0.00  0.00    +0.000 C 
ATOM     13  C   UNL     1      46.385   8.828  13.223  0.00  0.00    +0.000 C 
BRANCH  11  14
ATOM     14  O   UNL     1      43.959  10.524  12.548  0.00  0.00    +0.000 OA
ATOM     15  H   UNL     1      44.031   9.871  13.263  0.00  0.00    +0.000 HD
ENDBRANCH  11  14
ENDBRANCH   1   8
BRANCH   5  16
ATOM     16  C   UNL     1      43.571   3.524  12.852  0.00  0.00    +0.000 C 
BRANCH  16  17
ATOM     17  C   UNL     1      43.349   3.016  11.416  0.00  0.00    +0.000 C 
BRANCH  17  18
ATOM     18  N   UNL     1      43.701   4.002  10.391  0.00  0.00    +0.000 N 
ATOM     19  C   UNL     1      44.633   3.455   9.473  0.00  0.00    +0.000 A 
ATOM     20  C   UNL     1      45.085   4.243   8.420  0.00  0.00    +0.000 A 
ATOM     21  C   UNL     1      45.985   3.707   7.504  0.00  0.00    +0.000 A 
ATOM     22  C   UNL     1      46.413   2.404   7.691  0.00  0.00    +0.000 A 
ATOM     23  N   UNL     1      45.976   1.645   8.719  0.00  0.00    +0.000 NA
ATOM     24  N   UNL     1      45.074   2.177   9.596  0.00  0.00    +0.000 NA
ATOM     25  H   UNL     1      44.109   4.839  10.797  0.00  0.00    +0.000 HD
BRANCH  22  26
ATOM     26  C   UNL     1      47.390   1.777   6.765  0.00  0.00    +0.000 C 
ATOM     27  N   UNL     1      48.470   2.540   6.403  0.00  0.00    +0.000 N 
ATOM     28  O   UNL     1      47.242   0.636   6.335  0.00  0.00    +0.000 OA
ATOM     29  H   UNL     1      48.584   3.484   6.760  0.00  0.00    +0.000 HD
ATOM     30  H   UNL     1      49.153   2.155   5.773  0.00  0.00    +0.000 HD
ENDBRANCH  22  26
ENDBRANCH  17  18
ENDBRANCH  16  17
ENDBRANCH   5  16
TORSDOF 6
ENDMDL
MODEL 7
REMARK VINA RESULT:    -6.842      3.994      6.247
REMARK INTER + INTRA:         -10.128
REMARK INTER:                  -9.001
REMARK INTRA:                  -1.128
REMARK UNBOUND:                -1.086
REMARK  Name = 
REMARK  7 active torsions:
REMARK  status: ('A' for Active; 'I' for Inactive)
REMARK    1  A    between atoms: C_1  and  C_2
REMARK    2  A    between atoms: C_2  and  C_3
REMARK    3  A    between atoms: C_7  and  C_8
REMARK    4  A    between atoms: C_8  and  C_9
REMARK    5  A    between atoms: C_9  and  N_10
REMARK    6  A    between atoms: C_14  and  C_15
REMARK    7  A    between atoms: C_23  and  O_24
REMARK                            x       y       z     vdW  Elec       q    Type
REMARK                         _______ _______ _______ _____ _____    ______ ____
ROOT
ATOM      1  C   UNL     1      48.661   6.683  17.141  0.00  0.00    +0.000 A 
ATOM      2  C   UNL     1      48.431   7.782  17.976  0.00  0.00    +0.000 A 
ATOM      3  C   UNL     1      48.366   9.079  17.466  0.00  0.00    +0.000 A 
ATOM      4  C   UNL     1      48.557   9.313  16.105  0.00  0.00    +0.000 A 
ATOM      5  C   UNL     1      48.804   8.241  15.236  0.00  0.00    +0.000 A 
ATOM      6  C   UNL     1      48.802   6.943  15.775  0.00  0.00    +0.000 A 
ENDROOT
BRANCH   1   8
ATOM      7  C   UNL     1      48.866   5.437  19.266  0.00  0.00    +0.000 C 
ATOM      8  C   UNL     1      48.870   5.271  17.725  0.00  0.00    +0.000 C 
ATOM      9  C   UNL     1      47.717   4.338  17.273  0.00  0.00    +0.000 C 
ATOM     10  C   UNL     1      47.895   2.880  17.713  0.00  0.00    +0.000 C 
ATOM     11  C   UNL     1      49.243   2.295  17.305  0.00  0.00    +0.000 C 
ATOM     12  C   UNL     1      50.402   3.178  17.752  0.00  0.00    +0.000 C 
ATOM     13  C   UNL     1      50.227   4.627  17.300  0.00  0.00    +0.000 C 
BRANCH  11  14
ATOM     14  O   UNL     1      49.289   2.106  15.892  0.00  0.00    +0.000 OA
ATOM     15  H   UNL     1      48.985   1.208  15.682  0.00  0.00    +0.000 HD
ENDBRANCH  11  14
ENDBRANCH   1   8
BRANCH   5  16
ATOM     16  C   UNL     1      49.137   8.474  13.770  0.00  0.00    +0.000 C 
BRANCH  16  17
ATOM     17  C   UNL     1      49.121   7.187  12.926  0.00  0.00    +0.000 C 
BRANCH  17  18
ATOM     18  N   UNL     1      48.190   7.246  11.796  0.00  0.00    +0.000 N 
ATOM     19  C   UNL     1      47.051   6.439  12.046  0.00  0.00    +0.000 A 
ATOM     20  C   UNL     1      46.048   6.371  11.086  0.00  0.00    +0.000 A 
ATOM     21  C   UNL     1      44.918   5.597  11.333  0.00  0.00    +0.000 A 
ATOM     22  C   UNL     1      44.847   4.903  12.529  0.00  0.00    +0.000 A 
ATOM     23  N   UNL     1      45.827   4.968  13.456  0.00  0.00    +0.000 NA
ATOM     24  N   UNL     1      46.918   5.752  13.209  0.00  0.00    +0.000 NA
ATOM     25  H   UNL     1      48.622   6.926  10.934  0.00  0.00    +0.000 HD
BRANCH  22  26
ATOM     26  C   UNL     1      43.682   4.040  12.847  0.00  0.00    +0.000 C 
ATOM     27  N   UNL     1      43.817   2.702  12.578  0.00  0.00    +0.000 N 
ATOM     28  O   UNL     1      42.643   4.494  13.319  0.00  0.00    +0.000 OA
ATOM     29  H   UNL     1      44.678   2.335  12.184  0.00  0.00    +0.000 HD
ATOM     30  H   UNL     1      43.049   2.083  12.773  0.00  0.00    +0.000 HD
ENDBRANCH  22  26
ENDBRANCH  17  18
ENDBRANCH  16  17
ENDBRANCH   5  16
TORSDOF 6
ENDMDL
MODEL 8
REMARK VINA RESULT:    -6.680      3.167      5.604
REMARK INTER + INTRA:          -9.914
REMARK INTER:                  -9.069
REMARK INTRA:                  -0.844
REMARK UNBOUND:                -1.086
REMARK  Name = 
REMARK  7 active torsions:
REMARK  status: ('A' for Active; 'I' for Inactive)
REMARK    1  A    between atoms: C_1  and  C_2
REMARK    2  A    between atoms: C_2  and  C_3
REMARK    3  A    between atoms: C_7  and  C_8
REMARK    4  A    between atoms: C_8  and  C_9
REMARK    5  A    between atoms: C_9  and  N_10
REMARK    6  A    between atoms: C_14  and  C_15
REMARK    7  A    between atoms: C_23  and  O_24
REMARK                            x       y       z     vdW  Elec       q    Type
REMARK                         _______ _______ _______ _____ _____    ______ ____
ROOT
ATOM      1  C   UNL     1      49.510   6.775  15.990  0.00  0.00    +0.000 A 
ATOM      2  C   UNL     1      50.871   7.012  15.772  0.00  0.00    +0.000 A 
ATOM      3  C   UNL     1      51.303   8.034  14.925  0.00  0.00    +0.000 A 
ATOM      4  C   UNL     1      50.378   8.829  14.250  0.00  0.00    +0.000 A 
ATOM      5  C   UNL     1      49.005   8.616  14.429  0.00  0.00    +0.000 A 
ATOM      6  C   UNL     1      48.606   7.619  15.336  0.00  0.00    +0.000 A 
ENDROOT
BRANCH   1   8
ATOM      7  C   UNL     1      48.458   6.135  18.133  0.00  0.00    +0.000 C 
ATOM      8  C   UNL     1      49.036   5.561  16.814  0.00  0.00    +0.000 C 
ATOM      9  C   UNL     1      47.943   4.787  16.031  0.00  0.00    +0.000 C 
ATOM     10  C   UNL     1      47.486   3.497  16.722  0.00  0.00    +0.000 C 
ATOM     11  C   UNL     1      48.644   2.569  17.078  0.00  0.00    +0.000 C 
ATOM     12  C   UNL     1      49.728   3.294  17.868  0.00  0.00    +0.000 C 
ATOM     13  C   UNL     1      50.190   4.572  17.168  0.00  0.00    +0.000 C 
BRANCH  11  14
ATOM     14  O   UNL     1      49.199   2.000  15.894  0.00  0.00    +0.000 OA
ATOM     15  H   UNL     1      49.239   1.035  15.994  0.00  0.00    +0.000 HD
ENDBRANCH  11  14
ENDBRANCH   1   8
BRANCH   5  16
ATOM     16  C   UNL     1      47.974   9.384  13.616  0.00  0.00    +0.000 C 
BRANCH  16  17
ATOM     17  C   UNL     1      47.181   8.499  12.638  0.00  0.00    +0.000 C 
BRANCH  17  18
ATOM     18  N   UNL     1      46.096   7.753  13.280  0.00  0.00    +0.000 N 
ATOM     19  C   UNL     1      45.607   6.740  12.416  0.00  0.00    +0.000 A 
ATOM     20  C   UNL     1      44.574   5.919  12.853  0.00  0.00    +0.000 A 
ATOM     21  C   UNL     1      44.103   4.911  12.018  0.00  0.00    +0.000 A 
ATOM     22  C   UNL     1      44.675   4.776  10.765  0.00  0.00    +0.000 A 
ATOM     23  N   UNL     1      45.675   5.580  10.342  0.00  0.00    +0.000 NA
ATOM     24  N   UNL     1      46.143   6.550  11.183  0.00  0.00    +0.000 NA
ATOM     25  H   UNL     1      45.319   8.357  13.531  0.00  0.00    +0.000 HD
BRANCH  22  26
ATOM     26  C   UNL     1      44.206   3.738   9.813  0.00  0.00    +0.000 C 
ATOM     27  N   UNL     1      44.187   4.083   8.486  0.00  0.00    +0.000 N 
ATOM     28  O   UNL     1      43.842   2.627  10.189  0.00  0.00    +0.000 OA
ATOM     29  H   UNL     1      44.486   5.005   8.184  0.00  0.00    +0.000 HD
ATOM     30  H   UNL     1      43.870   3.411   7.809  0.00  0.00    +0.000 HD
ENDBRANCH  22  26
ENDBRANCH  17  18
ENDBRANCH  16  17
ENDBRANCH   5  16
TORSDOF 6
ENDMDL
MODEL 9
REMARK VINA RESULT:    -6.634      4.724      7.731
REMARK INTER + INTRA:          -9.852
REMARK INTER:                  -8.701
REMARK INTRA:                  -1.151
REMARK UNBOUND:                -1.086
REMARK  Name = 
REMARK  7 active torsions:
REMARK  status: ('A' for Active; 'I' for Inactive)
REMARK    1  A    between atoms: C_1  and  C_2
REMARK    2  A    between atoms: C_2  and  C_3
REMARK    3  A    between atoms: C_7  and  C_8
REMARK    4  A    between atoms: C_8  and  C_9
REMARK    5  A    between atoms: C_9  and  N_10
REMARK    6  A    between atoms: C_14  and  C_15
REMARK    7  A    between atoms: C_23  and  O_24
REMARK                            x       y       z     vdW  Elec       q    Type
REMARK                         _______ _______ _______ _____ _____    ______ ____
ROOT
ATOM      1  C   UNL     1      47.396   7.021  12.682  0.00  0.00    +0.000 A 
ATOM      2  C   UNL     1      48.362   7.137  11.677  0.00  0.00    +0.000 A 
ATOM      3  C   UNL     1      49.571   7.796  11.907  0.00  0.00    +0.000 A 
ATOM      4  C   UNL     1      49.832   8.382  13.145  0.00  0.00    +0.000 A 
ATOM      5  C   UNL     1      48.884   8.300  14.174  0.00  0.00    +0.000 A 
ATOM      6  C   UNL     1      47.705   7.577  13.927  0.00  0.00    +0.000 A 
ENDROOT
BRANCH   1   8
ATOM      7  C   UNL     1      44.992   7.575  12.541  0.00  0.00    +0.000 C 
ATOM      8  C   UNL     1      46.008   6.416  12.385  0.00  0.00    +0.000 C 
ATOM      9  C   UNL     1      45.977   5.855  10.939  0.00  0.00    +0.000 C 
ATOM     10  C   UNL     1      44.672   5.132  10.586  0.00  0.00    +0.000 C 
ATOM     11  C   UNL     1      44.305   4.042  11.589  0.00  0.00    +0.000 C 
ATOM     12  C   UNL     1      44.305   4.566  13.020  0.00  0.00    +0.000 C 
ATOM     13  C   UNL     1      45.613   5.274  13.371  0.00  0.00    +0.000 C 
BRANCH  11  14
ATOM     14  O   UNL     1      45.205   2.942  11.470  0.00  0.00    +0.000 OA
ATOM     15  H   UNL     1      45.468   2.847  10.541  0.00  0.00    +0.000 HD
ENDBRANCH  11  14
ENDBRANCH   1   8
BRANCH   5  16
ATOM     16  C   UNL     1      49.087   9.031  15.493  0.00  0.00    +0.000 C 
BRANCH  16  17
ATOM     17  C   UNL     1      48.763   8.170  16.727  0.00  0.00    +0.000 C 
BRANCH  17  18
ATOM     18  N   UNL     1      49.955   7.652  17.402  0.00  0.00    +0.000 N 
ATOM     19  C   UNL     1      50.015   6.239  17.294  0.00  0.00    +0.000 A 
ATOM     20  C   UNL     1      51.083   5.562  17.870  0.00  0.00    +0.000 A 
ATOM     21  C   UNL     1      51.158   4.177  17.752  0.00  0.00    +0.000 A 
ATOM     22  C   UNL     1      50.145   3.521  17.074  0.00  0.00    +0.000 A 
ATOM     23  N   UNL     1      49.106   4.183  16.521  0.00  0.00    +0.000 NA
ATOM     24  N   UNL     1      49.059   5.544  16.625  0.00  0.00    +0.000 NA
ATOM     25  H   UNL     1      49.967   7.895  18.388  0.00  0.00    +0.000 HD
BRANCH  22  26
ATOM     26  C   UNL     1      50.149   2.043  16.930  0.00  0.00    +0.000 C 
ATOM     27  N   UNL     1      50.987   1.347  17.764  0.00  0.00    +0.000 N 
ATOM     28  O   UNL     1      49.448   1.467  16.104  0.00  0.00    +0.000 OA
ATOM     29  H   UNL     1      51.566   1.832  18.442  0.00  0.00    +0.000 HD
ATOM     30  H   UNL     1      51.024   0.345  17.695  0.00  0.00    +0.000 HD
ENDBRANCH  22  26
ENDBRANCH  17  18
ENDBRANCH  16  17
ENDBRANCH   5  16
TORSDOF 6
ENDMDL
