MODEL 1
REMARK VINA RESULT:    -8.153      0.000      0.000
REMARK INTER + INTRA:         -11.249
REMARK INTER:                 -10.536
REMARK INTRA:                  -0.713
REMARK UNBOUND:                -0.713
REMARK  Name = 
REMARK  5 active torsions:
REMARK  status: ('A' for Active; 'I' for Inactive)
REMARK    1  A    between atoms: C_2  and  C_3
REMARK    2  A    between atoms: C_6  and  N_7
REMARK    3  A    between atoms: N_7  and  C_8
REMARK    4  A    between atoms: C_8  and  C_9
REMARK    5  A    between atoms: C_13  and  C_14
REMARK                            x       y       z     vdW  Elec       q    Type
REMARK                         _______ _______ _______ _____ _____    ______ ____
ROOT
ATOM      1  C   UNL     1      43.901   5.019  11.176  0.00  0.00    +0.000 C 
ATOM      2  C   UNL     1      42.643   5.109  12.030  0.00  0.00    +0.000 C 
ATOM      3  C   UNL     1      43.006   6.235  11.121  0.00  0.00    +0.000 C 
ENDROOT
BRANCH   1   4
ATOM      4  C   UNL     1      45.265   5.128  11.839  0.00  0.00    +0.000 A 
ATOM      5  C   UNL     1      45.657   4.281  12.887  0.00  0.00    +0.000 A 
ATOM      6  C   UNL     1      46.810   4.540  13.626  0.00  0.00    +0.000 A 
ATOM      7  C   UNL     1      47.587   5.662  13.337  0.00  0.00    +0.000 A 
ATOM      8  C   UNL     1      47.249   6.529  12.287  0.00  0.00    +0.000 A 
ATOM      9  C   UNL     1      46.109   6.213  11.528  0.00  0.00    +0.000 A 
BRANCH   8  10
ATOM     10  C   UNL     1      47.989   7.782  12.044  0.00  0.00    +0.000 A 
ATOM     11  C   UNL     1      49.354   7.779  11.724  0.00  0.00    +0.000 A 
ATOM     12  C   UNL     1      50.048   8.974  11.549  0.00  0.00    +0.000 A 
ATOM     13  C   UNL     1      49.356  10.161  11.706  0.00  0.00    +0.000 A 
ATOM     14  N   UNL     1      48.046  10.224  12.021  0.00  0.00    +0.000 NA
ATOM     15  C   UNL     1      47.400   9.042  12.177  0.00  0.00    +0.000 A 
ENDBRANCH   8  10
ENDBRANCH   1   4
BRANCH   1  16
ATOM     16  N   UNL     1      43.842   3.897  10.219  0.00  0.00    +0.000 N 
ATOM     17  H   UNL     1      43.370   3.077  10.599  0.00  0.00    +0.000 HD
BRANCH  16  21
ATOM     18  C   UNL     1      46.641   2.574   7.498  0.00  0.00    +0.000 A 
ATOM     19  N   UNL     1      46.382   3.899   7.492  0.00  0.00    +0.000 NA
ATOM     20  C   UNL     1      45.490   4.336   8.414  0.00  0.00    +0.000 A 
ATOM     21  C   UNL     1      44.865   3.525   9.339  0.00  0.00    +0.000 A 
ATOM     22  C   UNL     1      45.219   2.185   9.232  0.00  0.00    +0.000 A 
ATOM     23  N   UNL     1      46.098   1.677   8.345  0.00  0.00    +0.000 NA
BRANCH  18  25
ATOM     24  N   UNL     1      48.263   1.654   5.692  0.00  0.00    +0.000 NA
ATOM     25  C   UNL     1      47.526   2.065   6.490  0.00  0.00    +0.000 C 
ENDBRANCH  18  25
ENDBRANCH  16  21
ENDBRANCH   1  16
TORSDOF 5
ENDMDL
MODEL 2
REMARK VINA RESULT:    -7.823      2.906      6.878
REMARK INTER + INTRA:         -10.823
REMARK INTER:                  -9.973
REMARK INTRA:                  -0.850
REMARK UNBOUND:                -0.713
REMARK  Name = 
REMARK  5 active torsions:
REMARK  status: ('A' for Active; 'I' for Inactive)
REMARK    1  A    between atoms: C_2  and  C_3
REMARK    2  A    between atoms: C_6  and  N_7
REMARK    3  A    between atoms: N_7  and  C_8
REMARK    4  A    between atoms: C_8  and  C_9
REMARK    5  A    between atoms: C_13  and  C_14
REMARK                            x       y       z     vdW  Elec       q    Type
REMARK                         _______ _______ _______ _____ _____    ______ ____
ROOT
ATOM      1  C   UNL     1      46.035   7.234  12.096  0.00  0.00    +0.000 C 
ATOM      2  C   UNL     1      46.230   8.679  11.654  0.00  0.00    +0.000 C 
ATOM      3  C   UNL     1      45.413   8.376  12.866  0.00  0.00    +0.000 C 
ENDROOT
BRANCH   1   4
ATOM      4  C   UNL     1      45.142   6.315  11.278  0.00  0.00    +0.000 A 
ATOM      5  C   UNL     1      43.787   6.120  11.587  0.00  0.00    +0.000 A 
ATOM      6  C   UNL     1      43.049   5.111  10.971  0.00  0.00    +0.000 A 
ATOM      7  C   UNL     1      43.658   4.268  10.041  0.00  0.00    +0.000 A 
ATOM      8  C   UNL     1      45.004   4.434   9.683  0.00  0.00    +0.000 A 
ATOM      9  C   UNL     1      45.708   5.492  10.284  0.00  0.00    +0.000 A 
BRANCH   8  10
ATOM     10  C   UNL     1      45.696   3.482   8.795  0.00  0.00    +0.000 A 
ATOM     11  C   UNL     1      46.412   3.914   7.668  0.00  0.00    +0.000 A 
ATOM     12  C   UNL     1      47.015   2.996   6.812  0.00  0.00    +0.000 A 
ATOM     13  C   UNL     1      46.883   1.649   7.099  0.00  0.00    +0.000 A 
ATOM     14  N   UNL     1      46.201   1.177   8.162  0.00  0.00    +0.000 NA
ATOM     15  C   UNL     1      45.633   2.098   8.978  0.00  0.00    +0.000 A 
ENDBRANCH   8  10
ENDBRANCH   1   4
BRANCH   1  16
ATOM     16  N   UNL     1      47.312   6.587  12.453  0.00  0.00    +0.000 N 
ATOM     17  H   UNL     1      47.850   6.295  11.638  0.00  0.00    +0.000 HD
BRANCH  16  21
ATOM     18  C   UNL     1      47.742   4.223  15.803  0.00  0.00    +0.000 A 
ATOM     19  N   UNL     1      47.075   3.673  14.765  0.00  0.00    +0.000 NA
ATOM     20  C   UNL     1      46.970   4.439  13.652  0.00  0.00    +0.000 A 
ATOM     21  C   UNL     1      47.504   5.704  13.523  0.00  0.00    +0.000 A 
ATOM     22  C   UNL     1      48.160   6.149  14.665  0.00  0.00    +0.000 A 
ATOM     23  N   UNL     1      48.307   5.446  15.806  0.00  0.00    +0.000 NA
BRANCH  18  25
ATOM     24  N   UNL     1      47.891   2.848  18.000  0.00  0.00    +0.000 NA
ATOM     25  C   UNL     1      47.812   3.470  17.022  0.00  0.00    +0.000 C 
ENDBRANCH  18  25
ENDBRANCH  16  21
ENDBRANCH   1  16
TORSDOF 5
ENDMDL
MODEL 3
REMARK VINA RESULT:    -7.286      2.294      3.813
REMARK INTER + INTRA:         -10.129
REMARK INTER:                  -9.669
REMARK INTRA:                  -0.460
REMARK UNBOUND:                -0.713
REMARK  Name = 
REMARK  5 active torsions:
REMARK  status: ('A' for Active; 'I' for Inactive)
REMARK    1  A    between atoms: C_2  and  C_3
REMARK    2  A    between atoms: C_6  and  N_7
REMARK    3  A    between atoms: N_7  and  C_8
REMARK    4  A    between atoms: C_8  and  C_9
REMARK    5  A    between atoms: C_13  and  C_14
REMARK                            x       y       z     vdW  Elec       q    Type
REMARK                         _______ _______ _______ _____ _____    ______ ____
ROOT
ATOM      1  C   UNL     1      44.069   5.065  11.777  0.00  0.00    +0.000 C 
ATOM      2  C   UNL     1      42.755   5.117  12.545  0.00  0.00    +0.000 C 
ATOM      3  C   UNL     1      42.939   5.961  11.328  0.00  0.00    +0.000 C 
ENDROOT
BRANCH   1   4
ATOM      4  C   UNL     1      45.316   5.688  12.385  0.00  0.00    +0.000 A 
ATOM      5  C   UNL     1      46.082   6.645  11.701  0.00  0.00    +0.000 A 
ATOM      6  C   UNL     1      47.334   7.033  12.175  0.00  0.00    +0.000 A 
ATOM      7  C   UNL     1      47.850   6.460  13.337  0.00  0.00    +0.000 A 
ATOM      8  C   UNL     1      47.115   5.513  14.068  0.00  0.00    +0.000 A 
ATOM      9  C   UNL     1      45.835   5.180  13.592  0.00  0.00    +0.000 A 
BRANCH   8  10
ATOM     10  C   UNL     1      47.691   4.809  15.229  0.00  0.00    +0.000 A 
ATOM     11  C   UNL     1      48.358   5.501  16.251  0.00  0.00    +0.000 A 
ATOM     12  C   UNL     1      48.941   4.814  17.314  0.00  0.00    +0.000 A 
ATOM     13  C   UNL     1      48.849   3.435  17.329  0.00  0.00    +0.000 A 
ATOM     14  N   UNL     1      48.227   2.718  16.371  0.00  0.00    +0.000 NA
ATOM     15  C   UNL     1      47.665   3.418  15.356  0.00  0.00    +0.000 A 
ENDBRANCH   8  10
ENDBRANCH   1   4
BRANCH   1  16
ATOM     16  N   UNL     1      44.337   3.722  11.227  0.00  0.00    +0.000 N 
ATOM     17  H   UNL     1      44.753   3.090  11.910  0.00  0.00    +0.000 HD
BRANCH  16  21
ATOM     18  C   UNL     1      45.998   3.127   7.502  0.00  0.00    +0.000 A 
ATOM     19  N   UNL     1      45.724   2.016   8.218  0.00  0.00    +0.000 NA
ATOM     20  C   UNL     1      45.142   2.214   9.426  0.00  0.00    +0.000 A 
ATOM     21  C   UNL     1      44.812   3.452   9.938  0.00  0.00    +0.000 A 
ATOM     22  C   UNL     1      45.153   4.508   9.101  0.00  0.00    +0.000 A 
ATOM     23  N   UNL     1      45.730   4.390   7.888  0.00  0.00    +0.000 NA
BRANCH  18  25
ATOM     24  N   UNL     1      47.251   2.811   5.250  0.00  0.00    +0.000 NA
ATOM     25  C   UNL     1      46.680   2.959   6.250  0.00  0.00    +0.000 C 
ENDBRANCH  18  25
ENDBRANCH  16  21
ENDBRANCH   1  16
TORSDOF 5
ENDMDL
MODEL 4
REMARK VINA RESULT:    -6.855      1.355      2.120
REMARK INTER + INTRA:          -9.572
REMARK INTER:                  -9.581
REMARK INTRA:                   0.009
REMARK UNBOUND:                -0.713
REMARK  Name = 
REMARK  5 active torsions:
REMARK  status: ('A' for Active; 'I' for Inactive)
REMARK    1  A    between atoms: C_2  and  C_3
REMARK    2  A    between atoms: C_6  and  N_7
REMARK    3  A    between atoms: N_7  and  C_8
REMARK    4  A    between atoms: C_8  and  C_9
REMARK    5  A    between atoms: C_13  and  C_14
REMARK                            x       y       z     vdW  Elec       q    Type
REMARK                         _______ _______ _______ _____ _____    ______ ____
ROOT
ATOM      1  C   UNL     1      44.096   4.270  11.635  0.00  0.00    +0.000 C 
ATOM      2  C   UNL     1      44.809   3.168  12.408  0.00  0.00    +0.000 C 
ATOM      3  C   UNL     1      43.418   3.558  12.783  0.00  0.00    +0.000 C 
ENDROOT
BRANCH   1   4
ATOM      4  C   UNL     1      44.537   5.714  11.811  0.00  0.00    +0.000 A 
ATOM      5  C   UNL     1      43.771   6.792  11.344  0.00  0.00    +0.000 A 
ATOM      6  C   UNL     1      44.292   8.084  11.313  0.00  0.00    +0.000 A 
ATOM      7  C   UNL     1      45.600   8.319  11.737  0.00  0.00    +0.000 A 
ATOM      8  C   UNL     1      46.402   7.279  12.232  0.00  0.00    +0.000 A 
ATOM      9  C   UNL     1      45.829   5.997  12.298  0.00  0.00    +0.000 A 
BRANCH   8  10
ATOM     10  C   UNL     1      47.822   7.485  12.572  0.00  0.00    +0.000 A 
ATOM     11  C   UNL     1      48.706   8.119  11.686  0.00  0.00    +0.000 A 
ATOM     12  C   UNL     1      50.055   8.258  12.003  0.00  0.00    +0.000 A 
ATOM     13  C   UNL     1      50.499   7.749  13.210  0.00  0.00    +0.000 A 
ATOM     14  N   UNL     1      49.697   7.124  14.096  0.00  0.00    +0.000 NA
ATOM     15  C   UNL     1      48.388   7.012  13.758  0.00  0.00    +0.000 A 
ENDBRANCH   8  10
ENDBRANCH   1   4
BRANCH   1  16
ATOM     16  N   UNL     1      43.913   3.920  10.213  0.00  0.00    +0.000 N 
ATOM     17  H   UNL     1      43.073   3.366  10.047  0.00  0.00    +0.000 HD
BRANCH  16  21
ATOM     18  C   UNL     1      46.703   2.653   7.457  0.00  0.00    +0.000 A 
ATOM     19  N   UNL     1      46.493   3.985   7.525  0.00  0.00    +0.000 NA
ATOM     20  C   UNL     1      45.603   4.401   8.459  0.00  0.00    +0.000 A 
ATOM     21  C   UNL     1      44.935   3.561   9.326  0.00  0.00    +0.000 A 
ATOM     22  C   UNL     1      45.241   2.217   9.146  0.00  0.00    +0.000 A 
ATOM     23  N   UNL     1      46.114   1.729   8.242  0.00  0.00    +0.000 NA
BRANCH  18  25
ATOM     24  N   UNL     1      48.318   1.794   5.615  0.00  0.00    +0.000 NA
ATOM     25  C   UNL     1      47.584   2.170   6.432  0.00  0.00    +0.000 C 
ENDBRANCH  18  25
ENDBRANCH  16  21
ENDBRANCH   1  16
TORSDOF 5
ENDMDL
MODEL 5
REMARK VINA RESULT:    -6.311      5.629      8.375
REMARK INTER + INTRA:          -8.869
REMARK INTER:                  -8.403
REMARK INTRA:                  -0.466
REMARK UNBOUND:                -0.713
REMARK  Name = 
REMARK  5 active torsions:
REMARK  status: ('A' for Active; 'I' for Inactive)
REMARK    1  A    between atoms: C_2  and  C_3
REMARK    2  A    between atoms: C_6  and  N_7
REMARK    3  A    between atoms: N_7  and  C_8
REMARK    4  A    between atoms: C_8  and  C_9
REMARK    5  A    between atoms: C_13  and  C_14
REMARK                            x       y       z     vdW  Elec       q    Type
REMARK                         _______ _______ _______ _____ _____    ______ ____
ROOT
ATOM      1  C   UNL     1      48.160   4.443  17.024  0.00  0.00    +0.000 C 
ATOM      2  C   UNL     1      47.220   4.780  18.174  0.00  0.00    +0.000 C 
ATOM      3  C   UNL     1      47.187   3.420  17.562  0.00  0.00    +0.000 C 
ENDROOT
BRANCH   1   4
ATOM      4  C   UNL     1      47.916   5.054  15.653  0.00  0.00    +0.000 A 
ATOM      5  C   UNL     1      48.550   6.235  15.239  0.00  0.00    +0.000 A 
ATOM      6  C   UNL     1      48.147   6.897  14.080  0.00  0.00    +0.000 A 
ATOM      7  C   UNL     1      47.090   6.394  13.320  0.00  0.00    +0.000 A 
ATOM      8  C   UNL     1      46.437   5.207  13.682  0.00  0.00    +0.000 A 
ATOM      9  C   UNL     1      46.900   4.536  14.827  0.00  0.00    +0.000 A 
BRANCH   8  10
ATOM     10  C   UNL     1      45.244   4.725  12.961  0.00  0.00    +0.000 A 
ATOM     11  C   UNL     1      45.272   3.551  12.194  0.00  0.00    +0.000 A 
ATOM     12  C   UNL     1      44.151   3.139  11.477  0.00  0.00    +0.000 A 
ATOM     13  C   UNL     1      43.013   3.923  11.539  0.00  0.00    +0.000 A 
ATOM     14  N   UNL     1      42.930   5.064  12.253  0.00  0.00    +0.000 NA
ATOM     15  C   UNL     1      44.038   5.431  12.943  0.00  0.00    +0.000 A 
ENDBRANCH   8  10
ENDBRANCH   1   4
BRANCH   1  16
ATOM     16  N   UNL     1      49.578   4.534  17.423  0.00  0.00    +0.000 N 
ATOM     17  H   UNL     1      50.016   5.408  17.135  0.00  0.00    +0.000 HD
BRANCH  16  21
ATOM     18  C   UNL     1      52.337   1.482  17.675  0.00  0.00    +0.000 A 
ATOM     19  N   UNL     1      51.131   1.156  17.163  0.00  0.00    +0.000 NA
ATOM     20  C   UNL     1      50.240   2.170  17.046  0.00  0.00    +0.000 A 
ATOM     21  C   UNL     1      50.499   3.479  17.397  0.00  0.00    +0.000 A 
ATOM     22  C   UNL     1      51.774   3.674  17.913  0.00  0.00    +0.000 A 
ATOM     23  N   UNL     1      52.714   2.718  18.058  0.00  0.00    +0.000 NA
BRANCH  18  25
ATOM     24  N   UNL     1      54.025  -0.453  18.059  0.00  0.00    +0.000 NA
ATOM     25  C   UNL     1      53.281   0.421  17.881  0.00  0.00    +0.000 C 
ENDBRANCH  18  25
ENDBRANCH  16  21
ENDBRANCH   1  16
TORSDOF 5
ENDMDL
MODEL 6
REMARK VINA RESULT:    -5.939      3.377      6.070
REMARK INTER + INTRA:          -8.388
REMARK INTER:                  -7.655
REMARK INTRA:                  -0.733
REMARK UNBOUND:                -0.713
REMARK  Name = 
REMARK  5 active torsions:
REMARK  status: ('A' for Active; 'I' for Inactive)
REMARK    1  A    between atoms: C_2  and  C_3
REMARK    2  A    between atoms: C_6  and  N_7
REMARK    3  A    between atoms: N_7  and  C_8
REMARK    4  A    between atoms: C_8  and  C_9
REMARK    5  A    between atoms: C_13  and  C_14
REMARK                            x       y       z     vdW  Elec       q    Type
REMARK                         _______ _______ _______ _____ _____    ______ ____
ROOT
ATOM      1  C   UNL     1      48.098   7.965  12.542  0.00  0.00    +0.000 C 
ATOM      2  C   UNL     1      49.025   8.884  11.756  0.00  0.00    +0.000 C 
ATOM      3  C   UNL     1      49.247   7.408  11.733  0.00  0.00    +0.000 C 
ENDROOT
BRANCH   1   4
ATOM      4  C   UNL     1      48.177   7.942  14.060  0.00  0.00    +0.000 A 
ATOM      5  C   UNL     1      48.266   9.118  14.821  0.00  0.00    +0.000 A 
ATOM      6  C   UNL     1      48.562   9.071  16.182  0.00  0.00    +0.000 A 
ATOM      7  C   UNL     1      48.789   7.843  16.805  0.00  0.00    +0.000 A 
ATOM      8  C   UNL     1      48.692   6.638  16.093  0.00  0.00    +0.000 A 
ATOM      9  C   UNL     1      48.342   6.716  14.734  0.00  0.00    +0.000 A 
BRANCH   8  10
ATOM     10  C   UNL     1      49.044   5.343  16.704  0.00  0.00    +0.000 A 
ATOM     11  C   UNL     1      50.298   5.124  17.293  0.00  0.00    +0.000 A 
ATOM     12  C   UNL     1      50.632   3.878  17.819  0.00  0.00    +0.000 A 
ATOM     13  C   UNL     1      49.696   2.863  17.738  0.00  0.00    +0.000 A 
ATOM     14  N   UNL     1      48.479   3.014  17.177  0.00  0.00    +0.000 NA
ATOM     15  C   UNL     1      48.185   4.241  16.682  0.00  0.00    +0.000 A 
ENDBRANCH   8  10
ENDBRANCH   1   4
BRANCH   1  16
ATOM     16  N   UNL     1      46.704   8.043  12.063  0.00  0.00    +0.000 N 
ATOM     17  H   UNL     1      46.224   8.885  12.378  0.00  0.00    +0.000 HD
BRANCH  16  21
ATOM     18  C   UNL     1      44.358   4.669  11.740  0.00  0.00    +0.000 A 
ATOM     19  N   UNL     1      44.175   5.421  12.847  0.00  0.00    +0.000 NA
ATOM     20  C   UNL     1      44.920   6.550  12.931  0.00  0.00    +0.000 A 
ATOM     21  C   UNL     1      45.816   6.965  11.967  0.00  0.00    +0.000 A 
ATOM     22  C   UNL     1      45.909   6.098  10.885  0.00  0.00    +0.000 A 
ATOM     23  N   UNL     1      45.201   4.961  10.730  0.00  0.00    +0.000 NA
BRANCH  18  25
ATOM     24  N   UNL     1      43.077   2.418  11.566  0.00  0.00    +0.000 NA
ATOM     25  C   UNL     1      43.638   3.431  11.651  0.00  0.00    +0.000 C 
ENDBRANCH  18  25
ENDBRANCH  16  21
ENDBRANCH   1  16
TORSDOF 5
ENDMDL
MODEL 7
REMARK VINA RESULT:    -5.895      3.367      8.195
REMARK INTER + INTRA:          -8.331
REMARK INTER:                  -7.490
REMARK INTRA:                  -0.841
REMARK UNBOUND:                -0.713
REMARK  Name = 
REMARK  5 active torsions:
REMARK  status: ('A' for Active; 'I' for Inactive)
REMARK    1  A    between atoms: C_2  and  C_3
REMARK    2  A    between atoms: C_6  and  N_7
REMARK    3  A    between atoms: N_7  and  C_8
REMARK    4  A    between atoms: C_8  and  C_9
REMARK    5  A    between atoms: C_13  and  C_14
REMARK                            x       y       z     vdW  Elec       q    Type
REMARK                         _______ _______ _______ _____ _____    ______ ____
ROOT
ATOM      1  C   UNL     1      49.200   7.879  12.478  0.00  0.00    +0.000 C 
ATOM      2  C   UNL     1      50.250   7.672  11.394  0.00  0.00    +0.000 C 
ATOM      3  C   UNL     1      50.098   9.010  12.036  0.00  0.00    +0.000 C 
ENDROOT
BRANCH   1   4
ATOM      4  C   UNL     1      47.728   7.905  12.098  0.00  0.00    +0.000 A 
ATOM      5  C   UNL     1      46.978   9.091  12.097  0.00  0.00    +0.000 A 
ATOM      6  C   UNL     1      45.591   9.062  11.967  0.00  0.00    +0.000 A 
ATOM      7  C   UNL     1      44.925   7.841  11.851  0.00  0.00    +0.000 A 
ATOM      8  C   UNL     1      45.631   6.629  11.828  0.00  0.00    +0.000 A 
ATOM      9  C   UNL     1      47.033   6.694  11.909  0.00  0.00    +0.000 A 
BRANCH   8  10
ATOM     10  C   UNL     1      44.939   5.326  11.826  0.00  0.00    +0.000 A 
ATOM     11  C   UNL     1      44.671   4.638  10.634  0.00  0.00    +0.000 A 
ATOM     12  C   UNL     1      43.971   3.434  10.647  0.00  0.00    +0.000 A 
ATOM     13  C   UNL     1      43.542   2.941  11.866  0.00  0.00    +0.000 A 
ATOM     14  N   UNL     1      43.765   3.563  13.042  0.00  0.00    +0.000 NA
ATOM     15  C   UNL     1      44.455   4.728  12.993  0.00  0.00    +0.000 A 
ENDBRANCH   8  10
ENDBRANCH   1   4
BRANCH   1  16
ATOM     16  N   UNL     1      49.449   7.031  13.659  0.00  0.00    +0.000 N 
ATOM     17  H   UNL     1      49.357   6.035  13.460  0.00  0.00    +0.000 HD
BRANCH  16  21
ATOM     18  C   UNL     1      48.544   7.754  17.615  0.00  0.00    +0.000 A 
ATOM     19  N   UNL     1      48.471   8.814  16.782  0.00  0.00    +0.000 NA
ATOM     20  C   UNL     1      48.731   8.564  15.476  0.00  0.00    +0.000 A 
ATOM     21  C   UNL     1      49.042   7.320  14.968  0.00  0.00    +0.000 A 
ATOM     22  C   UNL     1      49.087   6.321  15.933  0.00  0.00    +0.000 A 
ATOM     23  N   UNL     1      48.838   6.491  17.247  0.00  0.00    +0.000 NA
BRANCH  18  25
ATOM     24  N   UNL     1      48.157   8.178  20.147  0.00  0.00    +0.000 NA
ATOM     25  C   UNL     1      48.344   7.994  19.016  0.00  0.00    +0.000 C 
ENDBRANCH  18  25
ENDBRANCH  16  21
ENDBRANCH   1  16
TORSDOF 5
ENDMDL
MODEL 8
REMARK VINA RESULT:    -5.806      3.675      6.334
REMARK INTER + INTRA:          -8.215
REMARK INTER:                  -7.675
REMARK INTRA:                  -0.541
REMARK UNBOUND:                -0.713
REMARK  Name = 
REMARK  5 active torsions:
REMARK  status: ('A' for Active; 'I' for Inactive)
REMARK    1  A    between atoms: C_2  and  C_3
REMARK    2  A    between atoms: C_6  and  N_7
REMARK    3  A    between atoms: N_7  and  C_8
REMARK    4  A    between atoms: C_8  and  C_9
REMARK    5  A    between atoms: C_13  and  C_14
REMARK                            x       y       z     vdW  Elec       q    Type
REMARK                         _______ _______ _______ _____ _____    ______ ____
ROOT
ATOM      1  C   UNL     1      48.029   7.814  13.111  0.00  0.00    +0.000 C 
ATOM      2  C   UNL     1      48.072   9.122  12.331  0.00  0.00    +0.000 C 
ATOM      3  C   UNL     1      48.550   7.860  11.694  0.00  0.00    +0.000 C 
ENDROOT
BRANCH   1   4
ATOM      4  C   UNL     1      49.005   7.593  14.257  0.00  0.00    +0.000 A 
ATOM      5  C   UNL     1      50.326   8.062  14.214  0.00  0.00    +0.000 A 
ATOM      6  C   UNL     1      51.262   7.659  15.164  0.00  0.00    +0.000 A 
ATOM      7  C   UNL     1      50.896   6.764  16.169  0.00  0.00    +0.000 A 
ATOM      8  C   UNL     1      49.582   6.280  16.267  0.00  0.00    +0.000 A 
ATOM      9  C   UNL     1      48.649   6.745  15.324  0.00  0.00    +0.000 A 
BRANCH   8  10
ATOM     10  C   UNL     1      49.206   5.245  17.247  0.00  0.00    +0.000 A 
ATOM     11  C   UNL     1      48.394   4.157  16.893  0.00  0.00    +0.000 A 
ATOM     12  C   UNL     1      48.006   3.217  17.845  0.00  0.00    +0.000 A 
ATOM     13  C   UNL     1      48.438   3.389  19.148  0.00  0.00    +0.000 A 
ATOM     14  N   UNL     1      49.213   4.418  19.546  0.00  0.00    +0.000 NA
ATOM     15  C   UNL     1      49.577   5.310  18.593  0.00  0.00    +0.000 A 
ENDBRANCH   8  10
ENDBRANCH   1   4
BRANCH   1  16
ATOM     16  N   UNL     1      46.652   7.434  13.480  0.00  0.00    +0.000 N 
ATOM     17  H   UNL     1      46.465   7.540  14.477  0.00  0.00    +0.000 HD
BRANCH  16  21
ATOM     18  C   UNL     1      44.447   4.185  12.225  0.00  0.00    +0.000 A 
ATOM     19  N   UNL     1      44.162   5.365  11.634  0.00  0.00    +0.000 NA
ATOM     20  C   UNL     1      44.916   6.423  12.021  0.00  0.00    +0.000 A 
ATOM     21  C   UNL     1      45.936   6.355  12.947  0.00  0.00    +0.000 A 
ATOM     22  C   UNL     1      46.120   5.084  13.479  0.00  0.00    +0.000 A 
ATOM     23  N   UNL     1      45.413   3.986  13.143  0.00  0.00    +0.000 NA
BRANCH  18  25
ATOM     24  N   UNL     1      42.967   2.133  11.645  0.00  0.00    +0.000 NA
ATOM     25  C   UNL     1      43.623   3.058  11.892  0.00  0.00    +0.000 C 
ENDBRANCH  18  25
ENDBRANCH  16  21
ENDBRANCH   1  16
TORSDOF 5
ENDMDL
MODEL 9
REMARK VINA RESULT:    -5.763      1.564      6.694
REMARK INTER + INTRA:          -8.160
REMARK INTER:                  -7.399
REMARK INTRA:                  -0.761
REMARK UNBOUND:                -0.713
REMARK  Name = 
REMARK  5 active torsions:
REMARK  status: ('A' for Active; 'I' for Inactive)
REMARK    1  A    between atoms: C_2  and  C_3
REMARK    2  A    between atoms: C_6  and  N_7
REMARK    3  A    between atoms: N_7  and  C_8
REMARK    4  A    between atoms: C_8  and  C_9
REMARK    5  A    between atoms: C_13  and  C_14
REMARK                            x       y       z     vdW  Elec       q    Type
REMARK                         _______ _______ _______ _____ _____    ______ ____
ROOT
ATOM      1  C   UNL     1      46.475   5.205  13.712  0.00  0.00    +0.000 C 
ATOM      2  C   UNL     1      46.395   4.383  14.991  0.00  0.00    +0.000 C 
ATOM      3  C   UNL     1      47.475   4.110  13.998  0.00  0.00    +0.000 C 
ENDROOT
BRANCH   1   4
ATOM      4  C   UNL     1      45.434   4.998  12.623  0.00  0.00    +0.000 A 
ATOM      5  C   UNL     1      44.058   4.994  12.896  0.00  0.00    +0.000 A 
ATOM      6  C   UNL     1      43.137   4.582  11.934  0.00  0.00    +0.000 A 
ATOM      7  C   UNL     1      43.580   4.151  10.683  0.00  0.00    +0.000 A 
ATOM      8  C   UNL     1      44.944   4.155  10.354  0.00  0.00    +0.000 A 
ATOM      9  C   UNL     1      45.843   4.625  11.327  0.00  0.00    +0.000 A 
BRANCH   8  10
ATOM     10  C   UNL     1      45.439   3.593   9.084  0.00  0.00    +0.000 A 
ATOM     11  C   UNL     1      45.580   2.210   8.896  0.00  0.00    +0.000 A 
ATOM     12  C   UNL     1      46.099   1.701   7.708  0.00  0.00    +0.000 A 
ATOM     13  C   UNL     1      46.476   2.595   6.723  0.00  0.00    +0.000 A 
ATOM     14  N   UNL     1      46.370   3.933   6.851  0.00  0.00    +0.000 NA
ATOM     15  C   UNL     1      45.855   4.394   8.017  0.00  0.00    +0.000 A 
ENDBRANCH   8  10
ENDBRANCH   1   4
BRANCH   1  16
ATOM     16  N   UNL     1      46.706   6.637  13.987  0.00  0.00    +0.000 N 
ATOM     17  H   UNL     1      45.938   7.071  14.498  0.00  0.00    +0.000 HD
BRANCH  16  21
ATOM     18  C   UNL     1      48.505   9.523  11.659  0.00  0.00    +0.000 A 
ATOM     19  N   UNL     1      49.047   8.288  11.604  0.00  0.00    +0.000 NA
ATOM     20  C   UNL     1      48.429   7.333  12.340  0.00  0.00    +0.000 A 
ATOM     21  C   UNL     1      47.303   7.548  13.107  0.00  0.00    +0.000 A 
ATOM     22  C   UNL     1      46.853   8.862  13.077  0.00  0.00    +0.000 A 
ATOM     23  N   UNL     1      47.412   9.864  12.369  0.00  0.00    +0.000 NA
BRANCH  18  25
ATOM     24  N   UNL     1      49.734  11.429  10.395  0.00  0.00    +0.000 NA
ATOM     25  C   UNL     1      49.175  10.576  10.949  0.00  0.00    +0.000 C 
ENDBRANCH  18  25
ENDBRANCH  16  21
ENDBRANCH   1  16
TORSDOF 5
ENDMDL
