MODEL 1
REMARK VINA RESULT:    -8.001      0.000      0.000
REMARK INTER + INTRA:         -11.932
REMARK INTER:                 -10.807
REMARK INTRA:                  -1.125
REMARK UNBOUND:                -1.125
REMARK  Name = 
REMARK  7 active torsions:
REMARK  status: ('A' for Active; 'I' for Inactive)
REMARK    1  A    between atoms: C_1  and  C_2
REMARK    2  A    between atoms: C_2  and  N_3
REMARK    3  A    between atoms: C_2  and  C_16
REMARK    4  A    between atoms: C_4  and  C_6
REMARK    5  A    between atoms: C_19  and  C_20
REMARK    6  A    between atoms: C_20  and  N_21
REMARK    7  A    between atoms: C_22  and  C_24
REMARK                            x       y       z     vdW  Elec       q    Type
REMARK                         _______ _______ _______ _____ _____    ______ ____
ROOT
ATOM      1  C   UNL     1      47.132   8.932  13.485  0.00  0.00    +0.000 C 
ATOM      2  C   UNL     1      47.571   7.464  13.517  0.00  0.00    +0.000 C 
ENDROOT
BRANCH   2   3
ATOM      3  C   UNL     1      46.564   6.554  12.827  0.00  0.00    +0.000 A 
ATOM      4  C   UNL     1      46.565   5.183  13.122  0.00  0.00    +0.000 A 
ATOM      5  C   UNL     1      45.722   4.298  12.442  0.00  0.00    +0.000 A 
ATOM      6  C   UNL     1      44.856   4.760  11.444  0.00  0.00    +0.000 A 
ATOM      7  C   UNL     1      44.795   6.138  11.198  0.00  0.00    +0.000 A 
ATOM      8  C   UNL     1      45.642   7.025  11.878  0.00  0.00    +0.000 A 
BRANCH   6   9
ATOM      9  C   UNL     1      44.014   3.791  10.656  0.00  0.00    +0.000 C 
BRANCH   9  10
ATOM     10  N   UNL     1      44.821   2.915   9.844  0.00  0.00    +0.000 N 
ATOM     11  C   UNL     1      45.325   3.329   8.636  0.00  0.00    +0.000 C 
ATOM     12  O   UNL     1      45.101   4.444   8.172  0.00  0.00    +0.000 OA
ATOM     13  H   UNL     1      45.110   2.033  10.236  0.00  0.00    +0.000 HD
BRANCH  11  14
ATOM     14  C   UNL     1      46.145   2.363   7.951  0.00  0.00    +0.000 A 
ATOM     15  C   UNL     1      47.084   2.466   6.941  0.00  0.00    +0.000 A 
ATOM     16  C   UNL     1      47.540   1.153   6.727  0.00  0.00    +0.000 A 
ATOM     17  N   UNL     1      46.945   0.272   7.530  0.00  0.00    +0.000 NA
ATOM     18  N   UNL     1      46.105   1.027   8.261  0.00  0.00    +0.000 N 
ATOM     19  H   UNL     1      45.526   0.580   8.966  0.00  0.00    +0.000 HD
ENDBRANCH  11  14
ENDBRANCH   9  10
ENDBRANCH   6   9
ENDBRANCH   2   3
BRANCH   2  20
ATOM     20  N   UNL     1      47.831   7.035  14.876  0.00  0.00    +0.000 N 
ATOM     21  C   UNL     1      49.105   6.886  15.363  0.00  0.00    +0.000 C 
ATOM     22  O   UNL     1      50.098   7.067  14.661  0.00  0.00    +0.000 OA
ATOM     23  H   UNL     1      47.032   6.818  15.462  0.00  0.00    +0.000 HD
BRANCH  21  24
ATOM     24  C   UNL     1      49.233   6.552  16.786  0.00  0.00    +0.000 A 
ATOM     25  C   UNL     1      49.800   7.470  17.661  0.00  0.00    +0.000 A 
ATOM     26  S   UNL     1      49.853   6.932  19.277  0.00  0.00    +0.000 S 
ATOM     27  C   UNL     1      49.168   5.432  18.857  0.00  0.00    +0.000 A 
ATOM     28  N   UNL     1      48.967   4.467  19.794  0.00  0.00    +0.000 NA
ATOM     29  C   UNL     1      48.493   3.360  19.328  0.00  0.00    +0.000 A 
ATOM     30  N   UNL     1      48.186   3.136  18.011  0.00  0.00    +0.000 N 
ATOM     31  C   UNL     1      48.293   4.109  17.046  0.00  0.00    +0.000 A 
ATOM     32  O   UNL     1      47.876   3.918  15.909  0.00  0.00    +0.000 OA
ATOM     33  C   UNL     1      48.875   5.355  17.507  0.00  0.00    +0.000 A 
ATOM     34  H   UNL     1      47.784   2.260  17.715  0.00  0.00    +0.000 HD
ENDBRANCH  21  24
ENDBRANCH   2  20
TORSDOF 6
ENDMDL
MODEL 2
REMARK VINA RESULT:    -7.962      1.750      2.212
REMARK INTER + INTRA:         -11.880
REMARK INTER:                 -10.906
REMARK INTRA:                  -0.974
REMARK UNBOUND:                -1.125
REMARK  Name = 
REMARK  7 active torsions:
REMARK  status: ('A' for Active; 'I' for Inactive)
REMARK    1  A    between atoms: C_1  and  C_2
REMARK    2  A    between atoms: C_2  and  N_3
REMARK    3  A    between atoms: C_2  and  C_16
REMARK    4  A    between atoms: C_4  and  C_6
REMARK    5  A    between atoms: C_19  and  C_20
REMARK    6  A    between atoms: C_20  and  N_21
REMARK    7  A    between atoms: C_22  and  C_24
REMARK                            x       y       z     vdW  Elec       q    Type
REMARK                         _______ _______ _______ _____ _____    ______ ____
ROOT
ATOM      1  C   UNL     1      47.149   8.427  13.863  0.00  0.00    +0.000 C 
ATOM      2  C   UNL     1      47.562   6.971  13.630  0.00  0.00    +0.000 C 
ENDROOT
BRANCH   2   3
ATOM      3  C   UNL     1      46.679   6.288  12.594  0.00  0.00    +0.000 A 
ATOM      4  C   UNL     1      46.016   5.100  12.935  0.00  0.00    +0.000 A 
ATOM      5  C   UNL     1      45.273   4.390  11.986  0.00  0.00    +0.000 A 
ATOM      6  C   UNL     1      45.173   4.849  10.667  0.00  0.00    +0.000 A 
ATOM      7  C   UNL     1      45.769   6.074  10.340  0.00  0.00    +0.000 A 
ATOM      8  C   UNL     1      46.518   6.784  11.290  0.00  0.00    +0.000 A 
BRANCH   6   9
ATOM      9  C   UNL     1      44.445   4.036   9.629  0.00  0.00    +0.000 C 
BRANCH   9  10
ATOM     10  N   UNL     1      45.274   3.758   8.485  0.00  0.00    +0.000 N 
ATOM     11  C   UNL     1      45.894   2.542   8.334  0.00  0.00    +0.000 C 
ATOM     12  O   UNL     1      45.798   1.643   9.165  0.00  0.00    +0.000 OA
ATOM     13  H   UNL     1      45.294   4.431   7.735  0.00  0.00    +0.000 HD
BRANCH  11  14
ATOM     14  C   UNL     1      46.660   2.391   7.124  0.00  0.00    +0.000 A 
ATOM     15  C   UNL     1      46.543   2.932   5.856  0.00  0.00    +0.000 A 
ATOM     16  C   UNL     1      47.617   2.394   5.126  0.00  0.00    +0.000 A 
ATOM     17  N   UNL     1      48.368   1.572   5.857  0.00  0.00    +0.000 NA
ATOM     18  N   UNL     1      47.769   1.585   7.062  0.00  0.00    +0.000 N 
ATOM     19  H   UNL     1      48.162   1.027   7.815  0.00  0.00    +0.000 HD
ENDBRANCH  11  14
ENDBRANCH   9  10
ENDBRANCH   6   9
ENDBRANCH   2   3
BRANCH   2  20
ATOM     20  N   UNL     1      47.582   6.236  14.878  0.00  0.00    +0.000 N 
ATOM     21  C   UNL     1      48.709   6.150  15.656  0.00  0.00    +0.000 C 
ATOM     22  O   UNL     1      49.777   6.655  15.317  0.00  0.00    +0.000 OA
ATOM     23  H   UNL     1      46.733   5.756  15.155  0.00  0.00    +0.000 HD
BRANCH  21  24
ATOM     24  C   UNL     1      48.569   5.469  16.948  0.00  0.00    +0.000 A 
ATOM     25  C   UNL     1      48.609   4.082  17.003  0.00  0.00    +0.000 A 
ATOM     26  S   UNL     1      48.453   3.455  18.581  0.00  0.00    +0.000 S 
ATOM     27  C   UNL     1      48.273   5.013  19.241  0.00  0.00    +0.000 A 
ATOM     28  N   UNL     1      48.063   5.190  20.573  0.00  0.00    +0.000 NA
ATOM     29  C   UNL     1      47.890   6.419  20.927  0.00  0.00    +0.000 A 
ATOM     30  N   UNL     1      47.922   7.490  20.073  0.00  0.00    +0.000 N 
ATOM     31  C   UNL     1      48.214   7.367  18.736  0.00  0.00    +0.000 A 
ATOM     32  O   UNL     1      48.374   8.357  18.032  0.00  0.00    +0.000 OA
ATOM     33  C   UNL     1      48.362   6.000  18.274  0.00  0.00    +0.000 A 
ATOM     34  H   UNL     1      47.813   8.431  20.418  0.00  0.00    +0.000 HD
ENDBRANCH  21  24
ENDBRANCH   2  20
TORSDOF 6
ENDMDL
MODEL 3
REMARK VINA RESULT:    -7.627      2.804      4.484
REMARK INTER + INTRA:         -11.427
REMARK INTER:                 -10.203
REMARK INTRA:                  -1.223
REMARK UNBOUND:                -1.125
REMARK  Name = 
REMARK  7 active torsions:
REMARK  status: ('A' for Active; 'I' for Inactive)
REMARK    1  A    between atoms: C_1  and  C_2
REMARK    2  A    between atoms: C_2  and  N_3
REMARK    3  A    between atoms: C_2  and  C_16
REMARK    4  A    between atoms: C_4  and  C_6
REMARK    5  A    between atoms: C_19  and  C_20
REMARK    6  A    between atoms: C_20  and  N_21
REMARK    7  A    between atoms: C_22  and  C_24
REMARK                            x       y       z     vdW  Elec       q    Type
REMARK                         _______ _______ _______ _____ _____    ______ ____
ROOT
ATOM      1  C   UNL     1      47.285   4.553  15.235  0.00  0.00    +0.000 C 
ATOM      2  C   UNL     1      47.127   5.790  14.344  0.00  0.00    +0.000 C 
ENDROOT
BRANCH   2   3
ATOM      3  C   UNL     1      46.308   5.491  13.096  0.00  0.00    +0.000 A 
ATOM      4  C   UNL     1      45.408   4.415  13.107  0.00  0.00    +0.000 A 
ATOM      5  C   UNL     1      44.707   4.048  11.954  0.00  0.00    +0.000 A 
ATOM      6  C   UNL     1      44.888   4.747  10.755  0.00  0.00    +0.000 A 
ATOM      7  C   UNL     1      45.726   5.870  10.757  0.00  0.00    +0.000 A 
ATOM      8  C   UNL     1      46.432   6.237  11.912  0.00  0.00    +0.000 A 
BRANCH   6   9
ATOM      9  C   UNL     1      44.196   4.294   9.496  0.00  0.00    +0.000 C 
BRANCH   9  10
ATOM     10  N   UNL     1      45.137   3.969   8.454  0.00  0.00    +0.000 N 
ATOM     11  C   UNL     1      45.638   2.698   8.319  0.00  0.00    +0.000 C 
ATOM     12  O   UNL     1      45.337   1.783   9.081  0.00  0.00    +0.000 OA
ATOM     13  H   UNL     1      45.328   4.665   7.750  0.00  0.00    +0.000 HD
BRANCH  11  14
ATOM     14  C   UNL     1      46.538   2.509   7.210  0.00  0.00    +0.000 A 
ATOM     15  C   UNL     1      46.695   3.157   5.999  0.00  0.00    +0.000 A 
ATOM     16  C   UNL     1      47.765   2.499   5.365  0.00  0.00    +0.000 A 
ATOM     17  N   UNL     1      48.259   1.506   6.104  0.00  0.00    +0.000 NA
ATOM     18  N   UNL     1      47.501   1.531   7.215  0.00  0.00    +0.000 N 
ATOM     19  H   UNL     1      47.686   0.858   7.954  0.00  0.00    +0.000 HD
ENDBRANCH  11  14
ENDBRANCH   9  10
ENDBRANCH   6   9
ENDBRANCH   2   3
BRANCH   2  20
ATOM     20  N   UNL     1      48.420   6.350  14.010  0.00  0.00    +0.000 N 
ATOM     21  C   UNL     1      48.966   7.394  14.714  0.00  0.00    +0.000 C 
ATOM     22  O   UNL     1      48.371   7.941  15.640  0.00  0.00    +0.000 OA
ATOM     23  H   UNL     1      48.909   5.962  13.211  0.00  0.00    +0.000 HD
BRANCH  21  24
ATOM     24  C   UNL     1      50.328   7.799  14.344  0.00  0.00    +0.000 A 
ATOM     25  C   UNL     1      51.356   7.682  15.271  0.00  0.00    +0.000 A 
ATOM     26  S   UNL     1      52.875   8.175  14.673  0.00  0.00    +0.000 S 
ATOM     27  C   UNL     1      52.203   8.611  13.171  0.00  0.00    +0.000 A 
ATOM     28  N   UNL     1      52.974   9.148  12.189  0.00  0.00    +0.000 NA
ATOM     29  C   UNL     1      52.325   9.482  11.124  0.00  0.00    +0.000 A 
ATOM     30  N   UNL     1      50.977   9.314  10.946  0.00  0.00    +0.000 N 
ATOM     31  C   UNL     1      50.175   8.700  11.877  0.00  0.00    +0.000 A 
ATOM     32  O   UNL     1      49.004   8.438  11.626  0.00  0.00    +0.000 OA
ATOM     33  C   UNL     1      50.844   8.355  13.117  0.00  0.00    +0.000 A 
ATOM     34  H   UNL     1      50.535   9.565  10.076  0.00  0.00    +0.000 HD
ENDBRANCH  21  24
ENDBRANCH   2  20
TORSDOF 6
ENDMDL
MODEL 4
REMARK VINA RESULT:    -7.554      3.961      5.952
REMARK INTER + INTRA:         -11.328
REMARK INTER:                 -10.419
REMARK INTRA:                  -0.909
REMARK UNBOUND:                -1.125
REMARK  Name = 
REMARK  7 active torsions:
REMARK  status: ('A' for Active; 'I' for Inactive)
REMARK    1  A    between atoms: C_1  and  C_2
REMARK    2  A    between atoms: C_2  and  N_3
REMARK    3  A    between atoms: C_2  and  C_16
REMARK    4  A    between atoms: C_4  and  C_6
REMARK    5  A    between atoms: C_19  and  C_20
REMARK    6  A    between atoms: C_20  and  N_21
REMARK    7  A    between atoms: C_22  and  C_24
REMARK                            x       y       z     vdW  Elec       q    Type
REMARK                         _______ _______ _______ _____ _____    ______ ____
ROOT
ATOM      1  C   UNL     1      46.662   3.448  13.220  0.00  0.00    +0.000 C 
ATOM      2  C   UNL     1      46.318   4.642  14.116  0.00  0.00    +0.000 C 
ENDROOT
BRANCH   2   3
ATOM      3  C   UNL     1      45.963   5.879  13.303  0.00  0.00    +0.000 A 
ATOM      4  C   UNL     1      46.737   7.040  13.447  0.00  0.00    +0.000 A 
ATOM      5  C   UNL     1      46.390   8.226  12.793  0.00  0.00    +0.000 A 
ATOM      6  C   UNL     1      45.255   8.285  11.976  0.00  0.00    +0.000 A 
ATOM      7  C   UNL     1      44.521   7.110  11.767  0.00  0.00    +0.000 A 
ATOM      8  C   UNL     1      44.867   5.921  12.426  0.00  0.00    +0.000 A 
BRANCH   6   9
ATOM      9  C   UNL     1      44.837   9.587  11.343  0.00  0.00    +0.000 C 
BRANCH   9  10
ATOM     10  N   UNL     1      43.411   9.780  11.405  0.00  0.00    +0.000 N 
ATOM     11  C   UNL     1      42.722  10.333  10.353  0.00  0.00    +0.000 C 
ATOM     12  O   UNL     1      43.276  10.710   9.324  0.00  0.00    +0.000 OA
ATOM     13  H   UNL     1      42.910   9.391  12.188  0.00  0.00    +0.000 HD
BRANCH  11  14
ATOM     14  C   UNL     1      41.297  10.431  10.538  0.00  0.00    +0.000 A 
ATOM     15  C   UNL     1      40.323  11.235   9.975  0.00  0.00    +0.000 A 
ATOM     16  C   UNL     1      39.117  10.826  10.572  0.00  0.00    +0.000 A 
ATOM     17  N   UNL     1      39.295   9.842  11.452  0.00  0.00    +0.000 NA
ATOM     18  N   UNL     1      40.621   9.620  11.415  0.00  0.00    +0.000 N 
ATOM     19  H   UNL     1      41.017   8.895  12.008  0.00  0.00    +0.000 HD
ENDBRANCH  11  14
ENDBRANCH   9  10
ENDBRANCH   6   9
ENDBRANCH   2   3
BRANCH   2  20
ATOM     20  N   UNL     1      47.393   4.910  15.050  0.00  0.00    +0.000 N 
ATOM     21  C   UNL     1      47.423   4.357  16.305  0.00  0.00    +0.000 C 
ATOM     22  O   UNL     1      46.519   3.637  16.724  0.00  0.00    +0.000 OA
ATOM     23  H   UNL     1      48.123   5.550  14.756  0.00  0.00    +0.000 HD
BRANCH  21  24
ATOM     24  C   UNL     1      48.619   4.620  17.114  0.00  0.00    +0.000 A 
ATOM     25  C   UNL     1      48.757   5.841  17.761  0.00  0.00    +0.000 A 
ATOM     26  S   UNL     1      50.192   5.974  18.673  0.00  0.00    +0.000 S 
ATOM     27  C   UNL     1      50.705   4.424  18.192  0.00  0.00    +0.000 A 
ATOM     28  N   UNL     1      51.901   3.924  18.602  0.00  0.00    +0.000 NA
ATOM     29  C   UNL     1      52.188   2.762  18.118  0.00  0.00    +0.000 A 
ATOM     30  N   UNL     1      51.379   2.047  17.273  0.00  0.00    +0.000 N 
ATOM     31  C   UNL     1      50.128   2.475  16.901  0.00  0.00    +0.000 A 
ATOM     32  O   UNL     1      49.377   1.748  16.262  0.00  0.00    +0.000 OA
ATOM     33  C   UNL     1      49.779   3.802  17.372  0.00  0.00    +0.000 A 
ATOM     34  H   UNL     1      51.646   1.127  16.957  0.00  0.00    +0.000 HD
ENDBRANCH  21  24
ENDBRANCH   2  20
TORSDOF 6
ENDMDL
MODEL 5
REMARK VINA RESULT:    -7.531      2.827      3.858
REMARK INTER + INTRA:         -11.297
REMARK INTER:                 -10.170
REMARK INTRA:                  -1.127
REMARK UNBOUND:                -1.125
REMARK  Name = 
REMARK  7 active torsions:
REMARK  status: ('A' for Active; 'I' for Inactive)
REMARK    1  A    between atoms: C_1  and  C_2
REMARK    2  A    between atoms: C_2  and  N_3
REMARK    3  A    between atoms: C_2  and  C_16
REMARK    4  A    between atoms: C_4  and  C_6
REMARK    5  A    between atoms: C_19  and  C_20
REMARK    6  A    between atoms: C_20  and  N_21
REMARK    7  A    between atoms: C_22  and  C_24
REMARK                            x       y       z     vdW  Elec       q    Type
REMARK                         _______ _______ _______ _____ _____    ______ ____
ROOT
ATOM      1  C   UNL     1      47.278   4.548  15.147  0.00  0.00    +0.000 C 
ATOM      2  C   UNL     1      47.022   5.781  14.274  0.00  0.00    +0.000 C 
ENDROOT
BRANCH   2   3
ATOM      3  C   UNL     1      46.219   5.438  13.027  0.00  0.00    +0.000 A 
ATOM      4  C   UNL     1      45.367   4.324  13.045  0.00  0.00    +0.000 A 
ATOM      5  C   UNL     1      44.685   3.918  11.893  0.00  0.00    +0.000 A 
ATOM      6  C   UNL     1      44.836   4.616  10.689  0.00  0.00    +0.000 A 
ATOM      7  C   UNL     1      45.625   5.775  10.684  0.00  0.00    +0.000 A 
ATOM      8  C   UNL     1      46.312   6.179  11.838  0.00  0.00    +0.000 A 
BRANCH   6   9
ATOM      9  C   UNL     1      44.168   4.124   9.433  0.00  0.00    +0.000 C 
BRANCH   9  10
ATOM     10  N   UNL     1      45.122   3.845   8.390  0.00  0.00    +0.000 N 
ATOM     11  C   UNL     1      45.686   2.599   8.256  0.00  0.00    +0.000 C 
ATOM     12  O   UNL     1      45.431   1.672   9.020  0.00  0.00    +0.000 OA
ATOM     13  H   UNL     1      45.278   4.548   7.686  0.00  0.00    +0.000 HD
BRANCH  11  14
ATOM     14  C   UNL     1      46.594   2.454   7.147  0.00  0.00    +0.000 A 
ATOM     15  C   UNL     1      46.731   3.121   5.944  0.00  0.00    +0.000 A 
ATOM     16  C   UNL     1      47.822   2.507   5.305  0.00  0.00    +0.000 A 
ATOM     17  N   UNL     1      48.348   1.522   6.032  0.00  0.00    +0.000 NA
ATOM     18  N   UNL     1      47.588   1.509   7.143  0.00  0.00    +0.000 N 
ATOM     19  H   UNL     1      47.794   0.833   7.873  0.00  0.00    +0.000 HD
ENDBRANCH  11  14
ENDBRANCH   9  10
ENDBRANCH   6   9
ENDBRANCH   2   3
BRANCH   2  20
ATOM     20  N   UNL     1      48.267   6.441  13.939  0.00  0.00    +0.000 N 
ATOM     21  C   UNL     1      48.422   7.801  14.041  0.00  0.00    +0.000 C 
ATOM     22  O   UNL     1      47.501   8.540  14.381  0.00  0.00    +0.000 OA
ATOM     23  H   UNL     1      49.028   5.865  13.597  0.00  0.00    +0.000 HD
BRANCH  21  24
ATOM     24  C   UNL     1      49.764   8.334  13.777  0.00  0.00    +0.000 A 
ATOM     25  C   UNL     1      49.940   9.298  12.794  0.00  0.00    +0.000 A 
ATOM     26  S   UNL     1      51.554   9.823  12.632  0.00  0.00    +0.000 S 
ATOM     27  C   UNL     1      52.083   8.741  13.834  0.00  0.00    +0.000 A 
ATOM     28  N   UNL     1      53.398   8.655  14.168  0.00  0.00    +0.000 NA
ATOM     29  C   UNL     1      53.666   7.756  15.055  0.00  0.00    +0.000 A 
ATOM     30  N   UNL     1      52.736   6.944  15.649  0.00  0.00    +0.000 N 
ATOM     31  C   UNL     1      51.388   7.054  15.404  0.00  0.00    +0.000 A 
ATOM     32  O   UNL     1      50.574   6.411  16.057  0.00  0.00    +0.000 OA
ATOM     33  C   UNL     1      51.038   8.012  14.373  0.00  0.00    +0.000 A 
ATOM     34  H   UNL     1      53.004   6.284  16.361  0.00  0.00    +0.000 HD
ENDBRANCH  21  24
ENDBRANCH   2  20
TORSDOF 6
ENDMDL
MODEL 6
REMARK VINA RESULT:    -7.155      3.590      8.612
REMARK INTER + INTRA:         -10.789
REMARK INTER:                  -9.598
REMARK INTRA:                  -1.191
REMARK UNBOUND:                -1.125
REMARK  Name = 
REMARK  7 active torsions:
REMARK  status: ('A' for Active; 'I' for Inactive)
REMARK    1  A    between atoms: C_1  and  C_2
REMARK    2  A    between atoms: C_2  and  N_3
REMARK    3  A    between atoms: C_2  and  C_16
REMARK    4  A    between atoms: C_4  and  C_6
REMARK    5  A    between atoms: C_19  and  C_20
REMARK    6  A    between atoms: C_20  and  N_21
REMARK    7  A    between atoms: C_22  and  C_24
REMARK                            x       y       z     vdW  Elec       q    Type
REMARK                         _______ _______ _______ _____ _____    ______ ____
ROOT
ATOM      1  C   UNL     1      49.616   7.422  12.542  0.00  0.00    +0.000 C 
ATOM      2  C   UNL     1      48.319   7.115  13.299  0.00  0.00    +0.000 C 
ENDROOT
BRANCH   2   3
ATOM      3  C   UNL     1      48.590   6.629  14.716  0.00  0.00    +0.000 A 
ATOM      4  C   UNL     1      49.622   7.221  15.458  0.00  0.00    +0.000 A 
ATOM      5  C   UNL     1      49.966   6.742  16.727  0.00  0.00    +0.000 A 
ATOM      6  C   UNL     1      49.287   5.655  17.288  0.00  0.00    +0.000 A 
ATOM      7  C   UNL     1      48.204   5.108  16.585  0.00  0.00    +0.000 A 
ATOM      8  C   UNL     1      47.862   5.586  15.312  0.00  0.00    +0.000 A 
BRANCH   6   9
ATOM      9  C   UNL     1      49.718   5.088  18.615  0.00  0.00    +0.000 C 
BRANCH   9  10
ATOM     10  N   UNL     1      50.400   3.829  18.466  0.00  0.00    +0.000 N 
ATOM     11  C   UNL     1      51.760   3.774  18.280  0.00  0.00    +0.000 C 
ATOM     12  O   UNL     1      52.459   4.781  18.207  0.00  0.00    +0.000 OA
ATOM     13  H   UNL     1      49.878   2.981  18.621  0.00  0.00    +0.000 HD
BRANCH  11  14
ATOM     14  C   UNL     1      52.312   2.447  18.184  0.00  0.00    +0.000 A 
ATOM     15  C   UNL     1      52.014   1.353  17.392  0.00  0.00    +0.000 A 
ATOM     16  C   UNL     1      52.931   0.359  17.776  0.00  0.00    +0.000 A 
ATOM     17  N   UNL     1      53.754   0.772  18.739  0.00  0.00    +0.000 NA
ATOM     18  N   UNL     1      53.360   2.038  18.970  0.00  0.00    +0.000 N 
ATOM     19  H   UNL     1      53.846   2.585  19.675  0.00  0.00    +0.000 HD
ENDBRANCH  11  14
ENDBRANCH   9  10
ENDBRANCH   6   9
ENDBRANCH   2   3
BRANCH   2  20
ATOM     20  N   UNL     1      47.504   6.172  12.560  0.00  0.00    +0.000 N 
ATOM     21  C   UNL     1      46.448   6.574  11.781  0.00  0.00    +0.000 C 
ATOM     22  O   UNL     1      46.107   7.752  11.700  0.00  0.00    +0.000 OA
ATOM     23  H   UNL     1      47.722   5.186  12.656  0.00  0.00    +0.000 HD
BRANCH  21  24
ATOM     24  C   UNL     1      45.771   5.534  11.000  0.00  0.00    +0.000 A 
ATOM     25  C   UNL     1      45.804   5.584   9.612  0.00  0.00    +0.000 A 
ATOM     26  S   UNL     1      44.987   4.289   8.861  0.00  0.00    +0.000 S 
ATOM     27  C   UNL     1      44.515   3.644  10.363  0.00  0.00    +0.000 A 
ATOM     28  N   UNL     1      43.745   2.526  10.434  0.00  0.00    +0.000 NA
ATOM     29  C   UNL     1      43.416   2.179  11.634  0.00  0.00    +0.000 A 
ATOM     30  N   UNL     1      43.800   2.841  12.770  0.00  0.00    +0.000 N 
ATOM     31  C   UNL     1      44.646   3.924  12.751  0.00  0.00    +0.000 A 
ATOM     32  O   UNL     1      45.082   4.403  13.792  0.00  0.00    +0.000 OA
ATOM     33  C   UNL     1      45.000   4.389  11.424  0.00  0.00    +0.000 A 
ATOM     34  H   UNL     1      43.538   2.500  13.682  0.00  0.00    +0.000 HD
ENDBRANCH  21  24
ENDBRANCH   2  20
TORSDOF 6
ENDMDL
MODEL 7
REMARK VINA RESULT:    -7.033      2.167      3.864
REMARK INTER + INTRA:         -10.625
REMARK INTER:                  -9.694
REMARK INTRA:                  -0.931
REMARK UNBOUND:                -1.125
REMARK  Name = 
REMARK  7 active torsions:
REMARK  status: ('A' for Active; 'I' for Inactive)
REMARK    1  A    between atoms: C_1  and  C_2
REMARK    2  A    between atoms: C_2  and  N_3
REMARK    3  A    between atoms: C_2  and  C_16
REMARK    4  A    between atoms: C_4  and  C_6
REMARK    5  A    between atoms: C_19  and  C_20
REMARK    6  A    between atoms: C_20  and  N_21
REMARK    7  A    between atoms: C_22  and  C_24
REMARK                            x       y       z     vdW  Elec       q    Type
REMARK                         _______ _______ _______ _____ _____    ______ ____
ROOT
ATOM      1  C   UNL     1      47.695   3.489  15.892  0.00  0.00    +0.000 C 
ATOM      2  C   UNL     1      47.138   4.808  15.344  0.00  0.00    +0.000 C 
ENDROOT
BRANCH   2   3
ATOM      3  C   UNL     1      46.543   4.639  13.953  0.00  0.00    +0.000 A 
ATOM      4  C   UNL     1      46.279   5.778  13.178  0.00  0.00    +0.000 A 
ATOM      5  C   UNL     1      45.646   5.675  11.935  0.00  0.00    +0.000 A 
ATOM      6  C   UNL     1      45.257   4.428  11.433  0.00  0.00    +0.000 A 
ATOM      7  C   UNL     1      45.587   3.280  12.166  0.00  0.00    +0.000 A 
ATOM      8  C   UNL     1      46.219   3.384  13.414  0.00  0.00    +0.000 A 
BRANCH   6   9
ATOM      9  C   UNL     1      44.499   4.331  10.135  0.00  0.00    +0.000 C 
BRANCH   9  10
ATOM     10  N   UNL     1      45.361   3.992   9.032  0.00  0.00    +0.000 N 
ATOM     11  C   UNL     1      45.502   2.692   8.612  0.00  0.00    +0.000 C 
ATOM     12  O   UNL     1      44.929   1.754   9.160  0.00  0.00    +0.000 OA
ATOM     13  H   UNL     1      45.767   4.742   8.496  0.00  0.00    +0.000 HD
BRANCH  11  14
ATOM     14  C   UNL     1      46.367   2.506   7.476  0.00  0.00    +0.000 A 
ATOM     15  C   UNL     1      46.574   3.230   6.316  0.00  0.00    +0.000 A 
ATOM     16  C   UNL     1      47.566   2.524   5.613  0.00  0.00    +0.000 A 
ATOM     17  N   UNL     1      47.966   1.430   6.260  0.00  0.00    +0.000 NA
ATOM     18  N   UNL     1      47.227   1.440   7.384  0.00  0.00    +0.000 N 
ATOM     19  H   UNL     1      47.351   0.694   8.063  0.00  0.00    +0.000 HD
ENDBRANCH  11  14
ENDBRANCH   9  10
ENDBRANCH   6   9
ENDBRANCH   2   3
BRANCH   2  20
ATOM     20  N   UNL     1      48.152   5.842  15.367  0.00  0.00    +0.000 N 
ATOM     21  C   UNL     1      48.616   6.383  16.540  0.00  0.00    +0.000 C 
ATOM     22  O   UNL     1      48.167   6.052  17.634  0.00  0.00    +0.000 OA
ATOM     23  H   UNL     1      48.499   6.181  14.476  0.00  0.00    +0.000 HD
BRANCH  21  24
ATOM     24  C   UNL     1      49.720   7.344  16.432  0.00  0.00    +0.000 A 
ATOM     25  C   UNL     1      50.918   7.092  17.088  0.00  0.00    +0.000 A 
ATOM     26  S   UNL     1      52.099   8.297  16.840  0.00  0.00    +0.000 S 
ATOM     27  C   UNL     1      51.033   9.224  15.891  0.00  0.00    +0.000 A 
ATOM     28  N   UNL     1      51.415  10.425  15.380  0.00  0.00    +0.000 NA
ATOM     29  C   UNL     1      50.490  11.045  14.727  0.00  0.00    +0.000 A 
ATOM     30  N   UNL     1      49.222  10.567  14.526  0.00  0.00    +0.000 N 
ATOM     31  C   UNL     1      48.819   9.324  14.951  0.00  0.00    +0.000 A 
ATOM     32  O   UNL     1      47.726   8.871  14.631  0.00  0.00    +0.000 OA
ATOM     33  C   UNL     1      49.803   8.608  15.740  0.00  0.00    +0.000 A 
ATOM     34  H   UNL     1      48.554  11.085  13.976  0.00  0.00    +0.000 HD
ENDBRANCH  21  24
ENDBRANCH   2  20
TORSDOF 6
ENDMDL
MODEL 8
REMARK VINA RESULT:    -6.754      3.571      5.090
REMARK INTER + INTRA:         -10.249
REMARK INTER:                  -8.985
REMARK INTRA:                  -1.263
REMARK UNBOUND:                -1.125
REMARK  Name = 
REMARK  7 active torsions:
REMARK  status: ('A' for Active; 'I' for Inactive)
REMARK    1  A    between atoms: C_1  and  C_2
REMARK    2  A    between atoms: C_2  and  N_3
REMARK    3  A    between atoms: C_2  and  C_16
REMARK    4  A    between atoms: C_4  and  C_6
REMARK    5  A    between atoms: C_19  and  C_20
REMARK    6  A    between atoms: C_20  and  N_21
REMARK    7  A    between atoms: C_22  and  C_24
REMARK                            x       y       z     vdW  Elec       q    Type
REMARK                         _______ _______ _______ _____ _____    ______ ____
ROOT
ATOM      1  C   UNL     1      48.532   6.402  15.787  0.00  0.00    +0.000 C 
ATOM      2  C   UNL     1      48.478   7.163  14.458  0.00  0.00    +0.000 C 
ENDROOT
BRANCH   2   3
ATOM      3  C   UNL     1      47.583   6.468  13.441  0.00  0.00    +0.000 A 
ATOM      4  C   UNL     1      47.338   7.088  12.207  0.00  0.00    +0.000 A 
ATOM      5  C   UNL     1      46.448   6.531  11.283  0.00  0.00    +0.000 A 
ATOM      6  C   UNL     1      45.775   5.338  11.569  0.00  0.00    +0.000 A 
ATOM      7  C   UNL     1      46.073   4.674  12.767  0.00  0.00    +0.000 A 
ATOM      8  C   UNL     1      46.963   5.234  13.695  0.00  0.00    +0.000 A 
BRANCH   6   9
ATOM      9  C   UNL     1      44.753   4.788  10.609  0.00  0.00    +0.000 C 
BRANCH   9  10
ATOM     10  N   UNL     1      45.253   3.646   9.888  0.00  0.00    +0.000 N 
ATOM     11  C   UNL     1      45.844   3.785   8.656  0.00  0.00    +0.000 C 
ATOM     12  O   UNL     1      45.957   4.871   8.095  0.00  0.00    +0.000 OA
ATOM     13  H   UNL     1      45.270   2.755  10.358  0.00  0.00    +0.000 HD
BRANCH  11  14
ATOM     14  C   UNL     1      46.331   2.563   8.069  0.00  0.00    +0.000 A 
ATOM     15  C   UNL     1      45.969   1.236   8.209  0.00  0.00    +0.000 A 
ATOM     16  C   UNL     1      46.825   0.527   7.349  0.00  0.00    +0.000 A 
ATOM     17  N   UNL     1      47.674   1.327   6.706  0.00  0.00    +0.000 NA
ATOM     18  N   UNL     1      47.357   2.554   7.157  0.00  0.00    +0.000 N 
ATOM     19  H   UNL     1      47.871   3.357   6.806  0.00  0.00    +0.000 HD
ENDBRANCH  11  14
ENDBRANCH   9  10
ENDBRANCH   6   9
ENDBRANCH   2   3
BRANCH   2  20
ATOM     20  N   UNL     1      49.811   7.378  13.934  0.00  0.00    +0.000 N 
ATOM     21  C   UNL     1      50.493   8.552  14.133  0.00  0.00    +0.000 C 
ATOM     22  O   UNL     1      49.994   9.504  14.729  0.00  0.00    +0.000 OA
ATOM     23  H   UNL     1      50.226   6.634  13.384  0.00  0.00    +0.000 HD
BRANCH  21  24
ATOM     24  C   UNL     1      51.875   8.603  13.645  0.00  0.00    +0.000 A 
ATOM     25  C   UNL     1      52.904   8.925  14.521  0.00  0.00    +0.000 A 
ATOM     26  S   UNL     1      54.447   8.919  13.797  0.00  0.00    +0.000 S 
ATOM     27  C   UNL     1      53.791   8.538  12.274  0.00  0.00    +0.000 A 
ATOM     28  N   UNL     1      54.587   8.417  11.179  0.00  0.00    +0.000 NA
ATOM     29  C   UNL     1      53.952   8.180  10.080  0.00  0.00    +0.000 A 
ATOM     30  N   UNL     1      52.593   8.037   9.980  0.00  0.00    +0.000 N 
ATOM     31  C   UNL     1      51.759   8.067  11.071  0.00  0.00    +0.000 A 
ATOM     32  O   UNL     1      50.569   7.795  10.964  0.00  0.00    +0.000 OA
ATOM     33  C   UNL     1      52.416   8.387  12.324  0.00  0.00    +0.000 A 
ATOM     34  H   UNL     1      52.159   7.818   9.096  0.00  0.00    +0.000 HD
ENDBRANCH  21  24
ENDBRANCH   2  20
TORSDOF 6
ENDMDL
MODEL 9
REMARK VINA RESULT:    -6.662      3.329      8.821
REMARK INTER + INTRA:         -10.123
REMARK INTER:                  -8.949
REMARK INTRA:                  -1.175
REMARK UNBOUND:                -1.125
REMARK  Name = 
REMARK  7 active torsions:
REMARK  status: ('A' for Active; 'I' for Inactive)
REMARK    1  A    between atoms: C_1  and  C_2
REMARK    2  A    between atoms: C_2  and  N_3
REMARK    3  A    between atoms: C_2  and  C_16
REMARK    4  A    between atoms: C_4  and  C_6
REMARK    5  A    between atoms: C_19  and  C_20
REMARK    6  A    between atoms: C_20  and  N_21
REMARK    7  A    between atoms: C_22  and  C_24
REMARK                            x       y       z     vdW  Elec       q    Type
REMARK                         _______ _______ _______ _____ _____    ______ ____
ROOT
ATOM      1  C   UNL     1      47.997   8.206  11.673  0.00  0.00    +0.000 C 
ATOM      2  C   UNL     1      47.388   7.435  12.848  0.00  0.00    +0.000 C 
ENDROOT
BRANCH   2   3
ATOM      3  C   UNL     1      48.425   7.114  13.916  0.00  0.00    +0.000 A 
ATOM      4  C   UNL     1      48.088   6.235  14.956  0.00  0.00    +0.000 A 
ATOM      5  C   UNL     1      48.976   5.987  16.007  0.00  0.00    +0.000 A 
ATOM      6  C   UNL     1      50.226   6.614  16.050  0.00  0.00    +0.000 A 
ATOM      7  C   UNL     1      50.599   7.434  14.976  0.00  0.00    +0.000 A 
ATOM      8  C   UNL     1      49.708   7.685  13.923  0.00  0.00    +0.000 A 
BRANCH   6   9
ATOM      9  C   UNL     1      51.142   6.411  17.229  0.00  0.00    +0.000 C 
BRANCH   9  10
ATOM     10  N   UNL     1      51.711   5.087  17.246  0.00  0.00    +0.000 N 
ATOM     11  C   UNL     1      51.408   4.196  18.246  0.00  0.00    +0.000 C 
ATOM     12  O   UNL     1      50.667   4.479  19.183  0.00  0.00    +0.000 OA
ATOM     13  H   UNL     1      52.241   4.785  16.444  0.00  0.00    +0.000 HD
BRANCH  11  14
ATOM     14  C   UNL     1      52.019   2.898  18.114  0.00  0.00    +0.000 A 
ATOM     15  C   UNL     1      53.296   2.425  18.350  0.00  0.00    +0.000 A 
ATOM     16  C   UNL     1      53.245   1.055  18.039  0.00  0.00    +0.000 A 
ATOM     17  N   UNL     1      52.035   0.671  17.634  0.00  0.00    +0.000 NA
ATOM     18  N   UNL     1      51.310   1.803  17.687  0.00  0.00    +0.000 N 
ATOM     19  H   UNL     1      50.329   1.773  17.424  0.00  0.00    +0.000 HD
ENDBRANCH  11  14
ENDBRANCH   9  10
ENDBRANCH   6   9
ENDBRANCH   2   3
BRANCH   2  20
ATOM     20  N   UNL     1      46.716   6.239  12.384  0.00  0.00    +0.000 N 
ATOM     21  C   UNL     1      45.350   6.109  12.421  0.00  0.00    +0.000 C 
ATOM     22  O   UNL     1      44.623   6.983  12.889  0.00  0.00    +0.000 OA
ATOM     23  H   UNL     1      47.292   5.474  12.050  0.00  0.00    +0.000 HD
BRANCH  21  24
ATOM     24  C   UNL     1      44.785   4.894  11.822  0.00  0.00    +0.000 A 
ATOM     25  C   UNL     1      44.005   4.044  12.595  0.00  0.00    +0.000 A 
ATOM     26  S   UNL     1      43.413   2.693  11.741  0.00  0.00    +0.000 S 
ATOM     27  C   UNL     1      44.221   3.169  10.321  0.00  0.00    +0.000 A 
ATOM     28  N   UNL     1      44.157   2.413   9.192  0.00  0.00    +0.000 NA
ATOM     29  C   UNL     1      44.861   2.863   8.208  0.00  0.00    +0.000 A 
ATOM     30  N   UNL     1      45.612   4.009   8.245  0.00  0.00    +0.000 N 
ATOM     31  C   UNL     1      45.638   4.846   9.334  0.00  0.00    +0.000 A 
ATOM     32  O   UNL     1      46.205   5.932   9.281  0.00  0.00    +0.000 OA
ATOM     33  C   UNL     1      44.908   4.358  10.488  0.00  0.00    +0.000 A 
ATOM     34  H   UNL     1      46.113   4.326   7.429  0.00  0.00    +0.000 HD
ENDBRANCH  21  24
ENDBRANCH   2  20
TORSDOF 6
ENDMDL
