MODEL 1
REMARK VINA RESULT:    -7.990      0.000      0.000
REMARK INTER + INTRA:         -13.332
REMARK INTER:                 -11.727
REMARK INTRA:                  -1.604
REMARK UNBOUND:                -1.604
REMARK  Name = 
REMARK  9 active torsions:
REMARK  status: ('A' for Active; 'I' for Inactive)
REMARK    1  A    between atoms: N_1  and  C_2
REMARK    2  A    between atoms: C_2  and  N_3
REMARK    3  A    between atoms: C_2  and  C_19
REMARK    4  A    between atoms: C_4  and  C_6
REMARK    5  A    between atoms: N_12  and  C_13
REMARK    6  A    between atoms: C_13  and  C_14
REMARK    7  A    between atoms: C_14  and  O_15
REMARK    8  A    between atoms: C_22  and  O_23
REMARK    9  A    between atoms: O_23  and  C_24
REMARK                            x       y       z     vdW  Elec       q    Type
REMARK                         _______ _______ _______ _____ _____    ______ ____
ROOT
ATOM      1  N   UNL     1      46.645   6.183  13.355  0.00  0.00    +0.000 N 
ATOM      2  C   UNL     1      47.032   7.471  13.588  0.00  0.00    +0.000 C 
ATOM      3  O   UNL     1      46.298   8.439  13.408  0.00  0.00    +0.000 OA
ATOM      4  H   UNL     1      47.280   5.425  13.551  0.00  0.00    +0.000 HD
ENDROOT
BRANCH   2   5
ATOM      5  C   UNL     1      48.412   7.625  14.062  0.00  0.00    +0.000 A 
ATOM      6  C   UNL     1      49.226   8.619  13.540  0.00  0.00    +0.000 A 
ATOM      7  S   UNL     1      50.787   8.647  14.231  0.00  0.00    +0.000 S 
ATOM      8  C   UNL     1      50.407   7.364  15.284  0.00  0.00    +0.000 A 
ATOM      9  N   UNL     1      51.309   6.912  16.192  0.00  0.00    +0.000 NA
ATOM     10  C   UNL     1      50.864   5.990  16.983  0.00  0.00    +0.000 A 
ATOM     11  N   UNL     1      49.597   5.443  16.939  0.00  0.00    +0.000 N 
ATOM     12  C   UNL     1      48.695   5.803  15.947  0.00  0.00    +0.000 A 
ATOM     13  O   UNL     1      47.636   5.200  15.777  0.00  0.00    +0.000 OA
ATOM     14  C   UNL     1      49.124   6.896  15.091  0.00  0.00    +0.000 A 
BRANCH  11  15
ATOM     15  C   UNL     1      49.216   4.383  17.869  0.00  0.00    +0.000 C 
BRANCH  15  16
ATOM     16  C   UNL     1      49.801   3.026  17.472  0.00  0.00    +0.000 C 
BRANCH  16  17
ATOM     17  O   UNL     1      49.055   2.463  16.398  0.00  0.00    +0.000 OA
ATOM     18  H   UNL     1      48.850   1.541  16.632  0.00  0.00    +0.000 HD
ENDBRANCH  16  17
ENDBRANCH  15  16
ENDBRANCH  11  15
ENDBRANCH   2   5
BRANCH   1  19
ATOM     19  C   UNL     1      45.315   5.812  13.030  0.00  0.00    +0.000 C 
BRANCH  19  20
ATOM     20  C   UNL     1      45.162   5.251  11.637  0.00  0.00    +0.000 A 
ATOM     21  C   UNL     1      44.371   4.106  11.469  0.00  0.00    +0.000 A 
ATOM     22  C   UNL     1      44.256   3.495  10.223  0.00  0.00    +0.000 A 
ATOM     23  C   UNL     1      44.882   4.054   9.107  0.00  0.00    +0.000 A 
ATOM     24  C   UNL     1      45.705   5.169   9.263  0.00  0.00    +0.000 A 
ATOM     25  C   UNL     1      45.848   5.763  10.521  0.00  0.00    +0.000 A 
BRANCH  23  26
ATOM     26  O   UNL     1      44.785   3.545   7.831  0.00  0.00    +0.000 OA
BRANCH  26  27
ATOM     27  C   UNL     1      45.863   2.875   7.297  0.00  0.00    +0.000 A 
ATOM     28  C   UNL     1      46.571   3.311   6.179  0.00  0.00    +0.000 A 
ATOM     29  C   UNL     1      47.594   2.511   5.707  0.00  0.00    +0.000 A 
ATOM     30  N   UNL     1      47.984   1.364   6.303  0.00  0.00    +0.000 NA
ATOM     31  C   UNL     1      47.322   1.005   7.424  0.00  0.00    +0.000 A 
ATOM     32  C   UNL     1      46.266   1.721   7.959  0.00  0.00    +0.000 A 
ENDBRANCH  26  27
ENDBRANCH  23  26
ENDBRANCH  19  20
BRANCH  19  33
ATOM     33  N   UNL     1      44.999   4.797  14.009  0.00  0.00    +0.000 NA
ATOM     34  H   UNL     1      43.986   4.700  14.035  0.00  0.00    +0.000 HD
ATOM     35  H   UNL     1      45.273   5.132  14.928  0.00  0.00    +0.000 HD
ENDBRANCH  19  33
ENDBRANCH   1  19
TORSDOF 9
ENDMDL
MODEL 2
REMARK VINA RESULT:    -7.849      1.507      2.105
REMARK INTER + INTRA:         -13.124
REMARK INTER:                 -12.286
REMARK INTRA:                  -0.838
REMARK UNBOUND:                -1.604
REMARK  Name = 
REMARK  9 active torsions:
REMARK  status: ('A' for Active; 'I' for Inactive)
REMARK    1  A    between atoms: N_1  and  C_2
REMARK    2  A    between atoms: C_2  and  N_3
REMARK    3  A    between atoms: C_2  and  C_19
REMARK    4  A    between atoms: C_4  and  C_6
REMARK    5  A    between atoms: N_12  and  C_13
REMARK    6  A    between atoms: C_13  and  C_14
REMARK    7  A    between atoms: C_14  and  O_15
REMARK    8  A    between atoms: C_22  and  O_23
REMARK    9  A    between atoms: O_23  and  C_24
REMARK                            x       y       z     vdW  Elec       q    Type
REMARK                         _______ _______ _______ _____ _____    ______ ____
ROOT
ATOM      1  N   UNL     1      45.309   5.523  13.568  0.00  0.00    +0.000 N 
ATOM      2  C   UNL     1      46.448   4.794  13.753  0.00  0.00    +0.000 C 
ATOM      3  O   UNL     1      46.537   3.601  13.477  0.00  0.00    +0.000 OA
ATOM      4  H   UNL     1      45.304   6.508  13.784  0.00  0.00    +0.000 HD
ENDROOT
BRANCH   2   5
ATOM      5  C   UNL     1      47.574   5.540  14.327  0.00  0.00    +0.000 A 
ATOM      6  C   UNL     1      48.116   6.622  13.651  0.00  0.00    +0.000 A 
ATOM      7  S   UNL     1      49.404   7.366  14.488  0.00  0.00    +0.000 S 
ATOM      8  C   UNL     1      49.243   6.299  15.804  0.00  0.00    +0.000 A 
ATOM      9  N   UNL     1      50.030   6.417  16.904  0.00  0.00    +0.000 NA
ATOM     10  C   UNL     1      49.749   5.593  17.861  0.00  0.00    +0.000 A 
ATOM     11  N   UNL     1      48.763   4.627  17.819  0.00  0.00    +0.000 N 
ATOM     12  C   UNL     1      48.023   4.406  16.666  0.00  0.00    +0.000 A 
ATOM     13  O   UNL     1      47.275   3.437  16.545  0.00  0.00    +0.000 OA
ATOM     14  C   UNL     1      48.248   5.365  15.597  0.00  0.00    +0.000 A 
BRANCH  11  15
ATOM     15  C   UNL     1      48.556   3.732  18.956  0.00  0.00    +0.000 C 
BRANCH  15  16
ATOM     16  C   UNL     1      48.409   4.494  20.274  0.00  0.00    +0.000 C 
BRANCH  16  17
ATOM     17  O   UNL     1      47.274   5.352  20.223  0.00  0.00    +0.000 OA
ATOM     18  H   UNL     1      46.582   4.899  19.710  0.00  0.00    +0.000 HD
ENDBRANCH  16  17
ENDBRANCH  15  16
ENDBRANCH  11  15
ENDBRANCH   2   5
BRANCH   1  19
ATOM     19  C   UNL     1      44.162   5.026  12.899  0.00  0.00    +0.000 C 
BRANCH  19  20
ATOM     20  C   UNL     1      44.383   4.752  11.431  0.00  0.00    +0.000 A 
ATOM     21  C   UNL     1      43.824   3.588  10.885  0.00  0.00    +0.000 A 
ATOM     22  C   UNL     1      44.060   3.239   9.558  0.00  0.00    +0.000 A 
ATOM     23  C   UNL     1      44.810   4.080   8.734  0.00  0.00    +0.000 A 
ATOM     24  C   UNL     1      45.407   5.221   9.271  0.00  0.00    +0.000 A 
ATOM     25  C   UNL     1      45.199   5.554  10.613  0.00  0.00    +0.000 A 
BRANCH  23  26
ATOM     26  O   UNL     1      45.054   3.838   7.400  0.00  0.00    +0.000 OA
BRANCH  26  27
ATOM     27  C   UNL     1      46.079   2.986   7.054  0.00  0.00    +0.000 A 
ATOM     28  C   UNL     1      46.458   1.881   7.814  0.00  0.00    +0.000 A 
ATOM     29  C   UNL     1      47.546   1.144   7.387  0.00  0.00    +0.000 A 
ATOM     30  N   UNL     1      48.223   1.398   6.247  0.00  0.00    +0.000 NA
ATOM     31  C   UNL     1      47.787   2.435   5.499  0.00  0.00    +0.000 A 
ATOM     32  C   UNL     1      46.728   3.250   5.854  0.00  0.00    +0.000 A 
ENDBRANCH  26  27
ENDBRANCH  23  26
ENDBRANCH  19  20
BRANCH  19  33
ATOM     33  N   UNL     1      43.874   3.792  13.595  0.00  0.00    +0.000 NA
ATOM     34  H   UNL     1      43.184   3.999  14.314  0.00  0.00    +0.000 HD
ATOM     35  H   UNL     1      44.710   3.491  14.086  0.00  0.00    +0.000 HD
ENDBRANCH  19  33
ENDBRANCH   1  19
TORSDOF 9
ENDMDL
MODEL 3
REMARK VINA RESULT:    -7.218      2.382      3.442
REMARK INTER + INTRA:         -12.198
REMARK INTER:                 -10.718
REMARK INTRA:                  -1.479
REMARK UNBOUND:                -1.604
REMARK  Name = 
REMARK  9 active torsions:
REMARK  status: ('A' for Active; 'I' for Inactive)
REMARK    1  A    between atoms: N_1  and  C_2
REMARK    2  A    between atoms: C_2  and  N_3
REMARK    3  A    between atoms: C_2  and  C_19
REMARK    4  A    between atoms: C_4  and  C_6
REMARK    5  A    between atoms: N_12  and  C_13
REMARK    6  A    between atoms: C_13  and  C_14
REMARK    7  A    between atoms: C_14  and  O_15
REMARK    8  A    between atoms: C_22  and  O_23
REMARK    9  A    between atoms: O_23  and  C_24
REMARK                            x       y       z     vdW  Elec       q    Type
REMARK                         _______ _______ _______ _____ _____    ______ ____
ROOT
ATOM      1  N   UNL     1      47.892   7.854  15.041  0.00  0.00    +0.000 N 
ATOM      2  C   UNL     1      48.641   8.552  15.944  0.00  0.00    +0.000 C 
ATOM      3  O   UNL     1      49.395   9.469  15.630  0.00  0.00    +0.000 OA
ATOM      4  H   UNL     1      47.266   7.132  15.361  0.00  0.00    +0.000 HD
ENDROOT
BRANCH   2   5
ATOM      5  C   UNL     1      48.494   8.117  17.338  0.00  0.00    +0.000 A 
ATOM      6  C   UNL     1      47.935   8.965  18.282  0.00  0.00    +0.000 A 
ATOM      7  S   UNL     1      47.834   8.270  19.838  0.00  0.00    +0.000 S 
ATOM      8  C   UNL     1      48.487   6.798  19.288  0.00  0.00    +0.000 A 
ATOM      9  N   UNL     1      48.634   5.739  20.124  0.00  0.00    +0.000 NA
ATOM     10  C   UNL     1      49.065   4.658  19.559  0.00  0.00    +0.000 A 
ATOM     11  N   UNL     1      49.399   4.534  18.225  0.00  0.00    +0.000 N 
ATOM     12  C   UNL     1      49.371   5.630  17.373  0.00  0.00    +0.000 A 
ATOM     13  O   UNL     1      49.838   5.586  16.236  0.00  0.00    +0.000 OA
ATOM     14  C   UNL     1      48.811   6.842  17.947  0.00  0.00    +0.000 A 
BRANCH  11  15
ATOM     15  C   UNL     1      49.905   3.266  17.704  0.00  0.00    +0.000 C 
BRANCH  15  16
ATOM     16  C   UNL     1      48.827   2.474  16.962  0.00  0.00    +0.000 C 
BRANCH  16  17
ATOM     17  O   UNL     1      49.401   1.764  15.870  0.00  0.00    +0.000 OA
ATOM     18  H   UNL     1      49.281   2.304  15.069  0.00  0.00    +0.000 HD
ENDBRANCH  16  17
ENDBRANCH  15  16
ENDBRANCH  11  15
ENDBRANCH   2   5
BRANCH   1  19
ATOM     19  C   UNL     1      47.786   8.209  13.672  0.00  0.00    +0.000 C 
BRANCH  19  20
ATOM     20  C   UNL     1      46.891   7.292  12.872  0.00  0.00    +0.000 A 
ATOM     21  C   UNL     1      45.906   7.873  12.062  0.00  0.00    +0.000 A 
ATOM     22  C   UNL     1      44.999   7.080  11.363  0.00  0.00    +0.000 A 
ATOM     23  C   UNL     1      45.099   5.688  11.414  0.00  0.00    +0.000 A 
ATOM     24  C   UNL     1      46.048   5.094  12.247  0.00  0.00    +0.000 A 
ATOM     25  C   UNL     1      46.937   5.890  12.975  0.00  0.00    +0.000 A 
BRANCH  23  26
ATOM     26  O   UNL     1      44.277   4.829  10.720  0.00  0.00    +0.000 OA
BRANCH  26  27
ATOM     27  C   UNL     1      44.832   3.985   9.785  0.00  0.00    +0.000 A 
ATOM     28  C   UNL     1      44.702   2.597   9.818  0.00  0.00    +0.000 A 
ATOM     29  C   UNL     1      45.364   1.862   8.854  0.00  0.00    +0.000 A 
ATOM     30  N   UNL     1      46.077   2.413   7.849  0.00  0.00    +0.000 NA
ATOM     31  C   UNL     1      46.126   3.762   7.806  0.00  0.00    +0.000 A 
ATOM     32  C   UNL     1      45.524   4.585   8.740  0.00  0.00    +0.000 A 
ENDBRANCH  26  27
ENDBRANCH  23  26
ENDBRANCH  19  20
BRANCH  19  33
ATOM     33  N   UNL     1      47.222   9.539  13.711  0.00  0.00    +0.000 NA
ATOM     34  H   UNL     1      47.744  10.073  14.402  0.00  0.00    +0.000 HD
ATOM     35  H   UNL     1      46.270   9.480  14.061  0.00  0.00    +0.000 HD
ENDBRANCH  19  33
ENDBRANCH   1  19
TORSDOF 9
ENDMDL
MODEL 4
REMARK VINA RESULT:    -7.104      1.493      2.168
REMARK INTER + INTRA:         -12.031
REMARK INTER:                 -11.178
REMARK INTRA:                  -0.853
REMARK UNBOUND:                -1.604
REMARK  Name = 
REMARK  9 active torsions:
REMARK  status: ('A' for Active; 'I' for Inactive)
REMARK    1  A    between atoms: N_1  and  C_2
REMARK    2  A    between atoms: C_2  and  N_3
REMARK    3  A    between atoms: C_2  and  C_19
REMARK    4  A    between atoms: C_4  and  C_6
REMARK    5  A    between atoms: N_12  and  C_13
REMARK    6  A    between atoms: C_13  and  C_14
REMARK    7  A    between atoms: C_14  and  O_15
REMARK    8  A    between atoms: C_22  and  O_23
REMARK    9  A    between atoms: O_23  and  C_24
REMARK                            x       y       z     vdW  Elec       q    Type
REMARK                         _______ _______ _______ _____ _____    ______ ____
ROOT
ATOM      1  N   UNL     1      46.317   6.581  13.249  0.00  0.00    +0.000 N 
ATOM      2  C   UNL     1      47.536   5.986  13.405  0.00  0.00    +0.000 C 
ATOM      3  O   UNL     1      47.688   4.771  13.488  0.00  0.00    +0.000 OA
ATOM      4  H   UNL     1      46.256   7.582  13.155  0.00  0.00    +0.000 HD
ENDROOT
BRANCH   2   5
ATOM      5  C   UNL     1      48.671   6.914  13.483  0.00  0.00    +0.000 A 
ATOM      6  C   UNL     1      48.989   7.725  12.405  0.00  0.00    +0.000 A 
ATOM      7  S   UNL     1      50.327   8.743  12.697  0.00  0.00    +0.000 S 
ATOM      8  C   UNL     1      50.492   8.169  14.290  0.00  0.00    +0.000 A 
ATOM      9  N   UNL     1      51.440   8.668  15.122  0.00  0.00    +0.000 NA
ATOM     10  C   UNL     1      51.403   8.202  16.329  0.00  0.00    +0.000 A 
ATOM     11  N   UNL     1      50.517   7.248  16.788  0.00  0.00    +0.000 N 
ATOM     12  C   UNL     1      49.614   6.635  15.931  0.00  0.00    +0.000 A 
ATOM     13  O   UNL     1      48.948   5.659  16.272  0.00  0.00    +0.000 OA
ATOM     14  C   UNL     1      49.565   7.190  14.588  0.00  0.00    +0.000 A 
BRANCH  11  15
ATOM     15  C   UNL     1      50.589   6.776  18.169  0.00  0.00    +0.000 C 
BRANCH  15  16
ATOM     16  C   UNL     1      51.725   5.773  18.379  0.00  0.00    +0.000 C 
BRANCH  16  17
ATOM     17  O   UNL     1      52.832   6.408  19.011  0.00  0.00    +0.000 OA
ATOM     18  H   UNL     1      53.063   5.886  19.799  0.00  0.00    +0.000 HD
ENDBRANCH  16  17
ENDBRANCH  15  16
ENDBRANCH  11  15
ENDBRANCH   2   5
BRANCH   1  19
ATOM     19  C   UNL     1      45.119   5.859  13.013  0.00  0.00    +0.000 C 
BRANCH  19  20
ATOM     20  C   UNL     1      45.058   5.210  11.651  0.00  0.00    +0.000 A 
ATOM     21  C   UNL     1      45.808   5.779  10.613  0.00  0.00    +0.000 A 
ATOM     22  C   UNL     1      45.731   5.274   9.317  0.00  0.00    +0.000 A 
ATOM     23  C   UNL     1      44.947   4.151   9.048  0.00  0.00    +0.000 A 
ATOM     24  C   UNL     1      44.164   3.597  10.060  0.00  0.00    +0.000 A 
ATOM     25  C   UNL     1      44.214   4.124  11.353  0.00  0.00    +0.000 A 
BRANCH  23  26
ATOM     26  O   UNL     1      44.848   3.557   7.809  0.00  0.00    +0.000 OA
BRANCH  26  27
ATOM     27  C   UNL     1      45.898   2.793   7.350  0.00  0.00    +0.000 A 
ATOM     28  C   UNL     1      46.282   1.581   7.922  0.00  0.00    +0.000 A 
ATOM     29  C   UNL     1      47.394   0.945   7.405  0.00  0.00    +0.000 A 
ATOM     30  N   UNL     1      48.092   1.400   6.342  0.00  0.00    +0.000 NA
ATOM     31  C   UNL     1      47.652   2.541   5.768  0.00  0.00    +0.000 A 
ATOM     32  C   UNL     1      46.568   3.267   6.229  0.00  0.00    +0.000 A 
ENDBRANCH  26  27
ENDBRANCH  23  26
ENDBRANCH  19  20
BRANCH  19  33
ATOM     33  N   UNL     1      45.127   4.846  14.043  0.00  0.00    +0.000 NA
ATOM     34  H   UNL     1      45.400   5.296  14.914  0.00  0.00    +0.000 HD
ATOM     35  H   UNL     1      45.858   4.172  13.834  0.00  0.00    +0.000 HD
ENDBRANCH  19  33
ENDBRANCH   1  19
TORSDOF 9
ENDMDL
MODEL 5
REMARK VINA RESULT:    -7.076      1.803      3.586
REMARK INTER + INTRA:         -11.989
REMARK INTER:                 -11.868
REMARK INTRA:                  -0.121
REMARK UNBOUND:                -1.604
REMARK  Name = 
REMARK  9 active torsions:
REMARK  status: ('A' for Active; 'I' for Inactive)
REMARK    1  A    between atoms: N_1  and  C_2
REMARK    2  A    between atoms: C_2  and  N_3
REMARK    3  A    between atoms: C_2  and  C_19
REMARK    4  A    between atoms: C_4  and  C_6
REMARK    5  A    between atoms: N_12  and  C_13
REMARK    6  A    between atoms: C_13  and  C_14
REMARK    7  A    between atoms: C_14  and  O_15
REMARK    8  A    between atoms: C_22  and  O_23
REMARK    9  A    between atoms: O_23  and  C_24
REMARK                            x       y       z     vdW  Elec       q    Type
REMARK                         _______ _______ _______ _____ _____    ______ ____
ROOT
ATOM      1  N   UNL     1      45.071   5.241  13.787  0.00  0.00    +0.000 N 
ATOM      2  C   UNL     1      46.205   4.497  13.950  0.00  0.00    +0.000 C 
ATOM      3  O   UNL     1      46.338   3.363  13.499  0.00  0.00    +0.000 OA
ATOM      4  H   UNL     1      45.030   6.179  14.153  0.00  0.00    +0.000 HD
ENDROOT
BRANCH   2   5
ATOM      5  C   UNL     1      47.265   5.150  14.727  0.00  0.00    +0.000 A 
ATOM      6  C   UNL     1      47.639   4.647  15.964  0.00  0.00    +0.000 A 
ATOM      7  S   UNL     1      48.898   5.533  16.701  0.00  0.00    +0.000 S 
ATOM      8  C   UNL     1      49.018   6.585  15.368  0.00  0.00    +0.000 A 
ATOM      9  N   UNL     1      49.949   7.572  15.334  0.00  0.00    +0.000 NA
ATOM     10  C   UNL     1      49.984   8.246  14.230  0.00  0.00    +0.000 A 
ATOM     11  N   UNL     1      49.148   8.050  13.149  0.00  0.00    +0.000 N 
ATOM     12  C   UNL     1      48.111   7.128  13.201  0.00  0.00    +0.000 A 
ATOM     13  O   UNL     1      47.246   7.067  12.329  0.00  0.00    +0.000 OA
ATOM     14  C   UNL     1      48.090   6.291  14.390  0.00  0.00    +0.000 A 
BRANCH  11  15
ATOM     15  C   UNL     1      49.262   8.895  11.963  0.00  0.00    +0.000 C 
BRANCH  15  16
ATOM     16  C   UNL     1      48.401  10.155  12.064  0.00  0.00    +0.000 C 
BRANCH  16  17
ATOM     17  O   UNL     1      47.566  10.090  13.215  0.00  0.00    +0.000 OA
ATOM     18  H   UNL     1      46.795   9.540  12.992  0.00  0.00    +0.000 HD
ENDBRANCH  16  17
ENDBRANCH  15  16
ENDBRANCH  11  15
ENDBRANCH   2   5
BRANCH   1  19
ATOM     19  C   UNL     1      43.992   4.849  12.954  0.00  0.00    +0.000 C 
BRANCH  19  20
ATOM     20  C   UNL     1      44.378   4.656  11.507  0.00  0.00    +0.000 A 
ATOM     21  C   UNL     1      45.264   5.576  10.931  0.00  0.00    +0.000 A 
ATOM     22  C   UNL     1      45.595   5.498   9.580  0.00  0.00    +0.000 A 
ATOM     23  C   UNL     1      45.092   4.460   8.794  0.00  0.00    +0.000 A 
ATOM     24  C   UNL     1      44.178   3.559   9.341  0.00  0.00    +0.000 A 
ATOM     25  C   UNL     1      43.819   3.658  10.689  0.00  0.00    +0.000 A 
BRANCH  23  26
ATOM     26  O   UNL     1      45.402   4.278   7.464  0.00  0.00    +0.000 OA
BRANCH  26  27
ATOM     27  C   UNL     1      46.257   3.257   7.113  0.00  0.00    +0.000 A 
ATOM     28  C   UNL     1      47.120   3.311   6.020  0.00  0.00    +0.000 A 
ATOM     29  C   UNL     1      47.880   2.191   5.740  0.00  0.00    +0.000 A 
ATOM     30  N   UNL     1      47.877   1.074   6.499  0.00  0.00    +0.000 NA
ATOM     31  C   UNL     1      47.080   1.081   7.589  0.00  0.00    +0.000 A 
ATOM     32  C   UNL     1      46.261   2.139   7.938  0.00  0.00    +0.000 A 
ENDBRANCH  26  27
ENDBRANCH  23  26
ENDBRANCH  19  20
BRANCH  19  33
ATOM     33  N   UNL     1      43.566   3.591  13.524  0.00  0.00    +0.000 NA
ATOM     34  H   UNL     1      43.786   3.614  14.517  0.00  0.00    +0.000 HD
ATOM     35  H   UNL     1      44.130   2.845  13.128  0.00  0.00    +0.000 HD
ENDBRANCH  19  33
ENDBRANCH   1  19
TORSDOF 9
ENDMDL
MODEL 6
REMARK VINA RESULT:    -7.013      2.257      3.142
REMARK INTER + INTRA:         -11.897
REMARK INTER:                 -10.163
REMARK INTRA:                  -1.735
REMARK UNBOUND:                -1.604
REMARK  Name = 
REMARK  9 active torsions:
REMARK  status: ('A' for Active; 'I' for Inactive)
REMARK    1  A    between atoms: N_1  and  C_2
REMARK    2  A    between atoms: C_2  and  N_3
REMARK    3  A    between atoms: C_2  and  C_19
REMARK    4  A    between atoms: C_4  and  C_6
REMARK    5  A    between atoms: N_12  and  C_13
REMARK    6  A    between atoms: C_13  and  C_14
REMARK    7  A    between atoms: C_14  and  O_15
REMARK    8  A    between atoms: C_22  and  O_23
REMARK    9  A    between atoms: O_23  and  C_24
REMARK                            x       y       z     vdW  Elec       q    Type
REMARK                         _______ _______ _______ _____ _____    ______ ____
ROOT
ATOM      1  N   UNL     1      49.044   7.720  14.458  0.00  0.00    +0.000 N 
ATOM      2  C   UNL     1      50.009   8.294  15.234  0.00  0.00    +0.000 C 
ATOM      3  O   UNL     1      50.081   9.503  15.437  0.00  0.00    +0.000 OA
ATOM      4  H   UNL     1      49.015   6.718  14.352  0.00  0.00    +0.000 HD
ENDROOT
BRANCH   2   5
ATOM      5  C   UNL     1      50.980   7.355  15.808  0.00  0.00    +0.000 A 
ATOM      6  C   UNL     1      52.341   7.569  15.650  0.00  0.00    +0.000 A 
ATOM      7  S   UNL     1      53.304   6.378  16.403  0.00  0.00    +0.000 S 
ATOM      8  C   UNL     1      51.935   5.567  17.005  0.00  0.00    +0.000 A 
ATOM      9  N   UNL     1      52.059   4.463  17.785  0.00  0.00    +0.000 NA
ATOM     10  C   UNL     1      50.943   3.993  18.241  0.00  0.00    +0.000 A 
ATOM     11  N   UNL     1      49.691   4.505  17.967  0.00  0.00    +0.000 N 
ATOM     12  C   UNL     1      49.525   5.560  17.079  0.00  0.00    +0.000 A 
ATOM     13  O   UNL     1      48.415   5.909  16.679  0.00  0.00    +0.000 OA
ATOM     14  C   UNL     1      50.758   6.171  16.611  0.00  0.00    +0.000 A 
BRANCH  11  15
ATOM     15  C   UNL     1      48.495   3.871  18.517  0.00  0.00    +0.000 C 
BRANCH  15  16
ATOM     16  C   UNL     1      47.884   2.853  17.553  0.00  0.00    +0.000 C 
BRANCH  16  17
ATOM     17  O   UNL     1      46.624   3.318  17.079  0.00  0.00    +0.000 OA
ATOM     18  H   UNL     1      46.633   3.259  16.108  0.00  0.00    +0.000 HD
ENDBRANCH  16  17
ENDBRANCH  15  16
ENDBRANCH  11  15
ENDBRANCH   2   5
BRANCH   1  19
ATOM     19  C   UNL     1      47.937   8.434  13.931  0.00  0.00    +0.000 C 
BRANCH  19  20
ATOM     20  C   UNL     1      46.959   7.569  13.173  0.00  0.00    +0.000 A 
ATOM     21  C   UNL     1      47.173   6.183  13.162  0.00  0.00    +0.000 A 
ATOM     22  C   UNL     1      46.353   5.341  12.415  0.00  0.00    +0.000 A 
ATOM     23  C   UNL     1      45.264   5.863  11.714  0.00  0.00    +0.000 A 
ATOM     24  C   UNL     1      45.060   7.242  11.683  0.00  0.00    +0.000 A 
ATOM     25  C   UNL     1      45.903   8.092  12.404  0.00  0.00    +0.000 A 
BRANCH  23  26
ATOM     26  O   UNL     1      44.375   5.100  10.990  0.00  0.00    +0.000 OA
BRANCH  26  27
ATOM     27  C   UNL     1      44.856   4.289   9.986  0.00  0.00    +0.000 A 
ATOM     28  C   UNL     1      45.584   4.757   8.894  0.00  0.00    +0.000 A 
ATOM     29  C   UNL     1      45.953   3.846   7.924  0.00  0.00    +0.000 A 
ATOM     30  N   UNL     1      45.702   2.521   8.005  0.00  0.00    +0.000 NA
ATOM     31  C   UNL     1      45.055   2.091   9.110  0.00  0.00    +0.000 A 
ATOM     32  C   UNL     1      44.618   2.927  10.121  0.00  0.00    +0.000 A 
ENDBRANCH  26  27
ENDBRANCH  23  26
ENDBRANCH  19  20
BRANCH  19  33
ATOM     33  N   UNL     1      47.301   8.986  15.106  0.00  0.00    +0.000 NA
ATOM     34  H   UNL     1      46.312   8.749  15.059  0.00  0.00    +0.000 HD
ATOM     35  H   UNL     1      47.351   9.999  15.059  0.00  0.00    +0.000 HD
ENDBRANCH  19  33
ENDBRANCH   1  19
TORSDOF 9
ENDMDL
MODEL 7
REMARK VINA RESULT:    -6.648      2.940      4.187
REMARK INTER + INTRA:         -11.362
REMARK INTER:                  -9.764
REMARK INTRA:                  -1.597
REMARK UNBOUND:                -1.604
REMARK  Name = 
REMARK  9 active torsions:
REMARK  status: ('A' for Active; 'I' for Inactive)
REMARK    1  A    between atoms: N_1  and  C_2
REMARK    2  A    between atoms: C_2  and  N_3
REMARK    3  A    between atoms: C_2  and  C_19
REMARK    4  A    between atoms: C_4  and  C_6
REMARK    5  A    between atoms: N_12  and  C_13
REMARK    6  A    between atoms: C_13  and  C_14
REMARK    7  A    between atoms: C_14  and  O_15
REMARK    8  A    between atoms: C_22  and  O_23
REMARK    9  A    between atoms: O_23  and  C_24
REMARK                            x       y       z     vdW  Elec       q    Type
REMARK                         _______ _______ _______ _____ _____    ______ ____
ROOT
ATOM      1  N   UNL     1      49.349   8.089  14.803  0.00  0.00    +0.000 N 
ATOM      2  C   UNL     1      50.309   8.475  15.694  0.00  0.00    +0.000 C 
ATOM      3  O   UNL     1      50.421   9.626  16.106  0.00  0.00    +0.000 OA
ATOM      4  H   UNL     1      49.285   7.122  14.524  0.00  0.00    +0.000 HD
ENDROOT
BRANCH   2   5
ATOM      5  C   UNL     1      51.221   7.408  16.121  0.00  0.00    +0.000 A 
ATOM      6  C   UNL     1      52.591   7.549  15.957  0.00  0.00    +0.000 A 
ATOM      7  S   UNL     1      53.482   6.211  16.530  0.00  0.00    +0.000 S 
ATOM      8  C   UNL     1      52.069   5.424  17.061  0.00  0.00    +0.000 A 
ATOM      9  N   UNL     1      52.130   4.225  17.695  0.00  0.00    +0.000 NA
ATOM     10  C   UNL     1      50.992   3.778  18.118  0.00  0.00    +0.000 A 
ATOM     11  N   UNL     1      49.774   4.403  17.941  0.00  0.00    +0.000 N 
ATOM     12  C   UNL     1      49.667   5.569  17.196  0.00  0.00    +0.000 A 
ATOM     13  O   UNL     1      48.578   6.039  16.871  0.00  0.00    +0.000 OA
ATOM     14  C   UNL     1      50.931   6.150  16.777  0.00  0.00    +0.000 A 
BRANCH  11  15
ATOM     15  C   UNL     1      48.546   3.786  18.439  0.00  0.00    +0.000 C 
BRANCH  15  16
ATOM     16  C   UNL     1      47.884   2.888  17.392  0.00  0.00    +0.000 C 
BRANCH  16  17
ATOM     17  O   UNL     1      46.477   2.836  17.608  0.00  0.00    +0.000 OA
ATOM     18  H   UNL     1      46.310   2.192  18.318  0.00  0.00    +0.000 HD
ENDBRANCH  16  17
ENDBRANCH  15  16
ENDBRANCH  11  15
ENDBRANCH   2   5
BRANCH   1  19
ATOM     19  C   UNL     1      48.290   8.931  14.379  0.00  0.00    +0.000 C 
BRANCH  19  20
ATOM     20  C   UNL     1      47.376   8.295  13.359  0.00  0.00    +0.000 A 
ATOM     21  C   UNL     1      46.081   8.812  13.219  0.00  0.00    +0.000 A 
ATOM     22  C   UNL     1      45.166   8.218  12.354  0.00  0.00    +0.000 A 
ATOM     23  C   UNL     1      45.548   7.131  11.566  0.00  0.00    +0.000 A 
ATOM     24  C   UNL     1      46.820   6.580  11.722  0.00  0.00    +0.000 A 
ATOM     25  C   UNL     1      47.729   7.154  12.615  0.00  0.00    +0.000 A 
BRANCH  23  26
ATOM     26  O   UNL     1      44.725   6.512  10.652  0.00  0.00    +0.000 OA
BRANCH  26  27
ATOM     27  C   UNL     1      44.276   5.238  10.916  0.00  0.00    +0.000 A 
ATOM     28  C   UNL     1      43.638   4.871  12.100  0.00  0.00    +0.000 A 
ATOM     29  C   UNL     1      43.293   3.543  12.265  0.00  0.00    +0.000 A 
ATOM     30  N   UNL     1      43.485   2.596  11.322  0.00  0.00    +0.000 NA
ATOM     31  C   UNL     1      44.043   2.998  10.160  0.00  0.00    +0.000 A 
ATOM     32  C   UNL     1      44.449   4.297   9.909  0.00  0.00    +0.000 A 
ENDBRANCH  26  27
ENDBRANCH  23  26
ENDBRANCH  19  20
BRANCH  19  33
ATOM     33  N   UNL     1      47.561   9.197  15.598  0.00  0.00    +0.000 NA
ATOM     34  H   UNL     1      46.572   9.233  15.362  0.00  0.00    +0.000 HD
ATOM     35  H   UNL     1      47.805  10.126  15.929  0.00  0.00    +0.000 HD
ENDBRANCH  19  33
ENDBRANCH   1  19
TORSDOF 9
ENDMDL
MODEL 8
REMARK VINA RESULT:    -6.552      2.891      4.102
REMARK INTER + INTRA:         -11.221
REMARK INTER:                 -10.627
REMARK INTRA:                  -0.593
REMARK UNBOUND:                -1.604
REMARK  Name = 
REMARK  9 active torsions:
REMARK  status: ('A' for Active; 'I' for Inactive)
REMARK    1  A    between atoms: N_1  and  C_2
REMARK    2  A    between atoms: C_2  and  N_3
REMARK    3  A    between atoms: C_2  and  C_19
REMARK    4  A    between atoms: C_4  and  C_6
REMARK    5  A    between atoms: N_12  and  C_13
REMARK    6  A    between atoms: C_13  and  C_14
REMARK    7  A    between atoms: C_14  and  O_15
REMARK    8  A    between atoms: C_22  and  O_23
REMARK    9  A    between atoms: O_23  and  C_24
REMARK                            x       y       z     vdW  Elec       q    Type
REMARK                         _______ _______ _______ _____ _____    ______ ____
ROOT
ATOM      1  N   UNL     1      46.711   7.051  13.584  0.00  0.00    +0.000 N 
ATOM      2  C   UNL     1      48.062   7.077  13.391  0.00  0.00    +0.000 C 
ATOM      3  O   UNL     1      48.759   6.066  13.368  0.00  0.00    +0.000 OA
ATOM      4  H   UNL     1      46.185   7.911  13.561  0.00  0.00    +0.000 HD
ENDROOT
BRANCH   2   5
ATOM      5  C   UNL     1      48.638   8.417  13.226  0.00  0.00    +0.000 A 
ATOM      6  C   UNL     1      48.199   9.471  14.013  0.00  0.00    +0.000 A 
ATOM      7  S   UNL     1      49.000  10.941  13.682  0.00  0.00    +0.000 S 
ATOM      8  C   UNL     1      49.994  10.204  12.513  0.00  0.00    +0.000 A 
ATOM      9  N   UNL     1      50.953  10.909  11.862  0.00  0.00    +0.000 NA
ATOM     10  C   UNL     1      51.689  10.211  11.059  0.00  0.00    +0.000 A 
ATOM     11  N   UNL     1      51.541   8.860  10.814  0.00  0.00    +0.000 N 
ATOM     12  C   UNL     1      50.496   8.139  11.375  0.00  0.00    +0.000 A 
ATOM     13  O   UNL     1      50.236   6.988  11.028  0.00  0.00    +0.000 OA
ATOM     14  C   UNL     1      49.698   8.866  12.348  0.00  0.00    +0.000 A 
BRANCH  11  15
ATOM     15  C   UNL     1      52.416   8.181   9.861  0.00  0.00    +0.000 C 
BRANCH  15  16
ATOM     16  C   UNL     1      53.514   7.374  10.557  0.00  0.00    +0.000 C 
BRANCH  16  17
ATOM     17  O   UNL     1      53.157   5.996  10.604  0.00  0.00    +0.000 OA
ATOM     18  H   UNL     1      53.304   5.683  11.514  0.00  0.00    +0.000 HD
ENDBRANCH  16  17
ENDBRANCH  15  16
ENDBRANCH  11  15
ENDBRANCH   2   5
BRANCH   1  19
ATOM     19  C   UNL     1      45.949   5.856  13.623  0.00  0.00    +0.000 C 
BRANCH  19  20
ATOM     20  C   UNL     1      45.708   5.242  12.265  0.00  0.00    +0.000 A 
ATOM     21  C   UNL     1      45.940   6.033  11.131  0.00  0.00    +0.000 A 
ATOM     22  C   UNL     1      45.659   5.550   9.855  0.00  0.00    +0.000 A 
ATOM     23  C   UNL     1      45.199   4.243   9.685  0.00  0.00    +0.000 A 
ATOM     24  C   UNL     1      44.925   3.457  10.804  0.00  0.00    +0.000 A 
ATOM     25  C   UNL     1      45.174   3.953  12.087  0.00  0.00    +0.000 A 
BRANCH  23  26
ATOM     26  O   UNL     1      44.941   3.669   8.460  0.00  0.00    +0.000 OA
BRANCH  26  27
ATOM     27  C   UNL     1      45.926   2.920   7.855  0.00  0.00    +0.000 A 
ATOM     28  C   UNL     1      46.835   3.435   6.933  0.00  0.00    +0.000 A 
ATOM     29  C   UNL     1      47.733   2.561   6.351  0.00  0.00    +0.000 A 
ATOM     30  N   UNL     1      47.818   1.251   6.670  0.00  0.00    +0.000 NA
ATOM     31  C   UNL     1      46.968   0.799   7.618  0.00  0.00    +0.000 A 
ATOM     32  C   UNL     1      46.014   1.587   8.236  0.00  0.00    +0.000 A 
ENDBRANCH  26  27
ENDBRANCH  23  26
ENDBRANCH  19  20
BRANCH  19  33
ATOM     33  N   UNL     1      46.755   4.968  14.430  0.00  0.00    +0.000 NA
ATOM     34  H   UNL     1      46.857   4.095  13.917  0.00  0.00    +0.000 HD
ATOM     35  H   UNL     1      46.242   4.740  15.276  0.00  0.00    +0.000 HD
ENDBRANCH  19  33
ENDBRANCH   1  19
TORSDOF 9
ENDMDL
MODEL 9
REMARK VINA RESULT:    -6.133      2.891      4.217
REMARK INTER + INTRA:         -10.606
REMARK INTER:                  -9.267
REMARK INTRA:                  -1.339
REMARK UNBOUND:                -1.604
REMARK  Name = 
REMARK  9 active torsions:
REMARK  status: ('A' for Active; 'I' for Inactive)
REMARK    1  A    between atoms: N_1  and  C_2
REMARK    2  A    between atoms: C_2  and  N_3
REMARK    3  A    between atoms: C_2  and  C_19
REMARK    4  A    between atoms: C_4  and  C_6
REMARK    5  A    between atoms: N_12  and  C_13
REMARK    6  A    between atoms: C_13  and  C_14
REMARK    7  A    between atoms: C_14  and  O_15
REMARK    8  A    between atoms: C_22  and  O_23
REMARK    9  A    between atoms: O_23  and  C_24
REMARK                            x       y       z     vdW  Elec       q    Type
REMARK                         _______ _______ _______ _____ _____    ______ ____
ROOT
ATOM      1  N   UNL     1      50.151   7.639  14.630  0.00  0.00    +0.000 N 
ATOM      2  C   UNL     1      49.534   8.295  15.657  0.00  0.00    +0.000 C 
ATOM      3  O   UNL     1      48.662   9.143  15.488  0.00  0.00    +0.000 OA
ATOM      4  H   UNL     1      50.838   6.929  14.829  0.00  0.00    +0.000 HD
ENDROOT
BRANCH   2   5
ATOM      5  C   UNL     1      50.002   7.923  16.997  0.00  0.00    +0.000 A 
ATOM      6  C   UNL     1      50.546   8.879  17.841  0.00  0.00    +0.000 A 
ATOM      7  S   UNL     1      51.014   8.254  19.358  0.00  0.00    +0.000 S 
ATOM      8  C   UNL     1      50.457   6.697  18.954  0.00  0.00    +0.000 A 
ATOM      9  N   UNL     1      50.521   5.675  19.846  0.00  0.00    +0.000 NA
ATOM     10  C   UNL     1      49.991   4.567  19.439  0.00  0.00    +0.000 A 
ATOM     11  N   UNL     1      49.419   4.365  18.199  0.00  0.00    +0.000 N 
ATOM     12  C   UNL     1      49.444   5.355  17.226  0.00  0.00    +0.000 A 
ATOM     13  O   UNL     1      49.110   5.137  16.063  0.00  0.00    +0.000 OA
ATOM     14  C   UNL     1      49.954   6.642  17.670  0.00  0.00    +0.000 A 
BRANCH  11  15
ATOM     15  C   UNL     1      48.875   3.057  17.840  0.00  0.00    +0.000 C 
BRANCH  15  16
ATOM     16  C   UNL     1      49.923   2.154  17.187  0.00  0.00    +0.000 C 
BRANCH  16  17
ATOM     17  O   UNL     1      49.537   1.835  15.854  0.00  0.00    +0.000 OA
ATOM     18  H   UNL     1      48.565   1.819  15.823  0.00  0.00    +0.000 HD
ENDBRANCH  16  17
ENDBRANCH  15  16
ENDBRANCH  11  15
ENDBRANCH   2   5
BRANCH   1  19
ATOM     19  C   UNL     1      49.747   7.752  13.275  0.00  0.00    +0.000 C 
BRANCH  19  20
ATOM     20  C   UNL     1      48.310   7.357  13.032  0.00  0.00    +0.000 A 
ATOM     21  C   UNL     1      47.899   6.080  13.437  0.00  0.00    +0.000 A 
ATOM     22  C   UNL     1      46.609   5.628  13.169  0.00  0.00    +0.000 A 
ATOM     23  C   UNL     1      45.686   6.470  12.544  0.00  0.00    +0.000 A 
ATOM     24  C   UNL     1      46.091   7.728  12.099  0.00  0.00    +0.000 A 
ATOM     25  C   UNL     1      47.396   8.170  12.337  0.00  0.00    +0.000 A 
BRANCH  23  26
ATOM     26  O   UNL     1      44.379   6.124  12.282  0.00  0.00    +0.000 OA
BRANCH  26  27
ATOM     27  C   UNL     1      44.116   4.900  11.708  0.00  0.00    +0.000 A 
ATOM     28  C   UNL     1      43.495   3.847  12.377  0.00  0.00    +0.000 A 
ATOM     29  C   UNL     1      43.348   2.650  11.704  0.00  0.00    +0.000 A 
ATOM     30  N   UNL     1      43.717   2.461  10.419  0.00  0.00    +0.000 NA
ATOM     31  C   UNL     1      44.253   3.522   9.778  0.00  0.00    +0.000 A 
ATOM     32  C   UNL     1      44.469   4.753  10.371  0.00  0.00    +0.000 A 
ENDBRANCH  26  27
ENDBRANCH  23  26
ENDBRANCH  19  20
BRANCH  19  33
ATOM     33  N   UNL     1      49.929   9.157  12.985  0.00  0.00    +0.000 NA
ATOM     34  H   UNL     1      50.554   9.537  13.692  0.00  0.00    +0.000 HD
ATOM     35  H   UNL     1      49.041   9.633  13.108  0.00  0.00    +0.000 HD
ENDBRANCH  19  33
ENDBRANCH   1  19
TORSDOF 9
ENDMDL
