MODEL 1
REMARK VINA RESULT:    -7.696      0.000      0.000
REMARK INTER + INTRA:         -12.326
REMARK INTER:                 -11.296
REMARK INTRA:                  -1.031
REMARK UNBOUND:                -1.031
REMARK  Name = 
REMARK  10 active torsions:
REMARK  status: ('A' for Active; 'I' for Inactive)
REMARK    1  A    between atoms: C_1  and  O_2
REMARK    2  A    between atoms: O_2  and  C_3
REMARK    3  A    between atoms: C_10  and  C_11
REMARK    4  A    between atoms: N_13  and  C_14
REMARK    5  A    between atoms: C_14  and  C_15
REMARK    6  A    between atoms: C_18  and  C_19
REMARK    7  A    between atoms: C_19  and  N_20
REMARK    8  A    between atoms: N_20  and  C_21
REMARK    9  A    between atoms: C_21  and  C_22
REMARK   10  A    between atoms: C_26  and  C_27
REMARK                            x       y       z     vdW  Elec       q    Type
REMARK                         _______ _______ _______ _____ _____    ______ ____
ROOT
ATOM      1  C   UNL     1      46.870   6.462  13.297  0.00  0.00    +0.000 A 
ATOM      2  C   UNL     1      46.069   7.314  12.527  0.00  0.00    +0.000 A 
ATOM      3  C   UNL     1      44.796   6.910  12.115  0.00  0.00    +0.000 A 
ATOM      4  C   UNL     1      44.304   5.639  12.446  0.00  0.00    +0.000 A 
ATOM      5  C   UNL     1      45.094   4.807  13.253  0.00  0.00    +0.000 A 
ATOM      6  C   UNL     1      46.361   5.214  13.676  0.00  0.00    +0.000 A 
ENDROOT
BRANCH   1   7
ATOM      7  C   UNL     1      48.227   6.902  13.777  0.00  0.00    +0.000 C 
BRANCH   7  10
ATOM      8  C   UNL     1      48.986   7.689  15.984  0.00  0.00    +0.000 C 
ATOM      9  O   UNL     1      49.621   8.614  15.483  0.00  0.00    +0.000 OA
ATOM     10  N   UNL     1      48.310   6.787  15.211  0.00  0.00    +0.000 N 
ATOM     11  H   UNL     1      47.735   6.080  15.647  0.00  0.00    +0.000 HD
BRANCH   8  19
ATOM     12  C   UNL     1      48.802   4.902  17.999  0.00  0.00    +0.000 A 
ATOM     13  N   UNL     1      48.772   4.005  19.006  0.00  0.00    +0.000 NA
ATOM     14  C   UNL     1      48.794   4.464  20.259  0.00  0.00    +0.000 A 
ATOM     15  N   UNL     1      48.831   5.738  20.643  0.00  0.00    +0.000 NA
ATOM     16  C   UNL     1      48.867   6.598  19.612  0.00  0.00    +0.000 A 
ATOM     17  S   UNL     1      48.905   8.268  19.918  0.00  0.00    +0.000 S 
ATOM     18  C   UNL     1      48.944   8.621  18.258  0.00  0.00    +0.000 A 
ATOM     19  C   UNL     1      48.938   7.495  17.442  0.00  0.00    +0.000 A 
ATOM     20  C   UNL     1      48.873   6.283  18.258  0.00  0.00    +0.000 A 
BRANCH  12  22
ATOM     21  C   UNL     1      47.944   3.297  16.526  0.00  0.00    +0.000 C 
ATOM     22  O   UNL     1      48.792   4.428  16.705  0.00  0.00    +0.000 OA
ENDBRANCH  12  22
ENDBRANCH   8  19
ENDBRANCH   7  10
ENDBRANCH   1   7
BRANCH   4  23
ATOM     23  C   UNL     1      42.929   5.175  12.023  0.00  0.00    +0.000 C 
BRANCH  23  24
ATOM     24  N   UNL     1      42.971   4.006  11.136  0.00  0.00    +0.000 NA
ATOM     25  H   UNL     1      42.013   3.704  10.958  0.00  0.00    +0.000 HD
BRANCH  24  26
ATOM     26  C   UNL     1      43.622   4.344   9.872  0.00  0.00    +0.000 C 
BRANCH  26  27
ATOM     27  C   UNL     1      45.157   4.212   9.966  0.00  0.00    +0.000 C 
ATOM     28  C   UNL     1      45.901   4.749   8.729  0.00  0.00    +0.000 C 
ATOM     29  C   UNL     1      45.707   3.862   7.499  0.00  0.00    +0.000 C 
ATOM     30  N   UNL     1      46.068   2.474   7.798  0.00  0.00    +0.000 N 
ATOM     31  C   UNL     1      46.930   1.662   7.079  0.00  0.00    +0.000 C 
ATOM     32  C   UNL     1      47.669   2.205   5.881  0.00  0.00    +0.000 C 
ATOM     33  O   UNL     1      47.133   0.486   7.397  0.00  0.00    +0.000 OA
ATOM     34  C   UNL     1      45.362   1.889   8.939  0.00  0.00    +0.000 C 
ATOM     35  C   UNL     1      45.554   2.743  10.193  0.00  0.00    +0.000 C 
ENDBRANCH  26  27
ENDBRANCH  24  26
ENDBRANCH  23  24
ENDBRANCH   4  23
TORSDOF 8
ENDMDL
MODEL 2
REMARK VINA RESULT:    -7.318      1.368      2.518
REMARK INTER + INTRA:         -11.771
REMARK INTER:                 -10.665
REMARK INTRA:                  -1.107
REMARK UNBOUND:                -1.031
REMARK  Name = 
REMARK  10 active torsions:
REMARK  status: ('A' for Active; 'I' for Inactive)
REMARK    1  A    between atoms: C_1  and  O_2
REMARK    2  A    between atoms: O_2  and  C_3
REMARK    3  A    between atoms: C_10  and  C_11
REMARK    4  A    between atoms: N_13  and  C_14
REMARK    5  A    between atoms: C_14  and  C_15
REMARK    6  A    between atoms: C_18  and  C_19
REMARK    7  A    between atoms: C_19  and  N_20
REMARK    8  A    between atoms: N_20  and  C_21
REMARK    9  A    between atoms: C_21  and  C_22
REMARK   10  A    between atoms: C_26  and  C_27
REMARK                            x       y       z     vdW  Elec       q    Type
REMARK                         _______ _______ _______ _____ _____    ______ ____
ROOT
ATOM      1  C   UNL     1      47.008   6.403  13.580  0.00  0.00    +0.000 A 
ATOM      2  C   UNL     1      46.486   7.399  12.746  0.00  0.00    +0.000 A 
ATOM      3  C   UNL     1      45.228   7.246  12.159  0.00  0.00    +0.000 A 
ATOM      4  C   UNL     1      44.471   6.085  12.375  0.00  0.00    +0.000 A 
ATOM      5  C   UNL     1      44.980   5.109  13.245  0.00  0.00    +0.000 A 
ATOM      6  C   UNL     1      46.232   5.266  13.842  0.00  0.00    +0.000 A 
ENDROOT
BRANCH   1   7
ATOM      7  C   UNL     1      48.346   6.575  14.247  0.00  0.00    +0.000 C 
BRANCH   7  10
ATOM      8  C   UNL     1      48.607   5.867  16.591  0.00  0.00    +0.000 C 
ATOM      9  O   UNL     1      49.106   4.795  16.256  0.00  0.00    +0.000 OA
ATOM     10  N   UNL     1      48.174   6.773  15.664  0.00  0.00    +0.000 N 
ATOM     11  H   UNL     1      47.835   7.676  15.962  0.00  0.00    +0.000 HD
BRANCH   8  19
ATOM     12  C   UNL     1      48.501   8.860  18.293  0.00  0.00    +0.000 A 
ATOM     13  N   UNL     1      48.383   9.861  19.188  0.00  0.00    +0.000 NA
ATOM     14  C   UNL     1      48.165   9.542  20.466  0.00  0.00    +0.000 A 
ATOM     15  N   UNL     1      48.059   8.318  20.977  0.00  0.00    +0.000 NA
ATOM     16  C   UNL     1      48.175   7.350  20.053  0.00  0.00    +0.000 A 
ATOM     17  S   UNL     1      48.077   5.723  20.530  0.00  0.00    +0.000 S 
ATOM     18  C   UNL     1      48.291   5.190  18.933  0.00  0.00    +0.000 A 
ATOM     19  C   UNL     1      48.431   6.219  18.009  0.00  0.00    +0.000 A 
ATOM     20  C   UNL     1      48.380   7.514  18.688  0.00  0.00    +0.000 A 
BRANCH  12  22
ATOM     21  C   UNL     1      48.904  10.585  16.763  0.00  0.00    +0.000 C 
ATOM     22  O   UNL     1      48.714   9.189  16.972  0.00  0.00    +0.000 OA
ENDBRANCH  12  22
ENDBRANCH   8  19
ENDBRANCH   7  10
ENDBRANCH   1   7
BRANCH   4  23
ATOM     23  C   UNL     1      43.103   5.892  11.760  0.00  0.00    +0.000 C 
BRANCH  23  24
ATOM     24  N   UNL     1      42.966   4.604  11.072  0.00  0.00    +0.000 NA
ATOM     25  H   UNL     1      41.973   4.425  10.921  0.00  0.00    +0.000 HD
BRANCH  24  26
ATOM     26  C   UNL     1      43.660   4.632   9.786  0.00  0.00    +0.000 C 
BRANCH  26  27
ATOM     27  C   UNL     1      45.174   4.384   9.949  0.00  0.00    +0.000 C 
ATOM     28  C   UNL     1      45.997   4.733   8.694  0.00  0.00    +0.000 C 
ATOM     29  C   UNL     1      45.763   3.748   7.549  0.00  0.00    +0.000 C 
ATOM     30  N   UNL     1      45.996   2.370   7.994  0.00  0.00    +0.000 N 
ATOM     31  C   UNL     1      46.805   1.423   7.389  0.00  0.00    +0.000 C 
ATOM     32  C   UNL     1      47.622   1.783   6.172  0.00  0.00    +0.000 C 
ATOM     33  O   UNL     1      46.898   0.272   7.825  0.00  0.00    +0.000 OA
ATOM     34  C   UNL     1      45.211   1.962   9.159  0.00  0.00    +0.000 C 
ATOM     35  C   UNL     1      45.439   2.916  10.331  0.00  0.00    +0.000 C 
ENDBRANCH  26  27
ENDBRANCH  24  26
ENDBRANCH  23  24
ENDBRANCH   4  23
TORSDOF 8
ENDMDL
MODEL 3
REMARK VINA RESULT:    -7.299      3.442      8.411
REMARK INTER + INTRA:         -11.744
REMARK INTER:                 -10.481
REMARK INTRA:                  -1.263
REMARK UNBOUND:                -1.031
REMARK  Name = 
REMARK  10 active torsions:
REMARK  status: ('A' for Active; 'I' for Inactive)
REMARK    1  A    between atoms: C_1  and  O_2
REMARK    2  A    between atoms: O_2  and  C_3
REMARK    3  A    between atoms: C_10  and  C_11
REMARK    4  A    between atoms: N_13  and  C_14
REMARK    5  A    between atoms: C_14  and  C_15
REMARK    6  A    between atoms: C_18  and  C_19
REMARK    7  A    between atoms: C_19  and  N_20
REMARK    8  A    between atoms: N_20  and  C_21
REMARK    9  A    between atoms: C_21  and  C_22
REMARK   10  A    between atoms: C_26  and  C_27
REMARK                            x       y       z     vdW  Elec       q    Type
REMARK                         _______ _______ _______ _____ _____    ______ ____
ROOT
ATOM      1  C   UNL     1      48.614   8.076  13.184  0.00  0.00    +0.000 A 
ATOM      2  C   UNL     1      49.056   7.037  14.012  0.00  0.00    +0.000 A 
ATOM      3  C   UNL     1      48.993   7.162  15.402  0.00  0.00    +0.000 A 
ATOM      4  C   UNL     1      48.505   8.335  15.996  0.00  0.00    +0.000 A 
ATOM      5  C   UNL     1      48.024   9.355  15.162  0.00  0.00    +0.000 A 
ATOM      6  C   UNL     1      48.076   9.227  13.772  0.00  0.00    +0.000 A 
ENDROOT
BRANCH   1   7
ATOM      7  C   UNL     1      48.644   7.936  11.686  0.00  0.00    +0.000 C 
BRANCH   7  10
ATOM      8  C   UNL     1      46.454   6.883  11.289  0.00  0.00    +0.000 C 
ATOM      9  O   UNL     1      45.856   7.862  11.728  0.00  0.00    +0.000 OA
ATOM     10  N   UNL     1      47.819   6.829  11.272  0.00  0.00    +0.000 N 
ATOM     11  H   UNL     1      48.288   6.046  10.839  0.00  0.00    +0.000 HD
BRANCH   8  19
ATOM     12  C   UNL     1      44.654   4.365  12.800  0.00  0.00    +0.000 A 
ATOM     13  N   UNL     1      43.881   3.306  13.115  0.00  0.00    +0.000 NA
ATOM     14  C   UNL     1      43.428   2.540  12.121  0.00  0.00    +0.000 A 
ATOM     15  N   UNL     1      43.665   2.695  10.820  0.00  0.00    +0.000 NA
ATOM     16  C   UNL     1      44.432   3.763  10.549  0.00  0.00    +0.000 A 
ATOM     17  S   UNL     1      44.846   4.107   8.938  0.00  0.00    +0.000 S 
ATOM     18  C   UNL     1      45.732   5.477   9.406  0.00  0.00    +0.000 A 
ATOM     19  C   UNL     1      45.728   5.709  10.777  0.00  0.00    +0.000 A 
ATOM     20  C   UNL     1      44.963   4.668  11.461  0.00  0.00    +0.000 A 
BRANCH  12  22
ATOM     21  C   UNL     1      46.381   4.755  14.334  0.00  0.00    +0.000 C 
ATOM     22  O   UNL     1      45.113   5.163  13.826  0.00  0.00    +0.000 OA
ENDBRANCH  12  22
ENDBRANCH   8  19
ENDBRANCH   7  10
ENDBRANCH   1   7
BRANCH   4  23
ATOM     23  C   UNL     1      48.416   8.498  17.496  0.00  0.00    +0.000 C 
BRANCH  23  24
ATOM     24  N   UNL     1      47.892   7.304  18.168  0.00  0.00    +0.000 NA
ATOM     25  H   UNL     1      47.603   6.635  17.454  0.00  0.00    +0.000 HD
BRANCH  24  26
ATOM     26  C   UNL     1      48.917   6.701  19.018  0.00  0.00    +0.000 C 
BRANCH  26  27
ATOM     27  C   UNL     1      48.549   5.258  19.422  0.00  0.00    +0.000 C 
ATOM     28  C   UNL     1      49.759   4.407  19.849  0.00  0.00    +0.000 C 
ATOM     29  C   UNL     1      50.669   4.052  18.672  0.00  0.00    +0.000 C 
ATOM     30  N   UNL     1      49.902   3.416  17.597  0.00  0.00    +0.000 N 
ATOM     31  C   UNL     1      50.190   2.221  16.960  0.00  0.00    +0.000 C 
ATOM     32  C   UNL     1      51.367   1.385  17.401  0.00  0.00    +0.000 C 
ATOM     33  O   UNL     1      49.497   1.794  16.031  0.00  0.00    +0.000 OA
ATOM     34  C   UNL     1      48.761   4.195  17.115  0.00  0.00    +0.000 C 
ATOM     35  C   UNL     1      47.819   4.549  18.266  0.00  0.00    +0.000 C 
ENDBRANCH  26  27
ENDBRANCH  24  26
ENDBRANCH  23  24
ENDBRANCH   4  23
TORSDOF 8
ENDMDL
MODEL 4
REMARK VINA RESULT:    -7.223      2.308      3.723
REMARK INTER + INTRA:         -11.632
REMARK INTER:                  -9.972
REMARK INTRA:                  -1.660
REMARK UNBOUND:                -1.031
REMARK  Name = 
REMARK  10 active torsions:
REMARK  status: ('A' for Active; 'I' for Inactive)
REMARK    1  A    between atoms: C_1  and  O_2
REMARK    2  A    between atoms: O_2  and  C_3
REMARK    3  A    between atoms: C_10  and  C_11
REMARK    4  A    between atoms: N_13  and  C_14
REMARK    5  A    between atoms: C_14  and  C_15
REMARK    6  A    between atoms: C_18  and  C_19
REMARK    7  A    between atoms: C_19  and  N_20
REMARK    8  A    between atoms: N_20  and  C_21
REMARK    9  A    between atoms: C_21  and  C_22
REMARK   10  A    between atoms: C_26  and  C_27
REMARK                            x       y       z     vdW  Elec       q    Type
REMARK                         _______ _______ _______ _____ _____    ______ ____
ROOT
ATOM      1  C   UNL     1      49.511   8.526  13.672  0.00  0.00    +0.000 A 
ATOM      2  C   UNL     1      48.354   8.708  14.438  0.00  0.00    +0.000 A 
ATOM      3  C   UNL     1      47.176   9.171  13.845  0.00  0.00    +0.000 A 
ATOM      4  C   UNL     1      47.135   9.480  12.478  0.00  0.00    +0.000 A 
ATOM      5  C   UNL     1      48.285   9.256  11.707  0.00  0.00    +0.000 A 
ATOM      6  C   UNL     1      49.459   8.782  12.296  0.00  0.00    +0.000 A 
ENDROOT
BRANCH   1   7
ATOM      7  C   UNL     1      50.774   7.993  14.294  0.00  0.00    +0.000 C 
BRANCH   7  10
ATOM      8  C   UNL     1      50.431   7.243  16.614  0.00  0.00    +0.000 C 
ATOM      9  O   UNL     1      50.743   8.344  17.061  0.00  0.00    +0.000 OA
ATOM     10  N   UNL     1      50.460   6.983  15.273  0.00  0.00    +0.000 N 
ATOM     11  H   UNL     1      50.129   6.094  14.925  0.00  0.00    +0.000 HD
BRANCH   8  19
ATOM     12  C   UNL     1      48.110   4.711  16.354  0.00  0.00    +0.000 A 
ATOM     13  N   UNL     1      47.326   3.624  16.501  0.00  0.00    +0.000 NA
ATOM     14  C   UNL     1      47.444   2.910  17.622  0.00  0.00    +0.000 A 
ATOM     15  N   UNL     1      48.258   3.157  18.646  0.00  0.00    +0.000 NA
ATOM     16  C   UNL     1      49.026   4.243  18.457  0.00  0.00    +0.000 A 
ATOM     17  S   UNL     1      50.118   4.714  19.669  0.00  0.00    +0.000 S 
ATOM     18  C   UNL     1      50.652   6.033  18.743  0.00  0.00    +0.000 A 
ATOM     19  C   UNL     1      50.030   6.142  17.504  0.00  0.00    +0.000 A 
ATOM     20  C   UNL     1      49.041   5.076  17.344  0.00  0.00    +0.000 A 
BRANCH  12  22
ATOM     21  C   UNL     1      47.277   4.764  14.166  0.00  0.00    +0.000 C 
ATOM     22  O   UNL     1      47.997   5.443  15.191  0.00  0.00    +0.000 OA
ENDBRANCH  12  22
ENDBRANCH   8  19
ENDBRANCH   7  10
ENDBRANCH   1   7
BRANCH   4  23
ATOM     23  C   UNL     1      45.875   9.975  11.805  0.00  0.00    +0.000 C 
BRANCH  23  24
ATOM     24  N   UNL     1      44.677   9.239  12.227  0.00  0.00    +0.000 NA
ATOM     25  H   UNL     1      43.870   9.854  12.122  0.00  0.00    +0.000 HD
BRANCH  24  26
ATOM     26  C   UNL     1      44.494   8.044  11.408  0.00  0.00    +0.000 C 
BRANCH  26  27
ATOM     27  C   UNL     1      45.237   6.827  11.999  0.00  0.00    +0.000 C 
ATOM     28  C   UNL     1      46.040   6.026  10.957  0.00  0.00    +0.000 C 
ATOM     29  C   UNL     1      45.140   5.253   9.993  0.00  0.00    +0.000 C 
ATOM     30  N   UNL     1      44.198   4.405  10.730  0.00  0.00    +0.000 N 
ATOM     31  C   UNL     1      43.967   3.053  10.540  0.00  0.00    +0.000 C 
ATOM     32  C   UNL     1      44.775   2.275   9.530  0.00  0.00    +0.000 C 
ATOM     33  O   UNL     1      43.114   2.441  11.191  0.00  0.00    +0.000 OA
ATOM     34  C   UNL     1      43.372   5.115  11.707  0.00  0.00    +0.000 C 
ATOM     35  C   UNL     1      44.243   5.883  12.701  0.00  0.00    +0.000 C 
ENDBRANCH  26  27
ENDBRANCH  24  26
ENDBRANCH  23  24
ENDBRANCH   4  23
TORSDOF 8
ENDMDL
MODEL 5
REMARK VINA RESULT:    -6.819      2.761      8.825
REMARK INTER + INTRA:         -11.039
REMARK INTER:                  -9.677
REMARK INTRA:                  -1.361
REMARK UNBOUND:                -1.031
REMARK  Name = 
REMARK  10 active torsions:
REMARK  status: ('A' for Active; 'I' for Inactive)
REMARK    1  A    between atoms: C_1  and  O_2
REMARK    2  A    between atoms: O_2  and  C_3
REMARK    3  A    between atoms: C_10  and  C_11
REMARK    4  A    between atoms: N_13  and  C_14
REMARK    5  A    between atoms: C_14  and  C_15
REMARK    6  A    between atoms: C_18  and  C_19
REMARK    7  A    between atoms: C_19  and  N_20
REMARK    8  A    between atoms: N_20  and  C_21
REMARK    9  A    between atoms: C_21  and  C_22
REMARK   10  A    between atoms: C_26  and  C_27
REMARK                            x       y       z     vdW  Elec       q    Type
REMARK                         _______ _______ _______ _____ _____    ______ ____
ROOT
ATOM      1  C   UNL     1      48.675   8.238  13.133  0.00  0.00    +0.000 A 
ATOM      2  C   UNL     1      49.940   7.866  13.603  0.00  0.00    +0.000 A 
ATOM      3  C   UNL     1      50.362   8.243  14.881  0.00  0.00    +0.000 A 
ATOM      4  C   UNL     1      49.537   9.016  15.710  0.00  0.00    +0.000 A 
ATOM      5  C   UNL     1      48.254   9.349  15.251  0.00  0.00    +0.000 A 
ATOM      6  C   UNL     1      47.826   8.964  13.979  0.00  0.00    +0.000 A 
ENDROOT
BRANCH   1   7
ATOM      7  C   UNL     1      48.197   7.806  11.773  0.00  0.00    +0.000 C 
BRANCH   7  10
ATOM      8  C   UNL     1      45.947   6.812  11.665  0.00  0.00    +0.000 C 
ATOM      9  O   UNL     1      45.433   7.899  11.410  0.00  0.00    +0.000 OA
ATOM     10  N   UNL     1      47.288   6.694  11.894  0.00  0.00    +0.000 N 
ATOM     11  H   UNL     1      47.698   5.780  12.029  0.00  0.00    +0.000 HD
BRANCH   8  19
ATOM     12  C   UNL     1      45.272   4.250   9.465  0.00  0.00    +0.000 A 
ATOM     13  N   UNL     1      44.878   3.123   8.837  0.00  0.00    +0.000 NA
ATOM     14  C   UNL     1      44.101   2.269   9.506  0.00  0.00    +0.000 A 
ATOM     15  N   UNL     1      43.644   2.408  10.749  0.00  0.00    +0.000 NA
ATOM     16  C   UNL     1      44.064   3.538  11.340  0.00  0.00    +0.000 A 
ATOM     17  S   UNL     1      43.568   3.885  12.927  0.00  0.00    +0.000 S 
ATOM     18  C   UNL     1      44.448   5.336  12.937  0.00  0.00    +0.000 A 
ATOM     19  C   UNL     1      45.138   5.586  11.756  0.00  0.00    +0.000 A 
ATOM     20  C   UNL     1      44.890   4.514  10.793  0.00  0.00    +0.000 A 
BRANCH  12  22
ATOM     21  C   UNL     1      46.693   4.547   7.628  0.00  0.00    +0.000 C 
ATOM     22  O   UNL     1      46.085   5.126   8.779  0.00  0.00    +0.000 OA
ENDBRANCH  12  22
ENDBRANCH   8  19
ENDBRANCH   7  10
ENDBRANCH   1   7
BRANCH   4  23
ATOM     23  C   UNL     1      49.960   9.433  17.100  0.00  0.00    +0.000 C 
BRANCH  23  24
ATOM     24  N   UNL     1      50.280   8.291  17.964  0.00  0.00    +0.000 NA
ATOM     25  H   UNL     1      51.045   8.561  18.583  0.00  0.00    +0.000 HD
BRANCH  24  26
ATOM     26  C   UNL     1      49.116   7.908  18.761  0.00  0.00    +0.000 C 
BRANCH  26  27
ATOM     27  C   UNL     1      49.291   6.511  19.393  0.00  0.00    +0.000 C 
ATOM     28  C   UNL     1      50.147   5.552  18.544  0.00  0.00    +0.000 C 
ATOM     29  C   UNL     1      49.431   5.100  17.271  0.00  0.00    +0.000 C 
ATOM     30  N   UNL     1      48.118   4.530  17.589  0.00  0.00    +0.000 N 
ATOM     31  C   UNL     1      47.616   3.307  17.176  0.00  0.00    +0.000 C 
ATOM     32  C   UNL     1      48.472   2.366  16.362  0.00  0.00    +0.000 C 
ATOM     33  O   UNL     1      46.474   2.939  17.468  0.00  0.00    +0.000 OA
ATOM     34  C   UNL     1      47.238   5.410  18.359  0.00  0.00    +0.000 C 
ATOM     35  C   UNL     1      47.918   5.864  19.651  0.00  0.00    +0.000 C 
ENDBRANCH  26  27
ENDBRANCH  24  26
ENDBRANCH  23  24
ENDBRANCH   4  23
TORSDOF 8
ENDMDL
MODEL 6
REMARK VINA RESULT:    -6.291      5.762      8.199
REMARK INTER + INTRA:         -10.264
REMARK INTER:                  -8.949
REMARK INTRA:                  -1.315
REMARK UNBOUND:                -1.031
REMARK  Name = 
REMARK  10 active torsions:
REMARK  status: ('A' for Active; 'I' for Inactive)
REMARK    1  A    between atoms: C_1  and  O_2
REMARK    2  A    between atoms: O_2  and  C_3
REMARK    3  A    between atoms: C_10  and  C_11
REMARK    4  A    between atoms: N_13  and  C_14
REMARK    5  A    between atoms: C_14  and  C_15
REMARK    6  A    between atoms: C_18  and  C_19
REMARK    7  A    between atoms: C_19  and  N_20
REMARK    8  A    between atoms: N_20  and  C_21
REMARK    9  A    between atoms: C_21  and  C_22
REMARK   10  A    between atoms: C_26  and  C_27
REMARK                            x       y       z     vdW  Elec       q    Type
REMARK                         _______ _______ _______ _____ _____    ______ ____
ROOT
ATOM      1  C   UNL     1      50.428  10.360  11.048  0.00  0.00    +0.000 A 
ATOM      2  C   UNL     1      49.564  11.408  10.707  0.00  0.00    +0.000 A 
ATOM      3  C   UNL     1      48.205  11.337  11.023  0.00  0.00    +0.000 A 
ATOM      4  C   UNL     1      47.675  10.210  11.667  0.00  0.00    +0.000 A 
ATOM      5  C   UNL     1      48.552   9.182  12.044  0.00  0.00    +0.000 A 
ATOM      6  C   UNL     1      49.914   9.256  11.740  0.00  0.00    +0.000 A 
ENDROOT
BRANCH   1   7
ATOM      7  C   UNL     1      51.901  10.443  10.746  0.00  0.00    +0.000 C 
BRANCH   7  10
ATOM      8  C   UNL     1      53.646   8.717  10.552  0.00  0.00    +0.000 C 
ATOM      9  O   UNL     1      54.460   9.411  11.157  0.00  0.00    +0.000 OA
ATOM     10  N   UNL     1      52.386   9.168  10.279  0.00  0.00    +0.000 N 
ATOM     11  H   UNL     1      51.712   8.553   9.846  0.00  0.00    +0.000 HD
BRANCH   8  19
ATOM     12  C   UNL     1      53.249   7.092   7.540  0.00  0.00    +0.000 A 
ATOM     13  N   UNL     1      53.258   6.248   6.489  0.00  0.00    +0.000 NA
ATOM     14  C   UNL     1      53.808   5.044   6.654  0.00  0.00    +0.000 A 
ATOM     15  N   UNL     1      54.353   4.559   7.768  0.00  0.00    +0.000 NA
ATOM     16  C   UNL     1      54.330   5.432   8.788  0.00  0.00    +0.000 A 
ATOM     17  S   UNL     1      54.972   4.976  10.292  0.00  0.00    +0.000 S 
ATOM     18  C   UNL     1      54.601   6.490  10.965  0.00  0.00    +0.000 A 
ATOM     19  C   UNL     1      53.996   7.369  10.075  0.00  0.00    +0.000 A 
ATOM     20  C   UNL     1      53.818   6.724   8.774  0.00  0.00    +0.000 A 
BRANCH  12  22
ATOM     21  C   UNL     1      52.654   8.757   6.005  0.00  0.00    +0.000 C 
ATOM     22  O   UNL     1      52.692   8.341   7.368  0.00  0.00    +0.000 OA
ENDBRANCH  12  22
ENDBRANCH   8  19
ENDBRANCH   7  10
ENDBRANCH   1   7
BRANCH   4  23
ATOM     23  C   UNL     1      46.211  10.106  12.029  0.00  0.00    +0.000 C 
BRANCH  23  24
ATOM     24  N   UNL     1      45.940   9.042  13.003  0.00  0.00    +0.000 NA
ATOM     25  H   UNL     1      45.403   9.442  13.773  0.00  0.00    +0.000 HD
BRANCH  24  26
ATOM     26  C   UNL     1      45.177   7.961  12.383  0.00  0.00    +0.000 C 
BRANCH  26  27
ATOM     27  C   UNL     1      45.852   6.590  12.599  0.00  0.00    +0.000 C 
ATOM     28  C   UNL     1      46.416   5.967  11.309  0.00  0.00    +0.000 C 
ATOM     29  C   UNL     1      45.316   5.493  10.358  0.00  0.00    +0.000 C 
ATOM     30  N   UNL     1      44.392   4.587  11.046  0.00  0.00    +0.000 N 
ATOM     31  C   UNL     1      43.988   3.330  10.629  0.00  0.00    +0.000 C 
ATOM     32  C   UNL     1      44.564   2.722   9.373  0.00  0.00    +0.000 C 
ATOM     33  O   UNL     1      43.167   2.664  11.267  0.00  0.00    +0.000 OA
ATOM     34  C   UNL     1      43.786   5.136  12.260  0.00  0.00    +0.000 C 
ATOM     35  C   UNL     1      44.862   5.602  13.242  0.00  0.00    +0.000 C 
ENDBRANCH  26  27
ENDBRANCH  24  26
ENDBRANCH  23  24
ENDBRANCH   4  23
TORSDOF 8
ENDMDL
MODEL 7
REMARK VINA RESULT:    -6.271      3.543      8.850
REMARK INTER + INTRA:         -10.235
REMARK INTER:                  -8.158
REMARK INTRA:                  -2.076
REMARK UNBOUND:                -1.031
REMARK  Name = 
REMARK  10 active torsions:
REMARK  status: ('A' for Active; 'I' for Inactive)
REMARK    1  A    between atoms: C_1  and  O_2
REMARK    2  A    between atoms: O_2  and  C_3
REMARK    3  A    between atoms: C_10  and  C_11
REMARK    4  A    between atoms: N_13  and  C_14
REMARK    5  A    between atoms: C_14  and  C_15
REMARK    6  A    between atoms: C_18  and  C_19
REMARK    7  A    between atoms: C_19  and  N_20
REMARK    8  A    between atoms: N_20  and  C_21
REMARK    9  A    between atoms: C_21  and  C_22
REMARK   10  A    between atoms: C_26  and  C_27
REMARK                            x       y       z     vdW  Elec       q    Type
REMARK                         _______ _______ _______ _____ _____    ______ ____
ROOT
ATOM      1  C   UNL     1      49.037   9.082  15.489  0.00  0.00    +0.000 A 
ATOM      2  C   UNL     1      50.224   8.898  16.209  0.00  0.00    +0.000 A 
ATOM      3  C   UNL     1      50.243   9.056  17.597  0.00  0.00    +0.000 A 
ATOM      4  C   UNL     1      49.082   9.421  18.294  0.00  0.00    +0.000 A 
ATOM      5  C   UNL     1      47.888   9.564  17.573  0.00  0.00    +0.000 A 
ATOM      6  C   UNL     1      47.864   9.394  16.187  0.00  0.00    +0.000 A 
ENDROOT
BRANCH   1   7
ATOM      7  C   UNL     1      48.998   8.878  13.998  0.00  0.00    +0.000 C 
BRANCH   7  10
ATOM      8  C   UNL     1      48.055   6.774  13.134  0.00  0.00    +0.000 C 
ATOM      9  O   UNL     1      49.172   6.323  12.892  0.00  0.00    +0.000 OA
ATOM     10  N   UNL     1      47.888   8.032  13.640  0.00  0.00    +0.000 N 
ATOM     11  H   UNL     1      46.966   8.353  13.900  0.00  0.00    +0.000 HD
BRANCH   8  19
ATOM     12  C   UNL     1      44.981   7.541  11.783  0.00  0.00    +0.000 A 
ATOM     13  N   UNL     1      43.734   7.550  11.268  0.00  0.00    +0.000 NA
ATOM     14  C   UNL     1      43.049   6.404  11.259  0.00  0.00    +0.000 A 
ATOM     15  N   UNL     1      43.457   5.225  11.721  0.00  0.00    +0.000 NA
ATOM     16  C   UNL     1      44.704   5.257  12.218  0.00  0.00    +0.000 A 
ATOM     17  S   UNL     1      45.383   3.840  12.863  0.00  0.00    +0.000 S 
ATOM     18  C   UNL     1      46.832   4.644  13.232  0.00  0.00    +0.000 A 
ATOM     19  C   UNL     1      46.839   5.987  12.872  0.00  0.00    +0.000 A 
ATOM     20  C   UNL     1      45.554   6.355  12.281  0.00  0.00    +0.000 A 
BRANCH  12  22
ATOM     21  C   UNL     1      44.896   9.860  12.090  0.00  0.00    +0.000 C 
ATOM     22  O   UNL     1      45.694   8.720  11.782  0.00  0.00    +0.000 OA
ENDBRANCH  12  22
ENDBRANCH   8  19
ENDBRANCH   7  10
ENDBRANCH   1   7
BRANCH   4  23
ATOM     23  C   UNL     1      49.068   9.593  19.796  0.00  0.00    +0.000 C 
BRANCH  23  24
ATOM     24  N   UNL     1      48.192   8.628  20.470  0.00  0.00    +0.000 NA
ATOM     25  H   UNL     1      47.404   8.426  19.854  0.00  0.00    +0.000 HD
BRANCH  24  26
ATOM     26  C   UNL     1      48.916   7.393  20.762  0.00  0.00    +0.000 C 
BRANCH  26  27
ATOM     27  C   UNL     1      48.026   6.148  20.562  0.00  0.00    +0.000 C 
ATOM     28  C   UNL     1      48.788   4.816  20.687  0.00  0.00    +0.000 C 
ATOM     29  C   UNL     1      49.732   4.569  19.510  0.00  0.00    +0.000 C 
ATOM     30  N   UNL     1      49.011   4.672  18.237  0.00  0.00    +0.000 N 
ATOM     31  C   UNL     1      49.003   3.749  17.205  0.00  0.00    +0.000 C 
ATOM     32  C   UNL     1      49.737   2.438  17.347  0.00  0.00    +0.000 C 
ATOM     33  O   UNL     1      48.392   3.956  16.152  0.00  0.00    +0.000 OA
ATOM     34  C   UNL     1      48.299   5.935  18.038  0.00  0.00    +0.000 C 
ATOM     35  C   UNL     1      47.330   6.202  19.190  0.00  0.00    +0.000 C 
ENDBRANCH  26  27
ENDBRANCH  24  26
ENDBRANCH  23  24
ENDBRANCH   4  23
TORSDOF 8
ENDMDL
MODEL 8
REMARK VINA RESULT:    -6.242      3.644      8.317
REMARK INTER + INTRA:         -10.192
REMARK INTER:                  -8.656
REMARK INTRA:                  -1.536
REMARK UNBOUND:                -1.031
REMARK  Name = 
REMARK  10 active torsions:
REMARK  status: ('A' for Active; 'I' for Inactive)
REMARK    1  A    between atoms: C_1  and  O_2
REMARK    2  A    between atoms: O_2  and  C_3
REMARK    3  A    between atoms: C_10  and  C_11
REMARK    4  A    between atoms: N_13  and  C_14
REMARK    5  A    between atoms: C_14  and  C_15
REMARK    6  A    between atoms: C_18  and  C_19
REMARK    7  A    between atoms: C_19  and  N_20
REMARK    8  A    between atoms: N_20  and  C_21
REMARK    9  A    between atoms: C_21  and  C_22
REMARK   10  A    between atoms: C_26  and  C_27
REMARK                            x       y       z     vdW  Elec       q    Type
REMARK                         _______ _______ _______ _____ _____    ______ ____
ROOT
ATOM      1  C   UNL     1      49.158   8.808  13.540  0.00  0.00    +0.000 A 
ATOM      2  C   UNL     1      48.779   9.893  14.340  0.00  0.00    +0.000 A 
ATOM      3  C   UNL     1      49.228   9.994  15.659  0.00  0.00    +0.000 A 
ATOM      4  C   UNL     1      50.052   9.004  16.214  0.00  0.00    +0.000 A 
ATOM      5  C   UNL     1      50.464   7.942  15.396  0.00  0.00    +0.000 A 
ATOM      6  C   UNL     1      50.025   7.845  14.074  0.00  0.00    +0.000 A 
ENDROOT
BRANCH   1   7
ATOM      7  C   UNL     1      48.709   8.709  12.107  0.00  0.00    +0.000 C 
BRANCH   7  10
ATOM      8  C   UNL     1      46.337   8.059  12.223  0.00  0.00    +0.000 C 
ATOM      9  O   UNL     1      46.008   9.173  12.626  0.00  0.00    +0.000 OA
ATOM     10  N   UNL     1      47.645   7.745  11.984  0.00  0.00    +0.000 N 
ATOM     11  H   UNL     1      47.884   6.849  11.583  0.00  0.00    +0.000 HD
BRANCH   8  19
ATOM     12  C   UNL     1      46.280   4.676  12.869  0.00  0.00    +0.000 A 
ATOM     13  N   UNL     1      45.976   3.373  13.038  0.00  0.00    +0.000 NA
ATOM     14  C   UNL     1      44.777   2.950  12.635  0.00  0.00    +0.000 A 
ATOM     15  N   UNL     1      43.823   3.678  12.059  0.00  0.00    +0.000 NA
ATOM     16  C   UNL     1      44.162   4.970  11.916  0.00  0.00    +0.000 A 
ATOM     17  S   UNL     1      43.067   6.045  11.188  0.00  0.00    +0.000 S 
ATOM     18  C   UNL     1      44.143   7.345  11.377  0.00  0.00    +0.000 A 
ATOM     19  C   UNL     1      45.339   7.002  11.996  0.00  0.00    +0.000 A 
ATOM     20  C   UNL     1      45.354   5.572  12.301  0.00  0.00    +0.000 A 
BRANCH  12  22
ATOM     21  C   UNL     1      47.539   5.470  14.677  0.00  0.00    +0.000 C 
ATOM     22  O   UNL     1      47.514   5.118  13.296  0.00  0.00    +0.000 OA
ENDBRANCH  12  22
ENDBRANCH   8  19
ENDBRANCH   7  10
ENDBRANCH   1   7
BRANCH   4  23
ATOM     23  C   UNL     1      50.562   9.088  17.635  0.00  0.00    +0.000 C 
BRANCH  23  24
ATOM     24  N   UNL     1      50.587   7.785  18.308  0.00  0.00    +0.000 NA
ATOM     25  H   UNL     1      51.448   7.721  18.852  0.00  0.00    +0.000 HD
BRANCH  24  26
ATOM     26  C   UNL     1      49.435   7.643  19.196  0.00  0.00    +0.000 C 
BRANCH  26  27
ATOM     27  C   UNL     1      49.380   6.241  19.840  0.00  0.00    +0.000 C 
ATOM     28  C   UNL     1      50.275   5.203  19.138  0.00  0.00    +0.000 C 
ATOM     29  C   UNL     1      49.740   4.805  17.762  0.00  0.00    +0.000 C 
ATOM     30  N   UNL     1      48.348   4.356  17.856  0.00  0.00    +0.000 N 
ATOM     31  C   UNL     1      47.815   3.178  17.359  0.00  0.00    +0.000 C 
ATOM     32  C   UNL     1      48.706   2.159  16.692  0.00  0.00    +0.000 C 
ATOM     33  O   UNL     1      46.612   2.916  17.457  0.00  0.00    +0.000 OA
ATOM     34  C   UNL     1      47.435   5.317  18.476  0.00  0.00    +0.000 C 
ATOM     35  C   UNL     1      47.931   5.721  19.865  0.00  0.00    +0.000 C 
ENDBRANCH  26  27
ENDBRANCH  24  26
ENDBRANCH  23  24
ENDBRANCH   4  23
TORSDOF 8
ENDMDL
MODEL 9
REMARK VINA RESULT:    -6.116      6.115      8.525
REMARK INTER + INTRA:         -10.006
REMARK INTER:                  -8.618
REMARK INTRA:                  -1.388
REMARK UNBOUND:                -1.031
REMARK  Name = 
REMARK  10 active torsions:
REMARK  status: ('A' for Active; 'I' for Inactive)
REMARK    1  A    between atoms: C_1  and  O_2
REMARK    2  A    between atoms: O_2  and  C_3
REMARK    3  A    between atoms: C_10  and  C_11
REMARK    4  A    between atoms: N_13  and  C_14
REMARK    5  A    between atoms: C_14  and  C_15
REMARK    6  A    between atoms: C_18  and  C_19
REMARK    7  A    between atoms: C_19  and  N_20
REMARK    8  A    between atoms: N_20  and  C_21
REMARK    9  A    between atoms: C_21  and  C_22
REMARK   10  A    between atoms: C_26  and  C_27
REMARK                            x       y       z     vdW  Elec       q    Type
REMARK                         _______ _______ _______ _____ _____    ______ ____
ROOT
ATOM      1  C   UNL     1      50.738   9.730  11.397  0.00  0.00    +0.000 A 
ATOM      2  C   UNL     1      49.938  10.790  11.838  0.00  0.00    +0.000 A 
ATOM      3  C   UNL     1      48.641  10.554  12.303  0.00  0.00    +0.000 A 
ATOM      4  C   UNL     1      48.110   9.257  12.319  0.00  0.00    +0.000 A 
ATOM      5  C   UNL     1      48.931   8.193  11.917  0.00  0.00    +0.000 A 
ATOM      6  C   UNL     1      50.231   8.426  11.462  0.00  0.00    +0.000 A 
ENDROOT
BRANCH   1   7
ATOM      7  C   UNL     1      52.149   9.969  10.929  0.00  0.00    +0.000 C 
BRANCH   7  10
ATOM      8  C   UNL     1      53.519   9.460   8.948  0.00  0.00    +0.000 C 
ATOM      9  O   UNL     1      54.368  10.289   9.269  0.00  0.00    +0.000 OA
ATOM     10  N   UNL     1      52.387   9.274   9.689  0.00  0.00    +0.000 N 
ATOM     11  H   UNL     1      51.741   8.536   9.447  0.00  0.00    +0.000 HD
BRANCH   8  19
ATOM     12  C   UNL     1      53.572   6.063   8.378  0.00  0.00    +0.000 A 
ATOM     13  N   UNL     1      53.591   4.814   7.871  0.00  0.00    +0.000 NA
ATOM     14  C   UNL     1      53.729   4.672   6.551  0.00  0.00    +0.000 A 
ATOM     15  N   UNL     1      53.865   5.644   5.652  0.00  0.00    +0.000 NA
ATOM     16  C   UNL     1      53.833   6.872   6.196  0.00  0.00    +0.000 A 
ATOM     17  S   UNL     1      54.005   8.233   5.196  0.00  0.00    +0.000 S 
ATOM     18  C   UNL     1      53.860   9.285   6.520  0.00  0.00    +0.000 A 
ATOM     19  C   UNL     1      53.673   8.639   7.736  0.00  0.00    +0.000 A 
ATOM     20  C   UNL     1      53.675   7.190   7.540  0.00  0.00    +0.000 A 
BRANCH  12  22
ATOM     21  C   UNL     1      54.643   6.106  10.459  0.00  0.00    +0.000 C 
ATOM     22  O   UNL     1      53.418   6.211   9.739  0.00  0.00    +0.000 OA
ENDBRANCH  12  22
ENDBRANCH   8  19
ENDBRANCH   7  10
ENDBRANCH   1   7
BRANCH   4  23
ATOM     23  C   UNL     1      46.714   8.967  12.824  0.00  0.00    +0.000 C 
BRANCH  23  24
ATOM     24  N   UNL     1      45.691   9.116  11.783  0.00  0.00    +0.000 NA
ATOM     25  H   UNL     1      46.161   9.209  10.882  0.00  0.00    +0.000 HD
BRANCH  24  26
ATOM     26  C   UNL     1      44.810   7.950  11.758  0.00  0.00    +0.000 C 
BRANCH  26  27
ATOM     27  C   UNL     1      45.553   6.664  12.179  0.00  0.00    +0.000 C 
ATOM     28  C   UNL     1      46.173   5.894  10.998  0.00  0.00    +0.000 C 
ATOM     29  C   UNL     1      45.118   5.227  10.115  0.00  0.00    +0.000 C 
ATOM     30  N   UNL     1      44.230   4.381  10.917  0.00  0.00    +0.000 N 
ATOM     31  C   UNL     1      43.903   3.056  10.682  0.00  0.00    +0.000 C 
ATOM     32  C   UNL     1      44.534   2.306   9.534  0.00  0.00    +0.000 C 
ATOM     33  O   UNL     1      43.107   2.444  11.402  0.00  0.00    +0.000 OA
ATOM     34  C   UNL     1      43.574   5.065  12.032  0.00  0.00    +0.000 C 
ATOM     35  C   UNL     1      44.605   5.726  12.948  0.00  0.00    +0.000 C 
ENDBRANCH  26  27
ENDBRANCH  24  26
ENDBRANCH  23  24
ENDBRANCH   4  23
TORSDOF 8
ENDMDL
