MODEL 1
REMARK VINA RESULT:    -8.792      0.000      0.000
REMARK INTER + INTRA:         -12.778
REMARK INTER:                 -11.877
REMARK INTRA:                  -0.902
REMARK UNBOUND:                -0.902
REMARK  Name = 
REMARK  6 active torsions:
REMARK  status: ('A' for Active; 'I' for Inactive)
REMARK    1  A    between atoms: C_2  and  C_4
REMARK    2  A    between atoms: N_8  and  C_9
REMARK    3  A    between atoms: C_9  and  C_10
REMARK    4  A    between atoms: C_10  and  C_13
REMARK    5  A    between atoms: C_17  and  N_18
REMARK    6  A    between atoms: N_18  and  C_19
REMARK                            x       y       z     vdW  Elec       q    Type
REMARK                         _______ _______ _______ _____ _____    ______ ____
ROOT
ATOM      1  C   UNL     1      43.635   4.625  12.497  0.00  0.00    +0.000 C 
ATOM      2  F   UNL     1      42.652   5.410  13.033  0.00  0.00    +0.000 F 
ATOM      3  F   UNL     1      43.544   3.433  13.162  0.00  0.00    +0.000 F 
ENDROOT
BRANCH   1   4
ATOM      4  C   UNL     1      45.005   5.259  12.650  0.00  0.00    +0.000 A 
ATOM      5  C   UNL     1      45.544   6.053  11.629  0.00  0.00    +0.000 A 
ATOM      6  C   UNL     1      46.813   6.615  11.769  0.00  0.00    +0.000 A 
ATOM      7  C   UNL     1      47.561   6.385  12.926  0.00  0.00    +0.000 A 
ATOM      8  C   UNL     1      47.043   5.603  13.961  0.00  0.00    +0.000 A 
ATOM      9  C   UNL     1      45.766   5.045  13.811  0.00  0.00    +0.000 A 
BRANCH   8  10
ATOM     10  N   UNL     1      47.746   5.342  15.157  0.00  0.00    +0.000 N 
ATOM     11  H   UNL     1      48.723   5.150  14.933  0.00  0.00    +0.000 HD
BRANCH  10  12
ATOM     12  C   UNL     1      47.263   4.556  16.271  0.00  0.00    +0.000 C 
ATOM     13  C   UNL     1      47.925   4.981  17.614  0.00  0.00    +0.000 C 
ATOM     14  S   UNL     1      48.125   3.238  18.099  0.00  0.00    +0.000 S 
ATOM     15  C   UNL     1      47.920   3.146  16.295  0.00  0.00    +0.000 C 
ENDBRANCH  10  12
ENDBRANCH   8  10
ENDBRANCH   1   4
BRANCH   1  16
ATOM     16  C   UNL     1      43.314   4.379  11.002  0.00  0.00    +0.000 C 
BRANCH  16  21
ATOM     17  C   UNL     1      46.534   2.591   7.410  0.00  0.00    +0.000 A 
ATOM     18  C   UNL     1      46.044   3.871   7.646  0.00  0.00    +0.000 A 
ATOM     19  C   UNL     1      45.126   4.067   8.677  0.00  0.00    +0.000 A 
ATOM     20  C   UNL     1      44.715   2.990   9.459  0.00  0.00    +0.000 A 
ATOM     21  N   UNL     1      43.826   3.111  10.491  0.00  0.00    +0.000 N 
ATOM     22  N   UNL     1      45.167   1.744   9.223  0.00  0.00    +0.000 NA
ATOM     23  C   UNL     1      46.050   1.563   8.204  0.00  0.00    +0.000 A 
ATOM     24  H   UNL     1      43.663   2.252  11.009  0.00  0.00    +0.000 HD
BRANCH  17  26
ATOM     25  N   UNL     1      47.513   3.103   5.250  0.00  0.00    +0.000 N 
ATOM     26  C   UNL     1      47.519   2.293   6.353  0.00  0.00    +0.000 C 
ATOM     27  O   UNL     1      48.331   1.385   6.470  0.00  0.00    +0.000 OA
ATOM     28  H   UNL     1      48.260   2.960   4.589  0.00  0.00    +0.000 HD
ATOM     29  H   UNL     1      47.045   4.000   5.238  0.00  0.00    +0.000 HD
ENDBRANCH  17  26
ENDBRANCH  16  21
ENDBRANCH   1  16
TORSDOF 6
ENDMDL
MODEL 2
REMARK VINA RESULT:    -8.398      2.375      3.102
REMARK INTER + INTRA:         -12.245
REMARK INTER:                 -11.438
REMARK INTRA:                  -0.806
REMARK UNBOUND:                -0.902
REMARK  Name = 
REMARK  6 active torsions:
REMARK  status: ('A' for Active; 'I' for Inactive)
REMARK    1  A    between atoms: C_2  and  C_4
REMARK    2  A    between atoms: N_8  and  C_9
REMARK    3  A    between atoms: C_9  and  C_10
REMARK    4  A    between atoms: C_10  and  C_13
REMARK    5  A    between atoms: C_17  and  N_18
REMARK    6  A    between atoms: N_18  and  C_19
REMARK                            x       y       z     vdW  Elec       q    Type
REMARK                         _______ _______ _______ _____ _____    ______ ____
ROOT
ATOM      1  C   UNL     1      43.356   5.567  12.038  0.00  0.00    +0.000 C 
ATOM      2  F   UNL     1      43.192   6.898  11.776  0.00  0.00    +0.000 F 
ATOM      3  F   UNL     1      42.336   5.240  12.889  0.00  0.00    +0.000 F 
ENDROOT
BRANCH   1   4
ATOM      4  C   UNL     1      44.717   5.277  12.644  0.00  0.00    +0.000 A 
ATOM      5  C   UNL     1      45.158   3.958  12.813  0.00  0.00    +0.000 A 
ATOM      6  C   UNL     1      46.402   3.701  13.389  0.00  0.00    +0.000 A 
ATOM      7  C   UNL     1      47.216   4.755  13.810  0.00  0.00    +0.000 A 
ATOM      8  C   UNL     1      46.801   6.078  13.646  0.00  0.00    +0.000 A 
ATOM      9  C   UNL     1      45.550   6.327  13.064  0.00  0.00    +0.000 A 
BRANCH   8  10
ATOM     10  N   UNL     1      47.580   7.186  14.042  0.00  0.00    +0.000 N 
ATOM     11  H   UNL     1      47.071   7.715  14.751  0.00  0.00    +0.000 HD
BRANCH  10  12
ATOM     12  C   UNL     1      48.359   8.034  13.166  0.00  0.00    +0.000 C 
ATOM     13  C   UNL     1      48.405   7.482  11.711  0.00  0.00    +0.000 C 
ATOM     14  S   UNL     1      50.179   7.869  11.592  0.00  0.00    +0.000 S 
ATOM     15  C   UNL     1      49.885   7.824  13.385  0.00  0.00    +0.000 C 
ENDBRANCH  10  12
ENDBRANCH   8  10
ENDBRANCH   1   4
BRANCH   1  16
ATOM     16  C   UNL     1      43.168   4.775  10.721  0.00  0.00    +0.000 C 
BRANCH  16  21
ATOM     17  C   UNL     1      46.493   2.348   7.634  0.00  0.00    +0.000 A 
ATOM     18  C   UNL     1      45.705   1.880   8.680  0.00  0.00    +0.000 A 
ATOM     19  C   UNL     1      44.919   2.784   9.394  0.00  0.00    +0.000 A 
ATOM     20  C   UNL     1      44.925   4.134   9.054  0.00  0.00    +0.000 A 
ATOM     21  N   UNL     1      44.174   5.074   9.705  0.00  0.00    +0.000 N 
ATOM     22  N   UNL     1      45.703   4.599   8.058  0.00  0.00    +0.000 NA
ATOM     23  C   UNL     1      46.477   3.710   7.379  0.00  0.00    +0.000 A 
ATOM     24  H   UNL     1      44.237   6.009   9.312  0.00  0.00    +0.000 HD
BRANCH  17  26
ATOM     25  N   UNL     1      48.450   2.024   6.237  0.00  0.00    +0.000 N 
ATOM     26  C   UNL     1      47.342   1.463   6.813  0.00  0.00    +0.000 C 
ATOM     27  O   UNL     1      47.089   0.274   6.680  0.00  0.00    +0.000 OA
ATOM     28  H   UNL     1      49.080   1.388   5.773  0.00  0.00    +0.000 HD
ATOM     29  H   UNL     1      48.823   2.916   6.534  0.00  0.00    +0.000 HD
ENDBRANCH  17  26
ENDBRANCH  16  21
ENDBRANCH   1  16
TORSDOF 6
ENDMDL
MODEL 3
REMARK VINA RESULT:    -8.243      3.085      4.176
REMARK INTER + INTRA:         -12.036
REMARK INTER:                 -11.767
REMARK INTRA:                  -0.269
REMARK UNBOUND:                -0.902
REMARK  Name = 
REMARK  6 active torsions:
REMARK  status: ('A' for Active; 'I' for Inactive)
REMARK    1  A    between atoms: C_2  and  C_4
REMARK    2  A    between atoms: N_8  and  C_9
REMARK    3  A    between atoms: C_9  and  C_10
REMARK    4  A    between atoms: C_10  and  C_13
REMARK    5  A    between atoms: C_17  and  N_18
REMARK    6  A    between atoms: N_18  and  C_19
REMARK                            x       y       z     vdW  Elec       q    Type
REMARK                         _______ _______ _______ _____ _____    ______ ____
ROOT
ATOM      1  C   UNL     1      43.616   4.625  12.449  0.00  0.00    +0.000 C 
ATOM      2  F   UNL     1      42.641   5.072  13.297  0.00  0.00    +0.000 F 
ATOM      3  F   UNL     1      43.755   3.294  12.733  0.00  0.00    +0.000 F 
ENDROOT
BRANCH   1   4
ATOM      4  C   UNL     1      44.915   5.386  12.635  0.00  0.00    +0.000 A 
ATOM      5  C   UNL     1      46.064   4.736  13.106  0.00  0.00    +0.000 A 
ATOM      6  C   UNL     1      47.248   5.448  13.293  0.00  0.00    +0.000 A 
ATOM      7  C   UNL     1      47.298   6.817  13.022  0.00  0.00    +0.000 A 
ATOM      8  C   UNL     1      46.168   7.486  12.545  0.00  0.00    +0.000 A 
ATOM      9  C   UNL     1      44.984   6.761  12.358  0.00  0.00    +0.000 A 
BRANCH   8  10
ATOM     10  N   UNL     1      46.158   8.865  12.244  0.00  0.00    +0.000 N 
ATOM     11  H   UNL     1      46.947   9.313  12.712  0.00  0.00    +0.000 HD
BRANCH  10  12
ATOM     12  C   UNL     1      44.988   9.713  12.186  0.00  0.00    +0.000 C 
ATOM     13  C   UNL     1      44.205   9.537  10.852  0.00  0.00    +0.000 C 
ATOM     14  S   UNL     1      43.966  11.337  10.724  0.00  0.00    +0.000 S 
ATOM     15  C   UNL     1      45.371  11.186  11.867  0.00  0.00    +0.000 C 
ENDBRANCH  10  12
ENDBRANCH   8  10
ENDBRANCH   1   4
BRANCH   1  16
ATOM     16  C   UNL     1      43.109   4.765  10.992  0.00  0.00    +0.000 C 
BRANCH  16  21
ATOM     17  C   UNL     1      46.422   2.500   7.774  0.00  0.00    +0.000 A 
ATOM     18  C   UNL     1      45.586   1.970   8.749  0.00  0.00    +0.000 A 
ATOM     19  C   UNL     1      44.816   2.835   9.527  0.00  0.00    +0.000 A 
ATOM     20  C   UNL     1      44.887   4.210   9.317  0.00  0.00    +0.000 A 
ATOM     21  N   UNL     1      44.155   5.115  10.036  0.00  0.00    +0.000 N 
ATOM     22  N   UNL     1      45.711   4.733   8.390  0.00  0.00    +0.000 NA
ATOM     23  C   UNL     1      46.469   3.880   7.649  0.00  0.00    +0.000 A 
ATOM     24  H   UNL     1      44.267   6.079   9.735  0.00  0.00    +0.000 HD
BRANCH  17  26
ATOM     25  N   UNL     1      48.279   2.285   6.226  0.00  0.00    +0.000 N 
ATOM     26  C   UNL     1      47.259   1.662   6.894  0.00  0.00    +0.000 C 
ATOM     27  O   UNL     1      47.075   0.457   6.790  0.00  0.00    +0.000 OA
ATOM     28  H   UNL     1      48.909   1.685   5.718  0.00  0.00    +0.000 HD
ATOM     29  H   UNL     1      48.615   3.203   6.484  0.00  0.00    +0.000 HD
ENDBRANCH  17  26
ENDBRANCH  16  21
ENDBRANCH   1  16
TORSDOF 6
ENDMDL
MODEL 4
REMARK VINA RESULT:    -8.225      1.527      1.688
REMARK INTER + INTRA:         -12.012
REMARK INTER:                 -11.223
REMARK INTRA:                  -0.789
REMARK UNBOUND:                -0.902
REMARK  Name = 
REMARK  6 active torsions:
REMARK  status: ('A' for Active; 'I' for Inactive)
REMARK    1  A    between atoms: C_2  and  C_4
REMARK    2  A    between atoms: N_8  and  C_9
REMARK    3  A    between atoms: C_9  and  C_10
REMARK    4  A    between atoms: C_10  and  C_13
REMARK    5  A    between atoms: C_17  and  N_18
REMARK    6  A    between atoms: N_18  and  C_19
REMARK                            x       y       z     vdW  Elec       q    Type
REMARK                         _______ _______ _______ _____ _____    ______ ____
ROOT
ATOM      1  C   UNL     1      43.747   4.741  12.453  0.00  0.00    +0.000 C 
ATOM      2  F   UNL     1      42.762   5.480  13.048  0.00  0.00    +0.000 F 
ATOM      3  F   UNL     1      43.782   3.564  13.150  0.00  0.00    +0.000 F 
ENDROOT
BRANCH   1   4
ATOM      4  C   UNL     1      45.083   5.460  12.480  0.00  0.00    +0.000 A 
ATOM      5  C   UNL     1      45.545   6.153  11.354  0.00  0.00    +0.000 A 
ATOM      6  C   UNL     1      46.784   6.794  11.382  0.00  0.00    +0.000 A 
ATOM      7  C   UNL     1      47.578   6.743  12.529  0.00  0.00    +0.000 A 
ATOM      8  C   UNL     1      47.136   6.063  13.667  0.00  0.00    +0.000 A 
ATOM      9  C   UNL     1      45.889   5.425  13.630  0.00  0.00    +0.000 A 
BRANCH   8  10
ATOM     10  N   UNL     1      47.888   5.983  14.859  0.00  0.00    +0.000 N 
ATOM     11  H   UNL     1      47.250   5.875  15.648  0.00  0.00    +0.000 HD
BRANCH  10  12
ATOM     12  C   UNL     1      49.050   6.781  15.185  0.00  0.00    +0.000 C 
ATOM     13  C   UNL     1      49.704   6.338  16.526  0.00  0.00    +0.000 C 
ATOM     14  S   UNL     1      49.934   8.074  17.020  0.00  0.00    +0.000 S 
ATOM     15  C   UNL     1      48.641   8.173  15.746  0.00  0.00    +0.000 C 
ENDBRANCH  10  12
ENDBRANCH   8  10
ENDBRANCH   1   4
BRANCH   1  16
ATOM     16  C   UNL     1      43.325   4.434  10.995  0.00  0.00    +0.000 C 
BRANCH  16  21
ATOM     17  C   UNL     1      46.519   2.599   7.404  0.00  0.00    +0.000 A 
ATOM     18  C   UNL     1      46.037   3.883   7.631  0.00  0.00    +0.000 A 
ATOM     19  C   UNL     1      45.124   4.093   8.665  0.00  0.00    +0.000 A 
ATOM     20  C   UNL     1      44.712   3.025   9.457  0.00  0.00    +0.000 A 
ATOM     21  N   UNL     1      43.827   3.159  10.492  0.00  0.00    +0.000 N 
ATOM     22  N   UNL     1      45.155   1.774   9.230  0.00  0.00    +0.000 NA
ATOM     23  C   UNL     1      46.033   1.580   8.209  0.00  0.00    +0.000 A 
ATOM     24  H   UNL     1      43.662   2.305  11.017  0.00  0.00    +0.000 HD
BRANCH  17  26
ATOM     25  N   UNL     1      47.493   3.088   5.236  0.00  0.00    +0.000 N 
ATOM     26  C   UNL     1      47.499   2.287   6.346  0.00  0.00    +0.000 C 
ATOM     27  O   UNL     1      48.305   1.375   6.466  0.00  0.00    +0.000 OA
ATOM     28  H   UNL     1      48.236   2.935   4.573  0.00  0.00    +0.000 HD
ATOM     29  H   UNL     1      47.031   3.988   5.219  0.00  0.00    +0.000 HD
ENDBRANCH  17  26
ENDBRANCH  16  21
ENDBRANCH   1  16
TORSDOF 6
ENDMDL
MODEL 5
REMARK VINA RESULT:    -7.447      2.915      3.500
REMARK INTER + INTRA:         -10.961
REMARK INTER:                 -10.371
REMARK INTRA:                  -0.590
REMARK UNBOUND:                -0.902
REMARK  Name = 
REMARK  6 active torsions:
REMARK  status: ('A' for Active; 'I' for Inactive)
REMARK    1  A    between atoms: C_2  and  C_4
REMARK    2  A    between atoms: N_8  and  C_9
REMARK    3  A    between atoms: C_9  and  C_10
REMARK    4  A    between atoms: C_10  and  C_13
REMARK    5  A    between atoms: C_17  and  N_18
REMARK    6  A    between atoms: N_18  and  C_19
REMARK                            x       y       z     vdW  Elec       q    Type
REMARK                         _______ _______ _______ _____ _____    ______ ____
ROOT
ATOM      1  C   UNL     1      44.754   5.666  12.165  0.00  0.00    +0.000 C 
ATOM      2  F   UNL     1      44.175   5.309  13.351  0.00  0.00    +0.000 F 
ATOM      3  F   UNL     1      45.916   4.947  12.103  0.00  0.00    +0.000 F 
ENDROOT
BRANCH   1   4
ATOM      4  C   UNL     1      45.004   7.161  12.090  0.00  0.00    +0.000 A 
ATOM      5  C   UNL     1      44.189   7.984  11.301  0.00  0.00    +0.000 A 
ATOM      6  C   UNL     1      44.440   9.353  11.222  0.00  0.00    +0.000 A 
ATOM      7  C   UNL     1      45.510   9.916  11.922  0.00  0.00    +0.000 A 
ATOM      8  C   UNL     1      46.332   9.117  12.719  0.00  0.00    +0.000 A 
ATOM      9  C   UNL     1      46.071   7.743  12.795  0.00  0.00    +0.000 A 
BRANCH   8  10
ATOM     10  N   UNL     1      47.423   9.627  13.457  0.00  0.00    +0.000 N 
ATOM     11  H   UNL     1      47.166  10.536  13.845  0.00  0.00    +0.000 HD
BRANCH  10  12
ATOM     12  C   UNL     1      48.815   9.558  13.071  0.00  0.00    +0.000 C 
ATOM     13  C   UNL     1      48.992   9.553  11.524  0.00  0.00    +0.000 C 
ATOM     14  S   UNL     1      50.264   8.257  11.646  0.00  0.00    +0.000 S 
ATOM     15  C   UNL     1      49.374   8.115  13.225  0.00  0.00    +0.000 C 
ENDBRANCH  10  12
ENDBRANCH   8  10
ENDBRANCH   1   4
BRANCH   1  16
ATOM     16  C   UNL     1      43.833   5.211  11.007  0.00  0.00    +0.000 C 
BRANCH  16  21
ATOM     17  C   UNL     1      46.636   2.732   7.477  0.00  0.00    +0.000 A 
ATOM     18  C   UNL     1      46.392   4.087   7.665  0.00  0.00    +0.000 A 
ATOM     19  C   UNL     1      45.535   4.486   8.690  0.00  0.00    +0.000 A 
ATOM     20  C   UNL     1      44.941   3.533   9.513  0.00  0.00    +0.000 A 
ATOM     21  N   UNL     1      44.098   3.852  10.542  0.00  0.00    +0.000 N 
ATOM     22  N   UNL     1      45.154   2.217   9.323  0.00  0.00    +0.000 NA
ATOM     23  C   UNL     1      45.980   1.840   8.309  0.00  0.00    +0.000 A 
ATOM     24  H   UNL     1      43.785   3.057  11.092  0.00  0.00    +0.000 HD
BRANCH  17  26
ATOM     25  N   UNL     1      47.814   3.055   5.380  0.00  0.00    +0.000 N 
ATOM     26  C   UNL     1      47.541   2.220   6.429  0.00  0.00    +0.000 C 
ATOM     27  O   UNL     1      48.054   1.112   6.510  0.00  0.00    +0.000 OA
ATOM     28  H   UNL     1      48.518   2.738   4.731  0.00  0.00    +0.000 HD
ATOM     29  H   UNL     1      47.623   4.047   5.413  0.00  0.00    +0.000 HD
ENDBRANCH  17  26
ENDBRANCH  16  21
ENDBRANCH   1  16
TORSDOF 6
ENDMDL
MODEL 6
REMARK VINA RESULT:    -7.043      3.870      7.583
REMARK INTER + INTRA:         -10.415
REMARK INTER:                 -10.048
REMARK INTRA:                  -0.367
REMARK UNBOUND:                -0.902
REMARK  Name = 
REMARK  6 active torsions:
REMARK  status: ('A' for Active; 'I' for Inactive)
REMARK    1  A    between atoms: C_2  and  C_4
REMARK    2  A    between atoms: N_8  and  C_9
REMARK    3  A    between atoms: C_9  and  C_10
REMARK    4  A    between atoms: C_10  and  C_13
REMARK    5  A    between atoms: C_17  and  N_18
REMARK    6  A    between atoms: N_18  and  C_19
REMARK                            x       y       z     vdW  Elec       q    Type
REMARK                         _______ _______ _______ _____ _____    ______ ____
ROOT
ATOM      1  C   UNL     1      45.686   7.060  12.102  0.00  0.00    +0.000 C 
ATOM      2  F   UNL     1      45.429   7.813  13.214  0.00  0.00    +0.000 F 
ATOM      3  F   UNL     1      45.372   7.866  11.043  0.00  0.00    +0.000 F 
ENDROOT
BRANCH   1   4
ATOM      4  C   UNL     1      44.882   5.773  12.096  0.00  0.00    +0.000 A 
ATOM      5  C   UNL     1      43.782   5.613  12.950  0.00  0.00    +0.000 A 
ATOM      6  C   UNL     1      43.061   4.419  12.952  0.00  0.00    +0.000 A 
ATOM      7  C   UNL     1      43.434   3.369  12.110  0.00  0.00    +0.000 A 
ATOM      8  C   UNL     1      44.522   3.507  11.245  0.00  0.00    +0.000 A 
ATOM      9  C   UNL     1      45.239   4.711  11.248  0.00  0.00    +0.000 A 
BRANCH   8  10
ATOM     10  N   UNL     1      44.942   2.487  10.365  0.00  0.00    +0.000 N 
ATOM     11  H   UNL     1      45.827   2.104  10.699  0.00  0.00    +0.000 HD
BRANCH  10  12
ATOM     12  C   UNL     1      44.858   2.523   8.921  0.00  0.00    +0.000 C 
ATOM     13  C   UNL     1      46.054   1.787   8.249  0.00  0.00    +0.000 C 
ATOM     14  S   UNL     1      46.215   3.116   7.017  0.00  0.00    +0.000 S 
ATOM     15  C   UNL     1      45.289   3.911   8.364  0.00  0.00    +0.000 C 
ENDBRANCH  10  12
ENDBRANCH   8  10
ENDBRANCH   1   4
BRANCH   1  16
ATOM     16  C   UNL     1      47.203   6.752  12.051  0.00  0.00    +0.000 C 
BRANCH  16  21
ATOM     17  C   UNL     1      48.001   4.439  16.576  0.00  0.00    +0.000 A 
ATOM     18  C   UNL     1      47.155   4.118  15.520  0.00  0.00    +0.000 A 
ATOM     19  C   UNL     1      47.100   4.965  14.413  0.00  0.00    +0.000 A 
ATOM     20  C   UNL     1      47.890   6.111  14.373  0.00  0.00    +0.000 A 
ATOM     21  N   UNL     1      47.894   6.981  13.317  0.00  0.00    +0.000 N 
ATOM     22  N   UNL     1      48.694   6.441  15.401  0.00  0.00    +0.000 NA
ATOM     23  C   UNL     1      48.727   5.616  16.482  0.00  0.00    +0.000 A 
ATOM     24  H   UNL     1      48.561   7.742  13.401  0.00  0.00    +0.000 HD
BRANCH  17  26
ATOM     25  N   UNL     1      47.162   2.657  17.994  0.00  0.00    +0.000 N 
ATOM     26  C   UNL     1      48.137   3.594  17.778  0.00  0.00    +0.000 C 
ATOM     27  O   UNL     1      49.094   3.699  18.532  0.00  0.00    +0.000 OA
ATOM     28  H   UNL     1      47.323   2.014  18.753  0.00  0.00    +0.000 HD
ATOM     29  H   UNL     1      46.515   2.372  17.271  0.00  0.00    +0.000 HD
ENDBRANCH  17  26
ENDBRANCH  16  21
ENDBRANCH   1  16
TORSDOF 6
ENDMDL
MODEL 7
REMARK VINA RESULT:    -6.652      4.207      8.652
REMARK INTER + INTRA:          -9.887
REMARK INTER:                  -9.439
REMARK INTRA:                  -0.448
REMARK UNBOUND:                -0.902
REMARK  Name = 
REMARK  6 active torsions:
REMARK  status: ('A' for Active; 'I' for Inactive)
REMARK    1  A    between atoms: C_2  and  C_4
REMARK    2  A    between atoms: N_8  and  C_9
REMARK    3  A    between atoms: C_9  and  C_10
REMARK    4  A    between atoms: C_10  and  C_13
REMARK    5  A    between atoms: C_17  and  N_18
REMARK    6  A    between atoms: N_18  and  C_19
REMARK                            x       y       z     vdW  Elec       q    Type
REMARK                         _______ _______ _______ _____ _____    ______ ____
ROOT
ATOM      1  C   UNL     1      46.556   6.389  12.590  0.00  0.00    +0.000 C 
ATOM      2  F   UNL     1      46.044   7.483  13.230  0.00  0.00    +0.000 F 
ATOM      3  F   UNL     1      47.307   6.894  11.564  0.00  0.00    +0.000 F 
ENDROOT
BRANCH   1   4
ATOM      4  C   UNL     1      45.461   5.465  12.092  0.00  0.00    +0.000 A 
ATOM      5  C   UNL     1      44.662   4.751  12.996  0.00  0.00    +0.000 A 
ATOM      6  C   UNL     1      43.671   3.888  12.528  0.00  0.00    +0.000 A 
ATOM      7  C   UNL     1      43.471   3.721  11.156  0.00  0.00    +0.000 A 
ATOM      8  C   UNL     1      44.249   4.427  10.236  0.00  0.00    +0.000 A 
ATOM      9  C   UNL     1      45.241   5.294  10.715  0.00  0.00    +0.000 A 
BRANCH   8  10
ATOM     10  N   UNL     1      44.090   4.309   8.839  0.00  0.00    +0.000 N 
ATOM     11  H   UNL     1      43.135   4.572   8.590  0.00  0.00    +0.000 HD
BRANCH  10  12
ATOM     12  C   UNL     1      44.609   3.242   8.012  0.00  0.00    +0.000 C 
ATOM     13  C   UNL     1      45.204   2.082   8.863  0.00  0.00    +0.000 C 
ATOM     14  S   UNL     1      46.626   1.948   7.736  0.00  0.00    +0.000 S 
ATOM     15  C   UNL     1      45.990   3.618   7.404  0.00  0.00    +0.000 C 
ENDBRANCH  10  12
ENDBRANCH   8  10
ENDBRANCH   1   4
BRANCH   1  16
ATOM     16  C   UNL     1      47.498   5.640  13.564  0.00  0.00    +0.000 C 
BRANCH  16  21
ATOM     17  C   UNL     1      48.692   5.200  18.549  0.00  0.00    +0.000 A 
ATOM     18  C   UNL     1      48.094   4.306  17.668  0.00  0.00    +0.000 A 
ATOM     19  C   UNL     1      47.836   4.713  16.359  0.00  0.00    +0.000 A 
ATOM     20  C   UNL     1      48.182   5.997  15.948  0.00  0.00    +0.000 A 
ATOM     21  N   UNL     1      47.966   6.460  14.679  0.00  0.00    +0.000 N 
ATOM     22  N   UNL     1      48.740   6.877  16.800  0.00  0.00    +0.000 NA
ATOM     23  C   UNL     1      48.972   6.474  18.079  0.00  0.00    +0.000 A 
ATOM     24  H   UNL     1      48.320   7.396  14.506  0.00  0.00    +0.000 HD
BRANCH  17  26
ATOM     25  N   UNL     1      50.272   4.360  20.188  0.00  0.00    +0.000 N 
ATOM     26  C   UNL     1      49.018   4.852  19.946  0.00  0.00    +0.000 C 
ATOM     27  O   UNL     1      48.218   5.027  20.854  0.00  0.00    +0.000 OA
ATOM     28  H   UNL     1      50.520   4.231  21.156  0.00  0.00    +0.000 HD
ATOM     29  H   UNL     1      51.027   4.447  19.521  0.00  0.00    +0.000 HD
ENDBRANCH  17  26
ENDBRANCH  16  21
ENDBRANCH   1  16
TORSDOF 6
ENDMDL
MODEL 8
REMARK VINA RESULT:    -6.273      4.265      7.254
REMARK INTER + INTRA:          -9.376
REMARK INTER:                  -8.737
REMARK INTRA:                  -0.638
REMARK UNBOUND:                -0.902
REMARK  Name = 
REMARK  6 active torsions:
REMARK  status: ('A' for Active; 'I' for Inactive)
REMARK    1  A    between atoms: C_2  and  C_4
REMARK    2  A    between atoms: N_8  and  C_9
REMARK    3  A    between atoms: C_9  and  C_10
REMARK    4  A    between atoms: C_10  and  C_13
REMARK    5  A    between atoms: C_17  and  N_18
REMARK    6  A    between atoms: N_18  and  C_19
REMARK                            x       y       z     vdW  Elec       q    Type
REMARK                         _______ _______ _______ _____ _____    ______ ____
ROOT
ATOM      1  C   UNL     1      46.506   5.068  13.691  0.00  0.00    +0.000 C 
ATOM      2  F   UNL     1      47.631   4.439  13.234  0.00  0.00    +0.000 F 
ATOM      3  F   UNL     1      46.386   4.681  14.998  0.00  0.00    +0.000 F 
ENDROOT
BRANCH   1   4
ATOM      4  C   UNL     1      45.283   4.697  12.873  0.00  0.00    +0.000 A 
ATOM      5  C   UNL     1      44.066   5.364  13.065  0.00  0.00    +0.000 A 
ATOM      6  C   UNL     1      42.942   5.002  12.322  0.00  0.00    +0.000 A 
ATOM      7  C   UNL     1      43.017   3.968  11.387  0.00  0.00    +0.000 A 
ATOM      8  C   UNL     1      44.222   3.293  11.173  0.00  0.00    +0.000 A 
ATOM      9  C   UNL     1      45.346   3.665  11.922  0.00  0.00    +0.000 A 
BRANCH   8  10
ATOM     10  N   UNL     1      44.364   2.246  10.237  0.00  0.00    +0.000 N 
ATOM     11  H   UNL     1      44.944   1.512  10.645  0.00  0.00    +0.000 HD
BRANCH  10  12
ATOM     12  C   UNL     1      44.577   2.401   8.815  0.00  0.00    +0.000 C 
ATOM     13  C   UNL     1      45.974   1.874   8.374  0.00  0.00    +0.000 C 
ATOM     14  S   UNL     1      46.209   3.318   7.292  0.00  0.00    +0.000 S 
ATOM     15  C   UNL     1      44.925   3.874   8.453  0.00  0.00    +0.000 C 
ENDBRANCH  10  12
ENDBRANCH   8  10
ENDBRANCH   1   4
BRANCH   1  16
ATOM     16  C   UNL     1      46.742   6.598  13.653  0.00  0.00    +0.000 C 
BRANCH  16  21
ATOM     17  C   UNL     1      51.326   8.395  12.162  0.00  0.00    +0.000 A 
ATOM     18  C   UNL     1      50.256   7.896  11.429  0.00  0.00    +0.000 A 
ATOM     19  C   UNL     1      49.133   7.420  12.105  0.00  0.00    +0.000 A 
ATOM     20  C   UNL     1      49.092   7.453  13.497  0.00  0.00    +0.000 A 
ATOM     21  N   UNL     1      48.021   7.011  14.224  0.00  0.00    +0.000 N 
ATOM     22  N   UNL     1      50.133   7.913  14.216  0.00  0.00    +0.000 NA
ATOM     23  C   UNL     1      51.229   8.360  13.545  0.00  0.00    +0.000 A 
ATOM     24  H   UNL     1      48.108   7.149  15.227  0.00  0.00    +0.000 HD
BRANCH  17  26
ATOM     25  N   UNL     1      52.652   8.811  10.173  0.00  0.00    +0.000 N 
ATOM     26  C   UNL     1      52.547   8.935  11.532  0.00  0.00    +0.000 C 
ATOM     27  O   UNL     1      53.412   9.499  12.188  0.00  0.00    +0.000 OA
ATOM     28  H   UNL     1      53.434   9.280   9.743  0.00  0.00    +0.000 HD
ATOM     29  H   UNL     1      51.859   8.593   9.585  0.00  0.00    +0.000 HD
ENDBRANCH  17  26
ENDBRANCH  16  21
ENDBRANCH   1  16
TORSDOF 6
ENDMDL
MODEL 9
REMARK VINA RESULT:    -6.200      4.878      7.624
REMARK INTER + INTRA:          -9.277
REMARK INTER:                  -8.194
REMARK INTRA:                  -1.083
REMARK UNBOUND:                -0.902
REMARK  Name = 
REMARK  6 active torsions:
REMARK  status: ('A' for Active; 'I' for Inactive)
REMARK    1  A    between atoms: C_2  and  C_4
REMARK    2  A    between atoms: N_8  and  C_9
REMARK    3  A    between atoms: C_9  and  C_10
REMARK    4  A    between atoms: C_10  and  C_13
REMARK    5  A    between atoms: C_17  and  N_18
REMARK    6  A    between atoms: N_18  and  C_19
REMARK                            x       y       z     vdW  Elec       q    Type
REMARK                         _______ _______ _______ _____ _____    ______ ____
ROOT
ATOM      1  C   UNL     1      48.653   9.123  12.323  0.00  0.00    +0.000 C 
ATOM      2  F   UNL     1      49.086   9.892  13.368  0.00  0.00    +0.000 F 
ATOM      3  F   UNL     1      49.402   9.524  11.250  0.00  0.00    +0.000 F 
ENDROOT
BRANCH   1   4
ATOM      4  C   UNL     1      47.166   9.297  12.077  0.00  0.00    +0.000 A 
ATOM      5  C   UNL     1      46.614  10.573  11.904  0.00  0.00    +0.000 A 
ATOM      6  C   UNL     1      45.242  10.724  11.698  0.00  0.00    +0.000 A 
ATOM      7  C   UNL     1      44.406   9.605  11.670  0.00  0.00    +0.000 A 
ATOM      8  C   UNL     1      44.935   8.323  11.833  0.00  0.00    +0.000 A 
ATOM      9  C   UNL     1      46.314   8.181  12.037  0.00  0.00    +0.000 A 
BRANCH   8  10
ATOM     10  N   UNL     1      44.144   7.153  11.805  0.00  0.00    +0.000 N 
ATOM     11  H   UNL     1      43.163   7.418  11.706  0.00  0.00    +0.000 HD
BRANCH  10  12
ATOM     12  C   UNL     1      44.326   5.986  12.639  0.00  0.00    +0.000 C 
ATOM     13  C   UNL     1      44.983   4.809  11.860  0.00  0.00    +0.000 C 
ATOM     14  S   UNL     1      43.834   3.624  12.624  0.00  0.00    +0.000 S 
ATOM     15  C   UNL     1      42.987   5.218  12.837  0.00  0.00    +0.000 C 
ENDBRANCH  10  12
ENDBRANCH   8  10
ENDBRANCH   1   4
BRANCH   1  16
ATOM     16  C   UNL     1      48.984   7.641  12.627  0.00  0.00    +0.000 C 
BRANCH  16  21
ATOM     17  C   UNL     1      47.831   4.551  16.574  0.00  0.00    +0.000 A 
ATOM     18  C   UNL     1      47.208   4.738  15.346  0.00  0.00    +0.000 A 
ATOM     19  C   UNL     1      47.713   5.697  14.468  0.00  0.00    +0.000 A 
ATOM     20  C   UNL     1      48.830   6.448  14.824  0.00  0.00    +0.000 A 
ATOM     21  N   UNL     1      49.384   7.398  14.010  0.00  0.00    +0.000 N 
ATOM     22  N   UNL     1      49.425   6.289  16.021  0.00  0.00    +0.000 NA
ATOM     23  C   UNL     1      48.914   5.362  16.875  0.00  0.00    +0.000 A 
ATOM     24  H   UNL     1      50.229   7.826  14.377  0.00  0.00    +0.000 HD
BRANCH  17  26
ATOM     25  N   UNL     1      48.124   3.413  18.697  0.00  0.00    +0.000 N 
ATOM     26  C   UNL     1      47.377   3.549  17.558  0.00  0.00    +0.000 C 
ATOM     27  O   UNL     1      46.360   2.892  17.383  0.00  0.00    +0.000 OA
ATOM     28  H   UNL     1      47.744   2.808  19.409  0.00  0.00    +0.000 HD
ATOM     29  H   UNL     1      48.802   4.105  18.987  0.00  0.00    +0.000 HD
ENDBRANCH  17  26
ENDBRANCH  16  21
ENDBRANCH   1  16
TORSDOF 6
ENDMDL
