MODEL 1
REMARK VINA RESULT:    -7.556      0.000      0.000
REMARK INTER + INTRA:         -10.668
REMARK INTER:                  -9.765
REMARK INTRA:                  -0.904
REMARK UNBOUND:                -0.904
REMARK  Name = 
REMARK  7 active torsions:
REMARK  status: ('A' for Active; 'I' for Inactive)
REMARK    1  A    between atoms: C_1  and  C_2
REMARK    2  A    between atoms: C_2  and  C_3
REMARK    3  A    between atoms: C_2  and  C_4
REMARK    4  A    between atoms: C_2  and  C_21
REMARK    5  A    between atoms: C_5  and  C_6
REMARK    6  A    between atoms: C_8  and  C_9
REMARK    7  A    between atoms: C_12  and  C_13
REMARK                            x       y       z     vdW  Elec       q    Type
REMARK                         _______ _______ _______ _____ _____    ______ ____
ROOT
ATOM      1  C   UNL     1      47.123   6.656  12.481  0.00  0.00    +0.000 A 
ATOM      2  C   UNL     1      47.393   6.084  13.722  0.00  0.00    +0.000 A 
ATOM      3  C   UNL     1      48.296   6.706  14.598  0.00  0.00    +0.000 A 
ATOM      4  C   UNL     1      48.904   7.883  14.144  0.00  0.00    +0.000 A 
ATOM      5  C   UNL     1      48.601   8.370  12.886  0.00  0.00    +0.000 A 
ATOM      6  N   UNL     1      47.723   7.786  12.052  0.00  0.00    +0.000 NA
ENDROOT
BRANCH   3   7
ATOM      7  C   UNL     1      48.583   6.158  15.945  0.00  0.00    +0.000 A 
ATOM      8  C   UNL     1      49.383   6.862  16.865  0.00  0.00    +0.000 A 
ATOM      9  C   UNL     1      49.636   6.362  18.147  0.00  0.00    +0.000 A 
ATOM     10  C   UNL     1      49.101   5.135  18.544  0.00  0.00    +0.000 A 
ATOM     11  C   UNL     1      48.324   4.405  17.643  0.00  0.00    +0.000 A 
ATOM     12  C   UNL     1      48.066   4.916  16.364  0.00  0.00    +0.000 A 
BRANCH  10  13
ATOM     13  C   UNL     1      49.410   4.640  19.909  0.00  0.00    +0.000 C 
ATOM     14  N   UNL     1      48.528   3.768  20.481  0.00  0.00    +0.000 N 
ATOM     15  O   UNL     1      50.398   5.028  20.525  0.00  0.00    +0.000 OA
ATOM     16  H   UNL     1      47.607   3.590  20.108  0.00  0.00    +0.000 HD
ATOM     17  H   UNL     1      48.703   3.520  21.446  0.00  0.00    +0.000 HD
ENDBRANCH  10  13
ENDBRANCH   3   7
BRANCH   1  19
ATOM     18  C   UNL     1      45.530   4.864  11.842  0.00  0.00    +0.000 C 
ATOM     19  C   UNL     1      46.148   6.030  11.579  0.00  0.00    +0.000 C 
BRANCH  18  21
ATOM     20  C   UNL     1      43.774   3.133  11.853  0.00  0.00    +0.000 C 
ATOM     21  C   UNL     1      44.484   4.181  10.967  0.00  0.00    +0.000 C 
ATOM     22  C   UNL     1      43.418   5.230  10.569  0.00  0.00    +0.000 C 
BRANCH  21  23
ATOM     23  C   UNL     1      45.100   3.597   9.677  0.00  0.00    +0.000 A 
ATOM     24  C   UNL     1      45.580   4.406   8.631  0.00  0.00    +0.000 A 
ATOM     25  C   UNL     1      46.137   3.840   7.480  0.00  0.00    +0.000 A 
ATOM     26  C   UNL     1      46.210   2.460   7.357  0.00  0.00    +0.000 A 
ATOM     27  F   UNL     1      46.750   1.924   6.254  0.00  0.00    +0.000 F 
ATOM     28  C   UNL     1      45.728   1.631   8.358  0.00  0.00    +0.000 A 
ATOM     29  C   UNL     1      45.177   2.196   9.509  0.00  0.00    +0.000 A 
ENDBRANCH  21  23
ENDBRANCH  18  21
ENDBRANCH   1  19
TORSDOF 5
ENDMDL
MODEL 2
REMARK VINA RESULT:    -7.379      5.159      8.907
REMARK INTER + INTRA:         -10.439
REMARK INTER:                  -9.463
REMARK INTRA:                  -0.976
REMARK UNBOUND:                -0.904
REMARK  Name = 
REMARK  7 active torsions:
REMARK  status: ('A' for Active; 'I' for Inactive)
REMARK    1  A    between atoms: C_1  and  C_2
REMARK    2  A    between atoms: C_2  and  C_3
REMARK    3  A    between atoms: C_2  and  C_4
REMARK    4  A    between atoms: C_2  and  C_21
REMARK    5  A    between atoms: C_5  and  C_6
REMARK    6  A    between atoms: C_8  and  C_9
REMARK    7  A    between atoms: C_12  and  C_13
REMARK                            x       y       z     vdW  Elec       q    Type
REMARK                         _______ _______ _______ _____ _____    ______ ____
ROOT
ATOM      1  C   UNL     1      44.771   6.823  11.749  0.00  0.00    +0.000 A 
ATOM      2  C   UNL     1      45.410   5.939  10.882  0.00  0.00    +0.000 A 
ATOM      3  C   UNL     1      44.691   4.879  10.308  0.00  0.00    +0.000 A 
ATOM      4  C   UNL     1      43.345   4.759  10.675  0.00  0.00    +0.000 A 
ATOM      5  C   UNL     1      42.794   5.664  11.565  0.00  0.00    +0.000 A 
ATOM      6  N   UNL     1      43.475   6.691  12.102  0.00  0.00    +0.000 NA
ENDROOT
BRANCH   3   7
ATOM      7  C   UNL     1      45.317   3.939   9.348  0.00  0.00    +0.000 A 
ATOM      8  C   UNL     1      46.077   4.404   8.259  0.00  0.00    +0.000 A 
ATOM      9  C   UNL     1      46.691   3.521   7.365  0.00  0.00    +0.000 A 
ATOM     10  C   UNL     1      46.556   2.141   7.531  0.00  0.00    +0.000 A 
ATOM     11  C   UNL     1      45.788   1.653   8.589  0.00  0.00    +0.000 A 
ATOM     12  C   UNL     1      45.183   2.543   9.487  0.00  0.00    +0.000 A 
BRANCH  10  13
ATOM     13  C   UNL     1      47.215   1.245   6.547  0.00  0.00    +0.000 C 
ATOM     14  N   UNL     1      48.153   1.795   5.719  0.00  0.00    +0.000 N 
ATOM     15  O   UNL     1      46.903   0.063   6.446  0.00  0.00    +0.000 OA
ATOM     16  H   UNL     1      48.285   2.790   5.618  0.00  0.00    +0.000 HD
ATOM     17  H   UNL     1      48.517   1.193   4.992  0.00  0.00    +0.000 HD
ENDBRANCH  10  13
ENDBRANCH   3   7
BRANCH   1  19
ATOM     18  C   UNL     1      46.794   8.233  12.028  0.00  0.00    +0.000 C 
ATOM     19  C   UNL     1      45.509   7.957  12.318  0.00  0.00    +0.000 C 
BRANCH  18  21
ATOM     20  C   UNL     1      46.741  10.677  12.350  0.00  0.00    +0.000 C 
ATOM     21  C   UNL     1      47.604   9.412  12.555  0.00  0.00    +0.000 C 
ATOM     22  C   UNL     1      47.789   9.236  14.082  0.00  0.00    +0.000 C 
BRANCH  21  23
ATOM     23  C   UNL     1      49.001   9.494  11.901  0.00  0.00    +0.000 A 
ATOM     24  C   UNL     1      49.876   8.395  11.840  0.00  0.00    +0.000 A 
ATOM     25  C   UNL     1      51.131   8.507  11.234  0.00  0.00    +0.000 A 
ATOM     26  C   UNL     1      51.529   9.721  10.692  0.00  0.00    +0.000 A 
ATOM     27  F   UNL     1      52.730   9.820  10.106  0.00  0.00    +0.000 F 
ATOM     28  C   UNL     1      50.702  10.831  10.751  0.00  0.00    +0.000 A 
ATOM     29  C   UNL     1      49.446  10.718  11.352  0.00  0.00    +0.000 A 
ENDBRANCH  21  23
ENDBRANCH  18  21
ENDBRANCH   1  19
TORSDOF 5
ENDMDL
MODEL 3
REMARK VINA RESULT:    -7.155      2.689      4.625
REMARK INTER + INTRA:         -10.150
REMARK INTER:                  -9.111
REMARK INTRA:                  -1.039
REMARK UNBOUND:                -0.904
REMARK  Name = 
REMARK  7 active torsions:
REMARK  status: ('A' for Active; 'I' for Inactive)
REMARK    1  A    between atoms: C_1  and  C_2
REMARK    2  A    between atoms: C_2  and  C_3
REMARK    3  A    between atoms: C_2  and  C_4
REMARK    4  A    between atoms: C_2  and  C_21
REMARK    5  A    between atoms: C_5  and  C_6
REMARK    6  A    between atoms: C_8  and  C_9
REMARK    7  A    between atoms: C_12  and  C_13
REMARK                            x       y       z     vdW  Elec       q    Type
REMARK                         _______ _______ _______ _____ _____    ______ ____
ROOT
ATOM      1  C   UNL     1      46.668   4.705  14.027  0.00  0.00    +0.000 A 
ATOM      2  C   UNL     1      47.414   5.803  13.605  0.00  0.00    +0.000 A 
ATOM      3  C   UNL     1      48.353   6.386  14.470  0.00  0.00    +0.000 A 
ATOM      4  C   UNL     1      48.464   5.825  15.749  0.00  0.00    +0.000 A 
ATOM      5  C   UNL     1      47.665   4.750  16.098  0.00  0.00    +0.000 A 
ATOM      6  N   UNL     1      46.778   4.179  15.265  0.00  0.00    +0.000 NA
ENDROOT
BRANCH   3   7
ATOM      7  C   UNL     1      49.199   7.528  14.052  0.00  0.00    +0.000 A 
ATOM      8  C   UNL     1      49.084   8.091  12.767  0.00  0.00    +0.000 A 
ATOM      9  C   UNL     1      49.862   9.186  12.376  0.00  0.00    +0.000 A 
ATOM     10  C   UNL     1      50.785   9.748  13.260  0.00  0.00    +0.000 A 
ATOM     11  C   UNL     1      50.935   9.195  14.533  0.00  0.00    +0.000 A 
ATOM     12  C   UNL     1      50.147   8.103  14.922  0.00  0.00    +0.000 A 
BRANCH  10  13
ATOM     13  C   UNL     1      51.597  10.900  12.794  0.00  0.00    +0.000 C 
ATOM     14  N   UNL     1      51.299  11.430  11.570  0.00  0.00    +0.000 N 
ATOM     15  O   UNL     1      52.530  11.339  13.457  0.00  0.00    +0.000 OA
ATOM     16  H   UNL     1      50.694  10.975  10.903  0.00  0.00    +0.000 HD
ATOM     17  H   UNL     1      51.925  12.147  11.227  0.00  0.00    +0.000 HD
ENDBRANCH  10  13
ENDBRANCH   3   7
BRANCH   1  19
ATOM     18  C   UNL     1      45.213   4.672  12.018  0.00  0.00    +0.000 C 
ATOM     19  C   UNL     1      45.715   4.067  13.110  0.00  0.00    +0.000 C 
BRANCH  18  21
ATOM     20  C   UNL     1      43.484   2.933  11.746  0.00  0.00    +0.000 C 
ATOM     21  C   UNL     1      44.250   4.054  11.008  0.00  0.00    +0.000 C 
ATOM     22  C   UNL     1      43.206   5.124  10.609  0.00  0.00    +0.000 C 
BRANCH  21  23
ATOM     23  C   UNL     1      44.977   3.580   9.731  0.00  0.00    +0.000 A 
ATOM     24  C   UNL     1      45.491   4.473   8.774  0.00  0.00    +0.000 A 
ATOM     25  C   UNL     1      46.147   4.006   7.631  0.00  0.00    +0.000 A 
ATOM     26  C   UNL     1      46.289   2.641   7.428  0.00  0.00    +0.000 A 
ATOM     27  F   UNL     1      46.925   2.199   6.335  0.00  0.00    +0.000 F 
ATOM     28  C   UNL     1      45.777   1.730   8.339  0.00  0.00    +0.000 A 
ATOM     29  C   UNL     1      45.126   2.197   9.482  0.00  0.00    +0.000 A 
ENDBRANCH  21  23
ENDBRANCH  18  21
ENDBRANCH   1  19
TORSDOF 5
ENDMDL
MODEL 4
REMARK VINA RESULT:    -7.041      4.213      8.731
REMARK INTER + INTRA:         -10.003
REMARK INTER:                  -8.966
REMARK INTRA:                  -1.037
REMARK UNBOUND:                -0.904
REMARK  Name = 
REMARK  7 active torsions:
REMARK  status: ('A' for Active; 'I' for Inactive)
REMARK    1  A    between atoms: C_1  and  C_2
REMARK    2  A    between atoms: C_2  and  C_3
REMARK    3  A    between atoms: C_2  and  C_4
REMARK    4  A    between atoms: C_2  and  C_21
REMARK    5  A    between atoms: C_5  and  C_6
REMARK    6  A    between atoms: C_8  and  C_9
REMARK    7  A    between atoms: C_12  and  C_13
REMARK                            x       y       z     vdW  Elec       q    Type
REMARK                         _______ _______ _______ _____ _____    ______ ____
ROOT
ATOM      1  C   UNL     1      49.679   7.160  15.116  0.00  0.00    +0.000 A 
ATOM      2  C   UNL     1      48.638   6.475  14.493  0.00  0.00    +0.000 A 
ATOM      3  C   UNL     1      48.143   6.925  13.259  0.00  0.00    +0.000 A 
ATOM      4  C   UNL     1      48.727   8.084  12.731  0.00  0.00    +0.000 A 
ATOM      5  C   UNL     1      49.739   8.720  13.429  0.00  0.00    +0.000 A 
ATOM      6  N   UNL     1      50.227   8.281  14.601  0.00  0.00    +0.000 NA
ENDROOT
BRANCH   3   7
ATOM      7  C   UNL     1      47.067   6.207  12.538  0.00  0.00    +0.000 A 
ATOM      8  C   UNL     1      46.657   6.604  11.251  0.00  0.00    +0.000 A 
ATOM      9  C   UNL     1      45.659   5.914  10.555  0.00  0.00    +0.000 A 
ATOM     10  C   UNL     1      45.035   4.806  11.130  0.00  0.00    +0.000 A 
ATOM     11  C   UNL     1      45.406   4.404  12.415  0.00  0.00    +0.000 A 
ATOM     12  C   UNL     1      46.413   5.094  13.103  0.00  0.00    +0.000 A 
BRANCH  10  13
ATOM     13  C   UNL     1      43.972   4.115  10.358  0.00  0.00    +0.000 C 
ATOM     14  N   UNL     1      43.919   4.343   9.012  0.00  0.00    +0.000 N 
ATOM     15  O   UNL     1      43.142   3.398  10.907  0.00  0.00    +0.000 OA
ATOM     16  H   UNL     1      44.434   5.080   8.555  0.00  0.00    +0.000 HD
ATOM     17  H   UNL     1      43.130   3.943   8.520  0.00  0.00    +0.000 HD
ENDBRANCH  10  13
ENDBRANCH   3   7
BRANCH   1  19
ATOM     18  C   UNL     1      49.725   5.614  17.056  0.00  0.00    +0.000 C 
ATOM     19  C   UNL     1      50.227   6.668  16.386  0.00  0.00    +0.000 C 
BRANCH  18  21
ATOM     20  C   UNL     1      51.069   6.155  19.051  0.00  0.00    +0.000 C 
ATOM     21  C   UNL     1      50.268   5.031  18.357  0.00  0.00    +0.000 C 
ATOM     22  C   UNL     1      49.072   4.695  19.280  0.00  0.00    +0.000 C 
BRANCH  21  23
ATOM     23  C   UNL     1      51.079   3.739  18.119  0.00  0.00    +0.000 A 
ATOM     24  C   UNL     1      50.542   2.615  17.464  0.00  0.00    +0.000 A 
ATOM     25  C   UNL     1      51.310   1.465  17.262  0.00  0.00    +0.000 A 
ATOM     26  C   UNL     1      52.619   1.420  17.721  0.00  0.00    +0.000 A 
ATOM     27  F   UNL     1      53.352   0.317  17.519  0.00  0.00    +0.000 F 
ATOM     28  C   UNL     1      53.175   2.500  18.388  0.00  0.00    +0.000 A 
ATOM     29  C   UNL     1      52.410   3.651  18.586  0.00  0.00    +0.000 A 
ENDBRANCH  21  23
ENDBRANCH  18  21
ENDBRANCH   1  19
TORSDOF 5
ENDMDL
MODEL 5
REMARK VINA RESULT:    -6.895      4.285      5.990
REMARK INTER + INTRA:          -9.814
REMARK INTER:                  -8.874
REMARK INTRA:                  -0.940
REMARK UNBOUND:                -0.904
REMARK  Name = 
REMARK  7 active torsions:
REMARK  status: ('A' for Active; 'I' for Inactive)
REMARK    1  A    between atoms: C_1  and  C_2
REMARK    2  A    between atoms: C_2  and  C_3
REMARK    3  A    between atoms: C_2  and  C_4
REMARK    4  A    between atoms: C_2  and  C_21
REMARK    5  A    between atoms: C_5  and  C_6
REMARK    6  A    between atoms: C_8  and  C_9
REMARK    7  A    between atoms: C_12  and  C_13
REMARK                            x       y       z     vdW  Elec       q    Type
REMARK                         _______ _______ _______ _____ _____    ______ ____
ROOT
ATOM      1  C   UNL     1      47.058   7.228  12.379  0.00  0.00    +0.000 A 
ATOM      2  C   UNL     1      48.271   7.396  11.716  0.00  0.00    +0.000 A 
ATOM      3  C   UNL     1      49.050   8.537  11.961  0.00  0.00    +0.000 A 
ATOM      4  C   UNL     1      48.530   9.473  12.863  0.00  0.00    +0.000 A 
ATOM      5  C   UNL     1      47.303   9.243  13.459  0.00  0.00    +0.000 A 
ATOM      6  N   UNL     1      46.563   8.142  13.240  0.00  0.00    +0.000 NA
ENDROOT
BRANCH   3   7
ATOM      7  C   UNL     1      50.367   8.741  11.311  0.00  0.00    +0.000 A 
ATOM      8  C   UNL     1      51.147   7.650  10.883  0.00  0.00    +0.000 A 
ATOM      9  C   UNL     1      52.378   7.836  10.246  0.00  0.00    +0.000 A 
ATOM     10  C   UNL     1      52.870   9.123  10.024  0.00  0.00    +0.000 A 
ATOM     11  C   UNL     1      52.128  10.223  10.458  0.00  0.00    +0.000 A 
ATOM     12  C   UNL     1      50.890  10.029  11.088  0.00  0.00    +0.000 A 
BRANCH  10  13
ATOM     13  C   UNL     1      54.188   9.269   9.357  0.00  0.00    +0.000 C 
ATOM     14  N   UNL     1      54.204   9.788   8.093  0.00  0.00    +0.000 N 
ATOM     15  O   UNL     1      55.226   8.899   9.897  0.00  0.00    +0.000 OA
ATOM     16  H   UNL     1      53.373   9.903   7.533  0.00  0.00    +0.000 HD
ATOM     17  H   UNL     1      55.098   9.787   7.619  0.00  0.00    +0.000 HD
ENDBRANCH  10  13
ENDBRANCH   3   7
BRANCH   1  19
ATOM     18  C   UNL     1      45.702   5.697  10.974  0.00  0.00    +0.000 C 
ATOM     19  C   UNL     1      46.260   6.016  12.156  0.00  0.00    +0.000 C 
BRANCH  18  21
ATOM     20  C   UNL     1      44.894   3.583  11.954  0.00  0.00    +0.000 C 
ATOM     21  C   UNL     1      44.895   4.439  10.668  0.00  0.00    +0.000 C 
ATOM     22  C   UNL     1      43.427   4.852  10.402  0.00  0.00    +0.000 C 
BRANCH  21  23
ATOM     23  C   UNL     1      45.427   3.697   9.422  0.00  0.00    +0.000 A 
ATOM     24  C   UNL     1      45.921   4.372   8.291  0.00  0.00    +0.000 A 
ATOM     25  C   UNL     1      46.400   3.665   7.183  0.00  0.00    +0.000 A 
ATOM     26  C   UNL     1      46.381   2.278   7.190  0.00  0.00    +0.000 A 
ATOM     27  F   UNL     1      46.848   1.606   6.129  0.00  0.00    +0.000 F 
ATOM     28  C   UNL     1      45.883   1.580   8.279  0.00  0.00    +0.000 A 
ATOM     29  C   UNL     1      45.410   2.285   9.387  0.00  0.00    +0.000 A 
ENDBRANCH  21  23
ENDBRANCH  18  21
ENDBRANCH   1  19
TORSDOF 5
ENDMDL
MODEL 6
REMARK VINA RESULT:    -6.888      2.799      3.998
REMARK INTER + INTRA:          -9.805
REMARK INTER:                  -8.910
REMARK INTRA:                  -0.895
REMARK UNBOUND:                -0.904
REMARK  Name = 
REMARK  7 active torsions:
REMARK  status: ('A' for Active; 'I' for Inactive)
REMARK    1  A    between atoms: C_1  and  C_2
REMARK    2  A    between atoms: C_2  and  C_3
REMARK    3  A    between atoms: C_2  and  C_4
REMARK    4  A    between atoms: C_2  and  C_21
REMARK    5  A    between atoms: C_5  and  C_6
REMARK    6  A    between atoms: C_8  and  C_9
REMARK    7  A    between atoms: C_12  and  C_13
REMARK                            x       y       z     vdW  Elec       q    Type
REMARK                         _______ _______ _______ _____ _____    ______ ____
ROOT
ATOM      1  C   UNL     1      46.555   5.123  13.862  0.00  0.00    +0.000 A 
ATOM      2  C   UNL     1      47.415   6.215  13.952  0.00  0.00    +0.000 A 
ATOM      3  C   UNL     1      48.316   6.309  15.025  0.00  0.00    +0.000 A 
ATOM      4  C   UNL     1      48.272   5.282  15.976  0.00  0.00    +0.000 A 
ATOM      5  C   UNL     1      47.367   4.247  15.826  0.00  0.00    +0.000 A 
ATOM      6  N   UNL     1      46.516   4.144  14.790  0.00  0.00    +0.000 NA
ENDROOT
BRANCH   3   7
ATOM      7  C   UNL     1      49.279   7.430  15.142  0.00  0.00    +0.000 A 
ATOM      8  C   UNL     1      50.630   7.202  15.464  0.00  0.00    +0.000 A 
ATOM      9  C   UNL     1      51.549   8.253  15.551  0.00  0.00    +0.000 A 
ATOM     10  C   UNL     1      51.140   9.568  15.324  0.00  0.00    +0.000 A 
ATOM     11  C   UNL     1      49.801   9.825  15.025  0.00  0.00    +0.000 A 
ATOM     12  C   UNL     1      48.887   8.766  14.931  0.00  0.00    +0.000 A 
BRANCH  10  13
ATOM     13  C   UNL     1      52.150  10.650  15.442  0.00  0.00    +0.000 C 
ATOM     14  N   UNL     1      52.225  11.318  16.631  0.00  0.00    +0.000 N 
ATOM     15  O   UNL     1      52.864  10.968  14.497  0.00  0.00    +0.000 OA
ATOM     16  H   UNL     1      51.525  11.242  17.353  0.00  0.00    +0.000 HD
ATOM     17  H   UNL     1      52.848  12.115  16.659  0.00  0.00    +0.000 HD
ENDBRANCH  10  13
ENDBRANCH   3   7
BRANCH   1  19
ATOM     18  C   UNL     1      45.290   3.823  12.169  0.00  0.00    +0.000 C 
ATOM     19  C   UNL     1      45.641   5.000  12.719  0.00  0.00    +0.000 C 
BRANCH  18  21
ATOM     20  C   UNL     1      43.345   2.501  11.425  0.00  0.00    +0.000 C 
ATOM     21  C   UNL     1      44.320   3.625  11.008  0.00  0.00    +0.000 C 
ATOM     22  C   UNL     1      43.478   4.914  10.848  0.00  0.00    +0.000 C 
BRANCH  21  23
ATOM     23  C   UNL     1      45.056   3.353   9.678  0.00  0.00    +0.000 A 
ATOM     24  C   UNL     1      45.338   2.054   9.218  0.00  0.00    +0.000 A 
ATOM     25  C   UNL     1      46.002   1.849   8.005  0.00  0.00    +0.000 A 
ATOM     26  C   UNL     1      46.401   2.938   7.243  0.00  0.00    +0.000 A 
ATOM     27  F   UNL     1      47.030   2.734   6.079  0.00  0.00    +0.000 F 
ATOM     28  C   UNL     1      46.158   4.233   7.675  0.00  0.00    +0.000 A 
ATOM     29  C   UNL     1      45.491   4.438   8.884  0.00  0.00    +0.000 A 
ENDBRANCH  21  23
ENDBRANCH  18  21
ENDBRANCH   1  19
TORSDOF 5
ENDMDL
MODEL 7
REMARK VINA RESULT:    -6.768      2.269      3.035
REMARK INTER + INTRA:          -9.651
REMARK INTER:                  -8.682
REMARK INTRA:                  -0.968
REMARK UNBOUND:                -0.904
REMARK  Name = 
REMARK  7 active torsions:
REMARK  status: ('A' for Active; 'I' for Inactive)
REMARK    1  A    between atoms: C_1  and  C_2
REMARK    2  A    between atoms: C_2  and  C_3
REMARK    3  A    between atoms: C_2  and  C_4
REMARK    4  A    between atoms: C_2  and  C_21
REMARK    5  A    between atoms: C_5  and  C_6
REMARK    6  A    between atoms: C_8  and  C_9
REMARK    7  A    between atoms: C_12  and  C_13
REMARK                            x       y       z     vdW  Elec       q    Type
REMARK                         _______ _______ _______ _____ _____    ______ ____
ROOT
ATOM      1  C   UNL     1      47.126   4.587  14.436  0.00  0.00    +0.000 A 
ATOM      2  C   UNL     1      47.554   5.545  15.352  0.00  0.00    +0.000 A 
ATOM      3  C   UNL     1      48.219   5.146  16.522  0.00  0.00    +0.000 A 
ATOM      4  C   UNL     1      48.391   3.769  16.710  0.00  0.00    +0.000 A 
ATOM      5  C   UNL     1      47.911   2.882  15.763  0.00  0.00    +0.000 A 
ATOM      6  N   UNL     1      47.290   3.262  14.633  0.00  0.00    +0.000 NA
ENDROOT
BRANCH   3   7
ATOM      7  C   UNL     1      48.730   6.129  17.506  0.00  0.00    +0.000 A 
ATOM      8  C   UNL     1      49.031   5.752  18.828  0.00  0.00    +0.000 A 
ATOM      9  C   UNL     1      49.538   6.670  19.754  0.00  0.00    +0.000 A 
ATOM     10  C   UNL     1      49.753   7.999  19.384  0.00  0.00    +0.000 A 
ATOM     11  C   UNL     1      49.442   8.406  18.086  0.00  0.00    +0.000 A 
ATOM     12  C   UNL     1      48.943   7.478  17.160  0.00  0.00    +0.000 A 
BRANCH  10  13
ATOM     13  C   UNL     1      50.280   8.938  20.406  0.00  0.00    +0.000 C 
ATOM     14  N   UNL     1      51.368   8.541  21.130  0.00  0.00    +0.000 N 
ATOM     15  O   UNL     1      49.737  10.016  20.628  0.00  0.00    +0.000 OA
ATOM     16  H   UNL     1      51.712   7.592  21.136  0.00  0.00    +0.000 HD
ATOM     17  H   UNL     1      51.650   9.150  21.887  0.00  0.00    +0.000 HD
ENDBRANCH  10  13
ENDBRANCH   3   7
BRANCH   1  19
ATOM     18  C   UNL     1      45.220   4.631  12.848  0.00  0.00    +0.000 C 
ATOM     19  C   UNL     1      46.467   5.003  13.191  0.00  0.00    +0.000 C 
BRANCH  18  21
ATOM     20  C   UNL     1      42.961   4.882  11.890  0.00  0.00    +0.000 C 
ATOM     21  C   UNL     1      44.467   5.056  11.591  0.00  0.00    +0.000 C 
ATOM     22  C   UNL     1      44.708   6.569  11.363  0.00  0.00    +0.000 C 
BRANCH  21  23
ATOM     23  C   UNL     1      44.950   4.291  10.339  0.00  0.00    +0.000 A 
ATOM     24  C   UNL     1      45.572   4.930   9.252  0.00  0.00    +0.000 A 
ATOM     25  C   UNL     1      46.001   4.202   8.138  0.00  0.00    +0.000 A 
ATOM     26  C   UNL     1      45.804   2.830   8.094  0.00  0.00    +0.000 A 
ATOM     27  F   UNL     1      46.224   2.137   7.027  0.00  0.00    +0.000 F 
ATOM     28  C   UNL     1      45.176   2.168   9.138  0.00  0.00    +0.000 A 
ATOM     29  C   UNL     1      44.752   2.894  10.252  0.00  0.00    +0.000 A 
ENDBRANCH  21  23
ENDBRANCH  18  21
ENDBRANCH   1  19
TORSDOF 5
ENDMDL
MODEL 8
REMARK VINA RESULT:    -6.754      4.967      7.697
REMARK INTER + INTRA:          -9.631
REMARK INTER:                  -8.702
REMARK INTRA:                  -0.929
REMARK UNBOUND:                -0.904
REMARK  Name = 
REMARK  7 active torsions:
REMARK  status: ('A' for Active; 'I' for Inactive)
REMARK    1  A    between atoms: C_1  and  C_2
REMARK    2  A    between atoms: C_2  and  C_3
REMARK    3  A    between atoms: C_2  and  C_4
REMARK    4  A    between atoms: C_2  and  C_21
REMARK    5  A    between atoms: C_5  and  C_6
REMARK    6  A    between atoms: C_8  and  C_9
REMARK    7  A    between atoms: C_12  and  C_13
REMARK                            x       y       z     vdW  Elec       q    Type
REMARK                         _______ _______ _______ _____ _____    ______ ____
ROOT
ATOM      1  C   UNL     1      49.421   8.679  12.096  0.00  0.00    +0.000 A 
ATOM      2  C   UNL     1      48.649   7.576  11.742  0.00  0.00    +0.000 A 
ATOM      3  C   UNL     1      47.439   7.325  12.408  0.00  0.00    +0.000 A 
ATOM      4  C   UNL     1      47.089   8.213  13.434  0.00  0.00    +0.000 A 
ATOM      5  C   UNL     1      47.927   9.270  13.741  0.00  0.00    +0.000 A 
ATOM      6  N   UNL     1      49.077   9.523  13.092  0.00  0.00    +0.000 NA
ENDROOT
BRANCH   3   7
ATOM      7  C   UNL     1      46.563   6.188  12.040  0.00  0.00    +0.000 A 
ATOM      8  C   UNL     1      45.985   6.095  10.760  0.00  0.00    +0.000 A 
ATOM      9  C   UNL     1      45.179   5.011  10.398  0.00  0.00    +0.000 A 
ATOM     10  C   UNL     1      44.920   3.988  11.311  0.00  0.00    +0.000 A 
ATOM     11  C   UNL     1      45.462   4.066  12.595  0.00  0.00    +0.000 A 
ATOM     12  C   UNL     1      46.277   5.150  12.949  0.00  0.00    +0.000 A 
BRANCH  10  13
ATOM     13  C   UNL     1      44.047   2.866  10.885  0.00  0.00    +0.000 C 
ATOM     14  N   UNL     1      44.479   2.085   9.850  0.00  0.00    +0.000 N 
ATOM     15  O   UNL     1      42.956   2.666  11.408  0.00  0.00    +0.000 OA
ATOM     16  H   UNL     1      45.254   2.337   9.254  0.00  0.00    +0.000 HD
ATOM     17  H   UNL     1      43.828   1.390   9.509  0.00  0.00    +0.000 HD
ENDBRANCH  10  13
ENDBRANCH   3   7
BRANCH   1  19
ATOM     18  C   UNL     1      51.567   8.027  11.034  0.00  0.00    +0.000 C 
ATOM     19  C   UNL     1      50.666   8.968  11.373  0.00  0.00    +0.000 C 
BRANCH  18  21
ATOM     20  C   UNL     1      52.721   9.624   9.551  0.00  0.00    +0.000 C 
ATOM     21  C   UNL     1      52.857   8.255  10.254  0.00  0.00    +0.000 C 
ATOM     22  C   UNL     1      54.024   8.382  11.263  0.00  0.00    +0.000 C 
BRANCH  21  23
ATOM     23  C   UNL     1      53.168   7.086   9.293  0.00  0.00    +0.000 A 
ATOM     24  C   UNL     1      54.116   6.090   9.591  0.00  0.00    +0.000 A 
ATOM     25  C   UNL     1      54.366   5.044   8.698  0.00  0.00    +0.000 A 
ATOM     26  C   UNL     1      53.679   4.987   7.493  0.00  0.00    +0.000 A 
ATOM     27  F   UNL     1      53.918   3.978   6.645  0.00  0.00    +0.000 F 
ATOM     28  C   UNL     1      52.752   5.961   7.157  0.00  0.00    +0.000 A 
ATOM     29  C   UNL     1      52.499   7.004   8.051  0.00  0.00    +0.000 A 
ENDBRANCH  21  23
ENDBRANCH  18  21
ENDBRANCH   1  19
TORSDOF 5
ENDMDL
MODEL 9
REMARK VINA RESULT:    -6.685      3.354      5.182
REMARK INTER + INTRA:          -9.543
REMARK INTER:                  -8.586
REMARK INTRA:                  -0.957
REMARK UNBOUND:                -0.904
REMARK  Name = 
REMARK  7 active torsions:
REMARK  status: ('A' for Active; 'I' for Inactive)
REMARK    1  A    between atoms: C_1  and  C_2
REMARK    2  A    between atoms: C_2  and  C_3
REMARK    3  A    between atoms: C_2  and  C_4
REMARK    4  A    between atoms: C_2  and  C_21
REMARK    5  A    between atoms: C_5  and  C_6
REMARK    6  A    between atoms: C_8  and  C_9
REMARK    7  A    between atoms: C_12  and  C_13
REMARK                            x       y       z     vdW  Elec       q    Type
REMARK                         _______ _______ _______ _____ _____    ______ ____
ROOT
ATOM      1  C   UNL     1      49.026   6.802  16.675  0.00  0.00    +0.000 A 
ATOM      2  C   UNL     1      49.792   5.640  16.631  0.00  0.00    +0.000 A 
ATOM      3  C   UNL     1      50.321   5.105  17.816  0.00  0.00    +0.000 A 
ATOM      4  C   UNL     1      50.057   5.810  18.998  0.00  0.00    +0.000 A 
ATOM      5  C   UNL     1      49.309   6.973  18.950  0.00  0.00    +0.000 A 
ATOM      6  N   UNL     1      48.786   7.477  17.819  0.00  0.00    +0.000 NA
ENDROOT
BRANCH   3   7
ATOM      7  C   UNL     1      51.107   3.849  17.826  0.00  0.00    +0.000 A 
ATOM      8  C   UNL     1      50.538   2.627  17.419  0.00  0.00    +0.000 A 
ATOM      9  C   UNL     1      51.283   1.443  17.401  0.00  0.00    +0.000 A 
ATOM     10  C   UNL     1      52.621   1.445  17.798  0.00  0.00    +0.000 A 
ATOM     11  C   UNL     1      53.204   2.638  18.229  0.00  0.00    +0.000 A 
ATOM     12  C   UNL     1      52.455   3.823  18.235  0.00  0.00    +0.000 A 
BRANCH  10  13
ATOM     13  C   UNL     1      53.365   0.161  17.775  0.00  0.00    +0.000 C 
ATOM     14  N   UNL     1      53.855  -0.266  16.573  0.00  0.00    +0.000 N 
ATOM     15  O   UNL     1      53.503  -0.520  18.786  0.00  0.00    +0.000 OA
ATOM     16  H   UNL     1      53.585   0.143  15.691  0.00  0.00    +0.000 HD
ATOM     17  H   UNL     1      54.271  -1.188  16.560  0.00  0.00    +0.000 HD
ENDBRANCH  10  13
ENDBRANCH   3   7
BRANCH   1  19
ATOM     18  C   UNL     1      48.234   6.609  14.331  0.00  0.00    +0.000 C 
ATOM     19  C   UNL     1      48.436   7.341  15.443  0.00  0.00    +0.000 C 
BRANCH  18  21
ATOM     20  C   UNL     1      46.915   8.449  13.351  0.00  0.00    +0.000 C 
ATOM     21  C   UNL     1      47.595   7.098  13.035  0.00  0.00    +0.000 C 
ATOM     22  C   UNL     1      48.722   7.390  12.013  0.00  0.00    +0.000 C 
BRANCH  21  23
ATOM     23  C   UNL     1      46.644   6.045  12.425  0.00  0.00    +0.000 A 
ATOM     24  C   UNL     1      46.258   4.881  13.115  0.00  0.00    +0.000 A 
ATOM     25  C   UNL     1      45.390   3.954  12.532  0.00  0.00    +0.000 A 
ATOM     26  C   UNL     1      44.906   4.173  11.250  0.00  0.00    +0.000 A 
ATOM     27  F   UNL     1      44.069   3.284  10.699  0.00  0.00    +0.000 F 
ATOM     28  C   UNL     1      45.281   5.298  10.532  0.00  0.00    +0.000 A 
ATOM     29  C   UNL     1      46.144   6.227  11.116  0.00  0.00    +0.000 A 
ENDBRANCH  21  23
ENDBRANCH  18  21
ENDBRANCH   1  19
TORSDOF 5
ENDMDL
