MODEL 1
REMARK VINA RESULT:    -7.414      0.000      0.000
REMARK INTER + INTRA:         -10.019
REMARK INTER:                  -9.364
REMARK INTRA:                  -0.654
REMARK UNBOUND:                -0.654
REMARK  Name = 
REMARK  5 active torsions:
REMARK  status: ('A' for Active; 'I' for Inactive)
REMARK    1  A    between atoms: N_1  and  C_2
REMARK    2  A    between atoms: C_2  and  C_3
REMARK    3  A    between atoms: C_6  and  C_7
REMARK    4  A    between atoms: C_7  and  N_8
REMARK    5  A    between atoms: C_13  and  C_14
REMARK                            x       y       z     vdW  Elec       q    Type
REMARK                         _______ _______ _______ _____ _____    ______ ____
ROOT
ATOM      1  N   UNL     1      44.397   4.668  10.462  0.00  0.00    +0.000 N 
ATOM      2  C   UNL     1      43.692   3.637  11.038  0.00  0.00    +0.000 A 
ATOM      3  C   UNL     1      44.082   2.465  10.436  0.00  0.00    +0.000 A 
ATOM      4  C   UNL     1      44.998   2.796   9.403  0.00  0.00    +0.000 A 
ATOM      5  C   UNL     1      45.696   2.024   8.453  0.00  0.00    +0.000 A 
ATOM      6  C   UNL     1      46.517   2.667   7.514  0.00  0.00    +0.000 A 
ATOM      7  C   UNL     1      46.679   4.054   7.553  0.00  0.00    +0.000 A 
ATOM      8  C   UNL     1      46.012   4.836   8.505  0.00  0.00    +0.000 A 
ATOM      9  C   UNL     1      45.170   4.185   9.422  0.00  0.00    +0.000 A 
ENDROOT
BRANCH   6  10
ATOM     10  C   UNL     1      47.237   1.901   6.463  0.00  0.00    +0.000 C 
ATOM     11  N   UNL     1      47.965   2.617   5.553  0.00  0.00    +0.000 N 
ATOM     12  O   UNL     1      47.223   0.677   6.431  0.00  0.00    +0.000 OA
ATOM     13  H   UNL     1      48.206   3.586   5.696  0.00  0.00    +0.000 HD
ATOM     14  H   UNL     1      48.543   2.078   4.921  0.00  0.00    +0.000 HD
ENDBRANCH   6  10
BRANCH   1  15
ATOM     15  C   UNL     1      44.341   6.048  10.933  0.00  0.00    +0.000 C 
BRANCH  15  19
ATOM     16  C   UNL     1      47.405   7.962  12.386  0.00  0.00    +0.000 C 
ATOM     17  C   UNL     1      47.435   6.511  11.875  0.00  0.00    +0.000 C 
ATOM     18  C   UNL     1      46.342   5.640  12.495  0.00  0.00    +0.000 C 
ATOM     19  C   UNL     1      44.928   6.231  12.352  0.00  0.00    +0.000 C 
ATOM     20  C   UNL     1      44.896   7.704  12.790  0.00  0.00    +0.000 C 
ATOM     21  C   UNL     1      46.002   8.551  12.165  0.00  0.00    +0.000 C 
BRANCH  16  22
ATOM     22  C   UNL     1      47.906   8.037  13.844  0.00  0.00    +0.000 C 
BRANCH  22  23
ATOM     23  N   UNL     1      47.286   9.124  14.596  0.00  0.00    +0.000 NA
ATOM     24  H   UNL     1      47.486   9.002  15.589  0.00  0.00    +0.000 HD
ATOM     25  H   UNL     1      46.273   9.064  14.510  0.00  0.00    +0.000 HD
ENDBRANCH  22  23
ENDBRANCH  16  22
ENDBRANCH  15  19
ENDBRANCH   1  15
TORSDOF 5
ENDMDL
MODEL 2
REMARK VINA RESULT:    -6.822      2.584      6.880
REMARK INTER + INTRA:          -9.271
REMARK INTER:                  -8.547
REMARK INTRA:                  -0.725
REMARK UNBOUND:                -0.654
REMARK  Name = 
REMARK  5 active torsions:
REMARK  status: ('A' for Active; 'I' for Inactive)
REMARK    1  A    between atoms: N_1  and  C_2
REMARK    2  A    between atoms: C_2  and  C_3
REMARK    3  A    between atoms: C_6  and  C_7
REMARK    4  A    between atoms: C_7  and  N_8
REMARK    5  A    between atoms: C_13  and  C_14
REMARK                            x       y       z     vdW  Elec       q    Type
REMARK                         _______ _______ _______ _____ _____    ______ ____
ROOT
ATOM      1  N   UNL     1      44.304   4.246  10.977  0.00  0.00    +0.000 N 
ATOM      2  C   UNL     1      42.968   4.565  11.029  0.00  0.00    +0.000 A 
ATOM      3  C   UNL     1      42.855   5.862  11.468  0.00  0.00    +0.000 A 
ATOM      4  C   UNL     1      44.161   6.328  11.771  0.00  0.00    +0.000 A 
ATOM      5  C   UNL     1      44.654   7.549  12.274  0.00  0.00    +0.000 A 
ATOM      6  C   UNL     1      46.030   7.690  12.509  0.00  0.00    +0.000 A 
ATOM      7  C   UNL     1      46.908   6.647  12.202  0.00  0.00    +0.000 A 
ATOM      8  C   UNL     1      46.439   5.435  11.679  0.00  0.00    +0.000 A 
ATOM      9  C   UNL     1      45.056   5.294  11.474  0.00  0.00    +0.000 A 
ENDROOT
BRANCH   6  10
ATOM     10  C   UNL     1      46.593   8.941  13.082  0.00  0.00    +0.000 C 
ATOM     11  N   UNL     1      46.990   8.908  14.390  0.00  0.00    +0.000 N 
ATOM     12  O   UNL     1      46.740   9.953  12.408  0.00  0.00    +0.000 OA
ATOM     13  H   UNL     1      47.121   8.043  14.894  0.00  0.00    +0.000 HD
ATOM     14  H   UNL     1      47.479   9.727  14.729  0.00  0.00    +0.000 HD
ENDBRANCH   6  10
BRANCH   1  15
ATOM     15  C   UNL     1      44.815   2.992  10.435  0.00  0.00    +0.000 C 
BRANCH  15  19
ATOM     16  C   UNL     1      47.107   2.843   7.290  0.00  0.00    +0.000 C 
ATOM     17  C   UNL     1      46.527   4.133   7.897  0.00  0.00    +0.000 C 
ATOM     18  C   UNL     1      45.014   4.063   8.106  0.00  0.00    +0.000 C 
ATOM     19  C   UNL     1      44.560   2.837   8.917  0.00  0.00    +0.000 C 
ATOM     20  C   UNL     1      45.189   1.545   8.369  0.00  0.00    +0.000 C 
ATOM     21  C   UNL     1      46.698   1.643   8.160  0.00  0.00    +0.000 C 
BRANCH  16  22
ATOM     22  C   UNL     1      46.715   2.716   5.802  0.00  0.00    +0.000 C 
BRANCH  22  23
ATOM     23  N   UNL     1      47.875   2.609   4.923  0.00  0.00    +0.000 NA
ATOM     24  H   UNL     1      48.292   3.532   4.804  0.00  0.00    +0.000 HD
ATOM     25  H   UNL     1      47.573   2.321   3.993  0.00  0.00    +0.000 HD
ENDBRANCH  22  23
ENDBRANCH  16  22
ENDBRANCH  15  19
ENDBRANCH   1  15
TORSDOF 5
ENDMDL
MODEL 3
REMARK VINA RESULT:    -5.860      1.965      2.762
REMARK INTER + INTRA:          -8.055
REMARK INTER:                  -9.049
REMARK INTRA:                   0.993
REMARK UNBOUND:                -0.654
REMARK  Name = 
REMARK  5 active torsions:
REMARK  status: ('A' for Active; 'I' for Inactive)
REMARK    1  A    between atoms: N_1  and  C_2
REMARK    2  A    between atoms: C_2  and  C_3
REMARK    3  A    between atoms: C_6  and  C_7
REMARK    4  A    between atoms: C_7  and  N_8
REMARK    5  A    between atoms: C_13  and  C_14
REMARK                            x       y       z     vdW  Elec       q    Type
REMARK                         _______ _______ _______ _____ _____    ______ ____
ROOT
ATOM      1  N   UNL     1      44.265   4.664  10.298  0.00  0.00    +0.000 N 
ATOM      2  C   UNL     1      44.920   5.859  10.120  0.00  0.00    +0.000 A 
ATOM      3  C   UNL     1      45.873   5.683   9.146  0.00  0.00    +0.000 A 
ATOM      4  C   UNL     1      45.855   4.314   8.771  0.00  0.00    +0.000 A 
ATOM      5  C   UNL     1      46.613   3.557   7.854  0.00  0.00    +0.000 A 
ATOM      6  C   UNL     1      46.376   2.180   7.738  0.00  0.00    +0.000 A 
ATOM      7  C   UNL     1      45.367   1.572   8.489  0.00  0.00    +0.000 A 
ATOM      8  C   UNL     1      44.588   2.312   9.388  0.00  0.00    +0.000 A 
ATOM      9  C   UNL     1      44.852   3.686   9.517  0.00  0.00    +0.000 A 
ENDROOT
BRANCH   6  10
ATOM     10  C   UNL     1      47.181   1.331   6.819  0.00  0.00    +0.000 C 
ATOM     11  N   UNL     1      48.189   1.941   6.125  0.00  0.00    +0.000 N 
ATOM     12  O   UNL     1      46.987   0.127   6.714  0.00  0.00    +0.000 OA
ATOM     13  H   UNL     1      48.538   2.855   6.371  0.00  0.00    +0.000 HD
ATOM     14  H   UNL     1      48.801   1.330   5.598  0.00  0.00    +0.000 HD
ENDBRANCH   6  10
BRANCH   1  15
ATOM     15  C   UNL     1      43.101   4.502  11.163  0.00  0.00    +0.000 C 
BRANCH  15  19
ATOM     16  C   UNL     1      46.434   4.605  13.172  0.00  0.00    +0.000 C 
ATOM     17  C   UNL     1      45.843   3.347  12.513  0.00  0.00    +0.000 C 
ATOM     18  C   UNL     1      44.383   3.105  12.899  0.00  0.00    +0.000 C 
ATOM     19  C   UNL     1      43.471   4.320  12.653  0.00  0.00    +0.000 C 
ATOM     20  C   UNL     1      44.083   5.602  13.242  0.00  0.00    +0.000 C 
ATOM     21  C   UNL     1      45.543   5.816  12.850  0.00  0.00    +0.000 C 
BRANCH  16  22
ATOM     22  C   UNL     1      46.673   4.371  14.679  0.00  0.00    +0.000 C 
BRANCH  22  23
ATOM     23  N   UNL     1      47.513   3.206  14.941  0.00  0.00    +0.000 NA
ATOM     24  H   UNL     1      48.000   3.336  15.828  0.00  0.00    +0.000 HD
ATOM     25  H   UNL     1      48.244   3.146  14.232  0.00  0.00    +0.000 HD
ENDBRANCH  22  23
ENDBRANCH  16  22
ENDBRANCH  15  19
ENDBRANCH   1  15
TORSDOF 5
ENDMDL
MODEL 4
REMARK VINA RESULT:    -5.761      4.748      8.432
REMARK INTER + INTRA:          -7.931
REMARK INTER:                  -7.330
REMARK INTRA:                  -0.601
REMARK UNBOUND:                -0.654
REMARK  Name = 
REMARK  5 active torsions:
REMARK  status: ('A' for Active; 'I' for Inactive)
REMARK    1  A    between atoms: N_1  and  C_2
REMARK    2  A    between atoms: C_2  and  C_3
REMARK    3  A    between atoms: C_6  and  C_7
REMARK    4  A    between atoms: C_7  and  N_8
REMARK    5  A    between atoms: C_13  and  C_14
REMARK                            x       y       z     vdW  Elec       q    Type
REMARK                         _______ _______ _______ _____ _____    ______ ____
ROOT
ATOM      1  N   UNL     1      48.146   6.503  14.385  0.00  0.00    +0.000 N 
ATOM      2  C   UNL     1      48.640   7.779  14.516  0.00  0.00    +0.000 A 
ATOM      3  C   UNL     1      49.171   7.904  15.777  0.00  0.00    +0.000 A 
ATOM      4  C   UNL     1      48.923   6.689  16.470  0.00  0.00    +0.000 A 
ATOM      5  C   UNL     1      49.209   6.252  17.779  0.00  0.00    +0.000 A 
ATOM      6  C   UNL     1      48.788   4.977  18.185  0.00  0.00    +0.000 A 
ATOM      7  C   UNL     1      48.134   4.131  17.287  0.00  0.00    +0.000 A 
ATOM      8  C   UNL     1      47.862   4.539  15.974  0.00  0.00    +0.000 A 
ATOM      9  C   UNL     1      48.263   5.828  15.586  0.00  0.00    +0.000 A 
ENDROOT
BRANCH   6  10
ATOM     10  C   UNL     1      49.025   4.489  19.570  0.00  0.00    +0.000 C 
ATOM     11  N   UNL     1      48.349   3.369  19.964  0.00  0.00    +0.000 N 
ATOM     12  O   UNL     1      49.825   5.035  20.320  0.00  0.00    +0.000 OA
ATOM     13  H   UNL     1      47.888   2.756  19.307  0.00  0.00    +0.000 HD
ATOM     14  H   UNL     1      48.611   2.981  20.862  0.00  0.00    +0.000 HD
ENDBRANCH   6  10
BRANCH   1  15
ATOM     15  C   UNL     1      47.620   5.965  13.134  0.00  0.00    +0.000 C 
BRANCH  15  19
ATOM     16  C   UNL     1      44.928   4.286  10.877  0.00  0.00    +0.000 C 
ATOM     17  C   UNL     1      45.670   5.590  10.540  0.00  0.00    +0.000 C 
ATOM     18  C   UNL     1      45.610   6.618  11.670  0.00  0.00    +0.000 C 
ATOM     19  C   UNL     1      46.081   6.068  13.028  0.00  0.00    +0.000 C 
ATOM     20  C   UNL     1      45.403   4.725  13.348  0.00  0.00    +0.000 C 
ATOM     21  C   UNL     1      45.468   3.720  12.201  0.00  0.00    +0.000 C 
BRANCH  16  22
ATOM     22  C   UNL     1      43.400   4.505  10.852  0.00  0.00    +0.000 C 
BRANCH  22  23
ATOM     23  N   UNL     1      42.667   3.422  11.501  0.00  0.00    +0.000 NA
ATOM     24  H   UNL     1      42.520   3.656  12.482  0.00  0.00    +0.000 HD
ATOM     25  H   UNL     1      43.236   2.577  11.502  0.00  0.00    +0.000 HD
ENDBRANCH  22  23
ENDBRANCH  16  22
ENDBRANCH  15  19
ENDBRANCH   1  15
TORSDOF 5
ENDMDL
MODEL 5
REMARK VINA RESULT:    -5.724      4.014      5.980
REMARK INTER + INTRA:          -7.885
REMARK INTER:                  -7.251
REMARK INTRA:                  -0.634
REMARK UNBOUND:                -0.654
REMARK  Name = 
REMARK  5 active torsions:
REMARK  status: ('A' for Active; 'I' for Inactive)
REMARK    1  A    between atoms: N_1  and  C_2
REMARK    2  A    between atoms: C_2  and  C_3
REMARK    3  A    between atoms: C_6  and  C_7
REMARK    4  A    between atoms: C_7  and  N_8
REMARK    5  A    between atoms: C_13  and  C_14
REMARK                            x       y       z     vdW  Elec       q    Type
REMARK                         _______ _______ _______ _____ _____    ______ ____
ROOT
ATOM      1  N   UNL     1      47.793   6.310  13.946  0.00  0.00    +0.000 N 
ATOM      2  C   UNL     1      47.774   7.599  13.469  0.00  0.00    +0.000 A 
ATOM      3  C   UNL     1      46.766   7.695  12.540  0.00  0.00    +0.000 A 
ATOM      4  C   UNL     1      46.200   6.402  12.384  0.00  0.00    +0.000 A 
ATOM      5  C   UNL     1      45.170   5.894  11.567  0.00  0.00    +0.000 A 
ATOM      6  C   UNL     1      44.865   4.526  11.616  0.00  0.00    +0.000 A 
ATOM      7  C   UNL     1      45.542   3.684  12.502  0.00  0.00    +0.000 A 
ATOM      8  C   UNL     1      46.552   4.175  13.339  0.00  0.00    +0.000 A 
ATOM      9  C   UNL     1      46.870   5.541  13.262  0.00  0.00    +0.000 A 
ENDROOT
BRANCH   6  10
ATOM     10  C   UNL     1      43.819   3.935  10.741  0.00  0.00    +0.000 C 
ATOM     11  N   UNL     1      43.766   4.371   9.445  0.00  0.00    +0.000 N 
ATOM     12  O   UNL     1      43.059   3.061  11.139  0.00  0.00    +0.000 OA
ATOM     13  H   UNL     1      44.521   4.887   9.018  0.00  0.00    +0.000 HD
ATOM     14  H   UNL     1      43.132   3.874   8.833  0.00  0.00    +0.000 HD
ENDBRANCH   6  10
BRANCH   1  15
ATOM     15  C   UNL     1      48.650   5.866  15.041  0.00  0.00    +0.000 C 
BRANCH  15  19
ATOM     16  C   UNL     1      49.575   4.568  18.593  0.00  0.00    +0.000 C 
ATOM     17  C   UNL     1      48.875   3.734  17.507  0.00  0.00    +0.000 C 
ATOM     18  C   UNL     1      47.645   4.431  16.923  0.00  0.00    +0.000 C 
ATOM     19  C   UNL     1      47.929   5.854  16.410  0.00  0.00    +0.000 C 
ATOM     20  C   UNL     1      48.695   6.679  17.457  0.00  0.00    +0.000 C 
ATOM     21  C   UNL     1      49.912   5.959  18.031  0.00  0.00    +0.000 C 
BRANCH  16  22
ATOM     22  C   UNL     1      48.737   4.590  19.890  0.00  0.00    +0.000 C 
BRANCH  22  23
ATOM     23  N   UNL     1      48.350   3.253  20.331  0.00  0.00    +0.000 NA
ATOM     24  H   UNL     1      48.036   3.297  21.301  0.00  0.00    +0.000 HD
ATOM     25  H   UNL     1      49.168   2.645  20.334  0.00  0.00    +0.000 HD
ENDBRANCH  22  23
ENDBRANCH  16  22
ENDBRANCH  15  19
ENDBRANCH   1  15
TORSDOF 5
ENDMDL
MODEL 6
REMARK VINA RESULT:    -5.695      3.918      6.755
REMARK INTER + INTRA:          -7.847
REMARK INTER:                  -7.302
REMARK INTRA:                  -0.545
REMARK UNBOUND:                -0.654
REMARK  Name = 
REMARK  5 active torsions:
REMARK  status: ('A' for Active; 'I' for Inactive)
REMARK    1  A    between atoms: N_1  and  C_2
REMARK    2  A    between atoms: C_2  and  C_3
REMARK    3  A    between atoms: C_6  and  C_7
REMARK    4  A    between atoms: C_7  and  N_8
REMARK    5  A    between atoms: C_13  and  C_14
REMARK                            x       y       z     vdW  Elec       q    Type
REMARK                         _______ _______ _______ _____ _____    ______ ____
ROOT
ATOM      1  N   UNL     1      46.204   8.387  12.472  0.00  0.00    +0.000 N 
ATOM      2  C   UNL     1      45.841   9.685  12.202  0.00  0.00    +0.000 A 
ATOM      3  C   UNL     1      46.953  10.355  11.754  0.00  0.00    +0.000 A 
ATOM      4  C   UNL     1      48.053   9.460  11.826  0.00  0.00    +0.000 A 
ATOM      5  C   UNL     1      49.424   9.594  11.528  0.00  0.00    +0.000 A 
ATOM      6  C   UNL     1      50.284   8.509  11.749  0.00  0.00    +0.000 A 
ATOM      7  C   UNL     1      49.779   7.292  12.215  0.00  0.00    +0.000 A 
ATOM      8  C   UNL     1      48.416   7.133  12.494  0.00  0.00    +0.000 A 
ATOM      9  C   UNL     1      47.567   8.234  12.296  0.00  0.00    +0.000 A 
ENDROOT
BRANCH   6  10
ATOM     10  C   UNL     1      51.745   8.616  11.494  0.00  0.00    +0.000 C 
ATOM     11  N   UNL     1      52.586   8.082  12.431  0.00  0.00    +0.000 N 
ATOM     12  O   UNL     1      52.188   9.120  10.470  0.00  0.00    +0.000 OA
ATOM     13  H   UNL     1      52.264   7.445  13.146  0.00  0.00    +0.000 HD
ATOM     14  H   UNL     1      53.568   8.055  12.187  0.00  0.00    +0.000 HD
ENDBRANCH   6  10
BRANCH   1  15
ATOM     15  C   UNL     1      45.256   7.343  12.847  0.00  0.00    +0.000 C 
BRANCH  15  19
ATOM     16  C   UNL     1      43.732   3.771  12.571  0.00  0.00    +0.000 C 
ATOM     17  C   UNL     1      45.236   4.082  12.657  0.00  0.00    +0.000 C 
ATOM     18  C   UNL     1      45.688   5.120  11.631  0.00  0.00    +0.000 C 
ATOM     19  C   UNL     1      44.867   6.421  11.668  0.00  0.00    +0.000 C 
ATOM     20  C   UNL     1      43.359   6.126  11.656  0.00  0.00    +0.000 C 
ATOM     21  C   UNL     1      42.933   5.080  12.683  0.00  0.00    +0.000 C 
BRANCH  16  22
ATOM     22  C   UNL     1      43.418   2.938  11.309  0.00  0.00    +0.000 C 
BRANCH  22  23
ATOM     23  N   UNL     1      43.036   1.565  11.623  0.00  0.00    +0.000 NA
ATOM     24  H   UNL     1      42.854   1.487  12.623  0.00  0.00    +0.000 HD
ATOM     25  H   UNL     1      43.821   0.941  11.436  0.00  0.00    +0.000 HD
ENDBRANCH  22  23
ENDBRANCH  16  22
ENDBRANCH  15  19
ENDBRANCH   1  15
TORSDOF 5
ENDMDL
MODEL 7
REMARK VINA RESULT:    -5.505      2.703      6.967
REMARK INTER + INTRA:          -7.607
REMARK INTER:                  -7.973
REMARK INTRA:                   0.366
REMARK UNBOUND:                -0.654
REMARK  Name = 
REMARK  5 active torsions:
REMARK  status: ('A' for Active; 'I' for Inactive)
REMARK    1  A    between atoms: N_1  and  C_2
REMARK    2  A    between atoms: C_2  and  C_3
REMARK    3  A    between atoms: C_6  and  C_7
REMARK    4  A    between atoms: C_7  and  N_8
REMARK    5  A    between atoms: C_13  and  C_14
REMARK                            x       y       z     vdW  Elec       q    Type
REMARK                         _______ _______ _______ _____ _____    ______ ____
ROOT
ATOM      1  N   UNL     1      44.902   4.520  11.280  0.00  0.00    +0.000 N 
ATOM      2  C   UNL     1      44.440   5.712  10.773  0.00  0.00    +0.000 A 
ATOM      3  C   UNL     1      45.104   6.733  11.410  0.00  0.00    +0.000 A 
ATOM      4  C   UNL     1      45.943   6.150  12.396  0.00  0.00    +0.000 A 
ATOM      5  C   UNL     1      46.823   6.693  13.354  0.00  0.00    +0.000 A 
ATOM      6  C   UNL     1      47.496   5.834  14.235  0.00  0.00    +0.000 A 
ATOM      7  C   UNL     1      47.332   4.450  14.132  0.00  0.00    +0.000 A 
ATOM      8  C   UNL     1      46.480   3.891  13.171  0.00  0.00    +0.000 A 
ATOM      9  C   UNL     1      45.789   4.761  12.312  0.00  0.00    +0.000 A 
ENDROOT
BRANCH   6  10
ATOM     10  C   UNL     1      48.398   6.362  15.292  0.00  0.00    +0.000 C 
ATOM     11  N   UNL     1      48.313   7.695  15.580  0.00  0.00    +0.000 N 
ATOM     12  O   UNL     1      49.158   5.633  15.917  0.00  0.00    +0.000 OA
ATOM     13  H   UNL     1      47.537   8.266  15.276  0.00  0.00    +0.000 HD
ATOM     14  H   UNL     1      48.844   8.014  16.381  0.00  0.00    +0.000 HD
ENDBRANCH   6  10
BRANCH   1  15
ATOM     15  C   UNL     1      44.517   3.215  10.753  0.00  0.00    +0.000 C 
BRANCH  15  19
ATOM     16  C   UNL     1      46.727   2.714   7.587  0.00  0.00    +0.000 C 
ATOM     17  C   UNL     1      46.480   4.063   8.283  0.00  0.00    +0.000 C 
ATOM     18  C   UNL     1      44.995   4.357   8.500  0.00  0.00    +0.000 C 
ATOM     19  C   UNL     1      44.245   3.230   9.231  0.00  0.00    +0.000 C 
ATOM     20  C   UNL     1      44.539   1.863   8.592  0.00  0.00    +0.000 C 
ATOM     21  C   UNL     1      46.027   1.597   8.378  0.00  0.00    +0.000 C 
BRANCH  16  22
ATOM     22  C   UNL     1      46.329   2.788   6.097  0.00  0.00    +0.000 C 
BRANCH  22  23
ATOM     23  N   UNL     1      47.485   2.893   5.211  0.00  0.00    +0.000 NA
ATOM     24  H   UNL     1      48.069   3.671   5.513  0.00  0.00    +0.000 HD
ATOM     25  H   UNL     1      47.173   3.131   4.270  0.00  0.00    +0.000 HD
ENDBRANCH  22  23
ENDBRANCH  16  22
ENDBRANCH  15  19
ENDBRANCH   1  15
TORSDOF 5
ENDMDL
MODEL 8
REMARK VINA RESULT:    -5.476      3.129      4.990
REMARK INTER + INTRA:          -7.571
REMARK INTER:                  -6.994
REMARK INTRA:                  -0.578
REMARK UNBOUND:                -0.654
REMARK  Name = 
REMARK  5 active torsions:
REMARK  status: ('A' for Active; 'I' for Inactive)
REMARK    1  A    between atoms: N_1  and  C_2
REMARK    2  A    between atoms: C_2  and  C_3
REMARK    3  A    between atoms: C_6  and  C_7
REMARK    4  A    between atoms: C_7  and  N_8
REMARK    5  A    between atoms: C_13  and  C_14
REMARK                            x       y       z     vdW  Elec       q    Type
REMARK                         _______ _______ _______ _____ _____    ______ ____
ROOT
ATOM      1  N   UNL     1      47.261   6.721  13.475  0.00  0.00    +0.000 N 
ATOM      2  C   UNL     1      47.701   6.018  14.570  0.00  0.00    +0.000 A 
ATOM      3  C   UNL     1      47.223   4.733  14.474  0.00  0.00    +0.000 A 
ATOM      4  C   UNL     1      46.396   4.669  13.322  0.00  0.00    +0.000 A 
ATOM      5  C   UNL     1      45.630   3.636  12.744  0.00  0.00    +0.000 A 
ATOM      6  C   UNL     1      44.868   3.904  11.597  0.00  0.00    +0.000 A 
ATOM      7  C   UNL     1      44.906   5.170  11.006  0.00  0.00    +0.000 A 
ATOM      8  C   UNL     1      45.680   6.202  11.553  0.00  0.00    +0.000 A 
ATOM      9  C   UNL     1      46.416   5.931  12.717  0.00  0.00    +0.000 A 
ENDROOT
BRANCH   6  10
ATOM     10  C   UNL     1      44.009   2.861  10.977  0.00  0.00    +0.000 C 
ATOM     11  N   UNL     1      44.463   2.277   9.827  0.00  0.00    +0.000 N 
ATOM     12  O   UNL     1      42.958   2.500  11.491  0.00  0.00    +0.000 OA
ATOM     13  H   UNL     1      45.421   2.361   9.520  0.00  0.00    +0.000 HD
ATOM     14  H   UNL     1      43.928   1.488   9.486  0.00  0.00    +0.000 HD
ENDBRANCH   6  10
BRANCH   1  15
ATOM     15  C   UNL     1      47.676   8.087  13.171  0.00  0.00    +0.000 C 
BRANCH  15  19
ATOM     16  C   UNL     1      51.074   9.624  12.051  0.00  0.00    +0.000 C 
ATOM     17  C   UNL     1      49.740  10.388  12.113  0.00  0.00    +0.000 C 
ATOM     18  C   UNL     1      48.610   9.671  11.374  0.00  0.00    +0.000 C 
ATOM     19  C   UNL     1      48.413   8.211  11.817  0.00  0.00    +0.000 C 
ATOM     20  C   UNL     1      49.750   7.451  11.831  0.00  0.00    +0.000 C 
ATOM     21  C   UNL     1      50.864   8.191  12.566  0.00  0.00    +0.000 C 
BRANCH  16  22
ATOM     22  C   UNL     1      51.687   9.711  10.636  0.00  0.00    +0.000 C 
BRANCH  22  23
ATOM     23  N   UNL     1      52.974   9.028  10.539  0.00  0.00    +0.000 NA
ATOM     24  H   UNL     1      53.222   8.919   9.556  0.00  0.00    +0.000 HD
ATOM     25  H   UNL     1      52.887   8.082  10.908  0.00  0.00    +0.000 HD
ENDBRANCH  22  23
ENDBRANCH  16  22
ENDBRANCH  15  19
ENDBRANCH   1  15
TORSDOF 5
ENDMDL
MODEL 9
REMARK VINA RESULT:    -5.258      3.458      5.781
REMARK INTER + INTRA:          -7.296
REMARK INTER:                  -6.847
REMARK INTRA:                  -0.449
REMARK UNBOUND:                -0.654
REMARK  Name = 
REMARK  5 active torsions:
REMARK  status: ('A' for Active; 'I' for Inactive)
REMARK    1  A    between atoms: N_1  and  C_2
REMARK    2  A    between atoms: C_2  and  C_3
REMARK    3  A    between atoms: C_6  and  C_7
REMARK    4  A    between atoms: C_7  and  N_8
REMARK    5  A    between atoms: C_13  and  C_14
REMARK                            x       y       z     vdW  Elec       q    Type
REMARK                         _______ _______ _______ _____ _____    ______ ____
ROOT
ATOM      1  N   UNL     1      47.861   6.420  13.782  0.00  0.00    +0.000 N 
ATOM      2  C   UNL     1      48.304   7.447  12.983  0.00  0.00    +0.000 A 
ATOM      3  C   UNL     1      47.566   7.435  11.824  0.00  0.00    +0.000 A 
ATOM      4  C   UNL     1      46.696   6.315  11.880  0.00  0.00    +0.000 A 
ATOM      5  C   UNL     1      45.744   5.790  10.983  0.00  0.00    +0.000 A 
ATOM      6  C   UNL     1      45.056   4.615  11.320  0.00  0.00    +0.000 A 
ATOM      7  C   UNL     1      45.279   3.997  12.553  0.00  0.00    +0.000 A 
ATOM      8  C   UNL     1      46.205   4.517  13.467  0.00  0.00    +0.000 A 
ATOM      9  C   UNL     1      46.908   5.678  13.108  0.00  0.00    +0.000 A 
ENDROOT
BRANCH   6  10
ATOM     10  C   UNL     1      44.076   3.998  10.388  0.00  0.00    +0.000 C 
ATOM     11  N   UNL     1      44.042   4.476   9.107  0.00  0.00    +0.000 N 
ATOM     12  O   UNL     1      43.355   3.068  10.729  0.00  0.00    +0.000 OA
ATOM     13  H   UNL     1      44.779   5.050   8.725  0.00  0.00    +0.000 HD
ATOM     14  H   UNL     1      43.458   3.967   8.456  0.00  0.00    +0.000 HD
ENDBRANCH   6  10
BRANCH   1  15
ATOM     15  C   UNL     1      48.325   6.201  15.148  0.00  0.00    +0.000 C 
BRANCH  15  19
ATOM     16  C   UNL     1      49.886   7.113  18.596  0.00  0.00    +0.000 C 
ATOM     17  C   UNL     1      48.561   7.677  18.053  0.00  0.00    +0.000 C 
ATOM     18  C   UNL     1      48.696   8.257  16.645  0.00  0.00    +0.000 C 
ATOM     19  C   UNL     1      49.319   7.281  15.633  0.00  0.00    +0.000 C 
ATOM     20  C   UNL     1      50.607   6.652  16.190  0.00  0.00    +0.000 C 
ATOM     21  C   UNL     1      50.450   6.088  17.600  0.00  0.00    +0.000 C 
BRANCH  16  22
ATOM     22  C   UNL     1      50.859   8.257  18.955  0.00  0.00    +0.000 C 
BRANCH  22  23
ATOM     23  N   UNL     1      50.988   8.453  20.396  0.00  0.00    +0.000 NA
ATOM     24  H   UNL     1      50.074   8.677  20.788  0.00  0.00    +0.000 HD
ATOM     25  H   UNL     1      51.572   9.269  20.578  0.00  0.00    +0.000 HD
ENDBRANCH  22  23
ENDBRANCH  16  22
ENDBRANCH  15  19
ENDBRANCH   1  15
TORSDOF 5
ENDMDL
