MODEL 1
REMARK VINA RESULT:    -8.507      0.000      0.000
REMARK INTER + INTRA:         -12.556
REMARK INTER:                 -11.491
REMARK INTRA:                  -1.065
REMARK UNBOUND:                -1.065
REMARK  Name = 
REMARK  7 active torsions:
REMARK  status: ('A' for Active; 'I' for Inactive)
REMARK    1  A    between atoms: C_1  and  O_2
REMARK    2  A    between atoms: O_2  and  C_3
REMARK    3  A    between atoms: C_6  and  C_7
REMARK    4  A    between atoms: C_11  and  C_12
REMARK    5  A    between atoms: C_12  and  N_13
REMARK    6  A    between atoms: N_13  and  C_14
REMARK    7  A    between atoms: C_17  and  C_18
REMARK                            x       y       z     vdW  Elec       q    Type
REMARK                         _______ _______ _______ _____ _____    ______ ____
ROOT
ATOM      1  C   UNL     1      43.795   5.024  11.311  0.00  0.00    +0.000 C 
ATOM      2  C   UNL     1      43.056   6.320  11.020  0.00  0.00    +0.000 C 
ATOM      3  C   UNL     1      42.497   5.381  12.035  0.00  0.00    +0.000 C 
ENDROOT
BRANCH   1   8
ATOM      4  C   UNL     1      47.062   6.310  12.567  0.00  0.00    +0.000 A 
ATOM      5  C   UNL     1      47.507   5.319  13.437  0.00  0.00    +0.000 A 
ATOM      6  C   UNL     1      46.702   4.210  13.666  0.00  0.00    +0.000 A 
ATOM      7  C   UNL     1      45.486   4.107  13.002  0.00  0.00    +0.000 A 
ATOM      8  C   UNL     1      45.093   5.114  12.122  0.00  0.00    +0.000 A 
ATOM      9  N   UNL     1      45.868   6.211  11.935  0.00  0.00    +0.000 NA
BRANCH   4  13
ATOM     10  C   UNL     1      49.316   9.824  11.487  0.00  0.00    +0.000 A 
ATOM     11  C   UNL     1      47.971   9.923  11.839  0.00  0.00    +0.000 A 
ATOM     12  C   UNL     1      47.257   8.776  12.199  0.00  0.00    +0.000 A 
ATOM     13  C   UNL     1      47.856   7.502  12.219  0.00  0.00    +0.000 A 
ATOM     14  C   UNL     1      49.217   7.430  11.889  0.00  0.00    +0.000 A 
ATOM     15  C   UNL     1      49.934   8.575  11.526  0.00  0.00    +0.000 A 
BRANCH  10  17
ATOM     16  C   UNL     1      51.464  10.523  10.765  0.00  0.00    +0.000 C 
ATOM     17  O   UNL     1      50.120  10.854  11.093  0.00  0.00    +0.000 OA
ENDBRANCH  10  17
ENDBRANCH   4  13
ENDBRANCH   1   8
BRANCH   1  18
ATOM     18  N   UNL     1      43.699   3.821  10.448  0.00  0.00    +0.000 N 
ATOM     19  H   UNL     1      43.330   3.004  10.936  0.00  0.00    +0.000 HD
BRANCH  18  20
ATOM     20  C   UNL     1      44.682   3.476   9.502  0.00  0.00    +0.000 A 
ATOM     21  C   UNL     1      45.063   2.135   9.361  0.00  0.00    +0.000 A 
ATOM     22  C   UNL     1      45.970   1.758   8.369  0.00  0.00    +0.000 A 
ATOM     23  C   UNL     1      46.462   2.746   7.527  0.00  0.00    +0.000 A 
ATOM     24  N   UNL     1      46.105   4.056   7.605  0.00  0.00    +0.000 NA
ATOM     25  C   UNL     1      45.215   4.369   8.575  0.00  0.00    +0.000 A 
BRANCH  23  26
ATOM     26  C   UNL     1      47.437   2.407   6.444  0.00  0.00    +0.000 C 
ATOM     27  N   UNL     1      47.363   3.209   5.335  0.00  0.00    +0.000 N 
ATOM     28  O   UNL     1      48.240   1.491   6.537  0.00  0.00    +0.000 OA
ATOM     29  H   UNL     1      46.668   3.948   5.306  0.00  0.00    +0.000 HD
ATOM     30  H   UNL     1      47.975   3.047   4.551  0.00  0.00    +0.000 HD
ENDBRANCH  23  26
ENDBRANCH  18  20
ENDBRANCH   1  18
TORSDOF 6
ENDMDL
MODEL 2
REMARK VINA RESULT:    -8.233      2.869      4.337
REMARK INTER + INTRA:         -12.185
REMARK INTER:                 -12.006
REMARK INTRA:                  -0.179
REMARK UNBOUND:                -1.065
REMARK  Name = 
REMARK  7 active torsions:
REMARK  status: ('A' for Active; 'I' for Inactive)
REMARK    1  A    between atoms: C_1  and  O_2
REMARK    2  A    between atoms: O_2  and  C_3
REMARK    3  A    between atoms: C_6  and  C_7
REMARK    4  A    between atoms: C_11  and  C_12
REMARK    5  A    between atoms: C_12  and  N_13
REMARK    6  A    between atoms: N_13  and  C_14
REMARK    7  A    between atoms: C_17  and  C_18
REMARK                            x       y       z     vdW  Elec       q    Type
REMARK                         _______ _______ _______ _____ _____    ______ ____
ROOT
ATOM      1  C   UNL     1      43.976   4.915  11.642  0.00  0.00    +0.000 C 
ATOM      2  C   UNL     1      42.810   5.146  12.589  0.00  0.00    +0.000 C 
ATOM      3  C   UNL     1      43.431   3.792  12.523  0.00  0.00    +0.000 C 
ENDROOT
BRANCH   1   8
ATOM      4  C   UNL     1      47.066   5.604  13.613  0.00  0.00    +0.000 A 
ATOM      5  C   UNL     1      47.717   6.598  12.890  0.00  0.00    +0.000 A 
ATOM      6  C   UNL     1      47.163   7.036  11.694  0.00  0.00    +0.000 A 
ATOM      7  C   UNL     1      45.962   6.488  11.262  0.00  0.00    +0.000 A 
ATOM      8  C   UNL     1      45.335   5.508  12.032  0.00  0.00    +0.000 A 
ATOM      9  N   UNL     1      45.903   5.061  13.180  0.00  0.00    +0.000 NA
BRANCH   4  13
ATOM     10  C   UNL     1      48.370   4.105  17.441  0.00  0.00    +0.000 A 
ATOM     11  C   UNL     1      47.603   3.310  16.590  0.00  0.00    +0.000 A 
ATOM     12  C   UNL     1      47.199   3.806  15.347  0.00  0.00    +0.000 A 
ATOM     13  C   UNL     1      47.542   5.100  14.915  0.00  0.00    +0.000 A 
ATOM     14  C   UNL     1      48.337   5.872  15.775  0.00  0.00    +0.000 A 
ATOM     15  C   UNL     1      48.742   5.380  17.020  0.00  0.00    +0.000 A 
BRANCH  10  17
ATOM     16  C   UNL     1      49.478   4.767  19.430  0.00  0.00    +0.000 C 
ATOM     17  O   UNL     1      48.809   3.757  18.685  0.00  0.00    +0.000 OA
ENDBRANCH  10  17
ENDBRANCH   4  13
ENDBRANCH   1   8
BRANCH   1  18
ATOM     18  N   UNL     1      43.808   4.682  10.187  0.00  0.00    +0.000 N 
ATOM     19  H   UNL     1      42.845   4.471   9.922  0.00  0.00    +0.000 HD
BRANCH  18  20
ATOM     20  C   UNL     1      44.741   3.969   9.411  0.00  0.00    +0.000 A 
ATOM     21  C   UNL     1      44.812   2.575   9.527  0.00  0.00    +0.000 A 
ATOM     22  C   UNL     1      45.667   1.841   8.703  0.00  0.00    +0.000 A 
ATOM     23  C   UNL     1      46.423   2.532   7.766  0.00  0.00    +0.000 A 
ATOM     24  N   UNL     1      46.372   3.880   7.596  0.00  0.00    +0.000 NA
ATOM     25  C   UNL     1      45.519   4.546   8.410  0.00  0.00    +0.000 A 
BRANCH  23  26
ATOM     26  C   UNL     1      47.358   1.803   6.854  0.00  0.00    +0.000 C 
ATOM     27  N   UNL     1      48.450   2.528   6.454  0.00  0.00    +0.000 N 
ATOM     28  O   UNL     1      47.170   0.650   6.493  0.00  0.00    +0.000 OA
ATOM     29  H   UNL     1      48.549   3.486   6.773  0.00  0.00    +0.000 HD
ATOM     30  H   UNL     1      49.128   2.121   5.830  0.00  0.00    +0.000 HD
ENDBRANCH  23  26
ENDBRANCH  18  20
ENDBRANCH   1  18
TORSDOF 6
ENDMDL
MODEL 3
REMARK VINA RESULT:    -8.059      3.146      7.448
REMARK INTER + INTRA:         -11.951
REMARK INTER:                 -11.133
REMARK INTRA:                  -0.818
REMARK UNBOUND:                -1.065
REMARK  Name = 
REMARK  7 active torsions:
REMARK  status: ('A' for Active; 'I' for Inactive)
REMARK    1  A    between atoms: C_1  and  O_2
REMARK    2  A    between atoms: O_2  and  C_3
REMARK    3  A    between atoms: C_6  and  C_7
REMARK    4  A    between atoms: C_11  and  C_12
REMARK    5  A    between atoms: C_12  and  N_13
REMARK    6  A    between atoms: N_13  and  C_14
REMARK    7  A    between atoms: C_17  and  C_18
REMARK                            x       y       z     vdW  Elec       q    Type
REMARK                         _______ _______ _______ _____ _____    ______ ____
ROOT
ATOM      1  C   UNL     1      46.182   7.310  12.475  0.00  0.00    +0.000 C 
ATOM      2  C   UNL     1      45.648   8.591  13.094  0.00  0.00    +0.000 C 
ATOM      3  C   UNL     1      46.361   8.662  11.786  0.00  0.00    +0.000 C 
ENDROOT
BRANCH   1   8
ATOM      4  C   UNL     1      44.759   4.639  10.297  0.00  0.00    +0.000 A 
ATOM      5  C   UNL     1      43.400   4.644  10.595  0.00  0.00    +0.000 A 
ATOM      6  C   UNL     1      42.926   5.511  11.572  0.00  0.00    +0.000 A 
ATOM      7  C   UNL     1      43.816   6.368  12.207  0.00  0.00    +0.000 A 
ATOM      8  C   UNL     1      45.166   6.343  11.858  0.00  0.00    +0.000 A 
ATOM      9  N   UNL     1      45.625   5.466  10.930  0.00  0.00    +0.000 NA
BRANCH   4  13
ATOM     10  C   UNL     1      46.555   2.115   7.297  0.00  0.00    +0.000 A 
ATOM     11  C   UNL     1      45.872   1.559   8.378  0.00  0.00    +0.000 A 
ATOM     12  C   UNL     1      45.285   2.391   9.335  0.00  0.00    +0.000 A 
ATOM     13  C   UNL     1      45.358   3.793   9.248  0.00  0.00    +0.000 A 
ATOM     14  C   UNL     1      46.024   4.331   8.137  0.00  0.00    +0.000 A 
ATOM     15  C   UNL     1      46.615   3.502   7.179  0.00  0.00    +0.000 A 
BRANCH  10  17
ATOM     16  C   UNL     1      47.910   2.193   5.353  0.00  0.00    +0.000 C 
ATOM     17  O   UNL     1      47.192   1.423   6.309  0.00  0.00    +0.000 OA
ENDBRANCH  10  17
ENDBRANCH   4  13
ENDBRANCH   1   8
BRANCH   1  18
ATOM     18  N   UNL     1      47.452   6.670  12.899  0.00  0.00    +0.000 N 
ATOM     19  H   UNL     1      48.019   6.343  12.115  0.00  0.00    +0.000 HD
BRANCH  18  20
ATOM     20  C   UNL     1      47.547   5.819  14.016  0.00  0.00    +0.000 A 
ATOM     21  C   UNL     1      48.254   6.244  15.148  0.00  0.00    +0.000 A 
ATOM     22  C   UNL     1      48.286   5.454  16.298  0.00  0.00    +0.000 A 
ATOM     23  C   UNL     1      47.586   4.255  16.285  0.00  0.00    +0.000 A 
ATOM     24  N   UNL     1      46.864   3.810  15.222  0.00  0.00    +0.000 NA
ATOM     25  C   UNL     1      46.855   4.617  14.135  0.00  0.00    +0.000 A 
BRANCH  23  26
ATOM     26  C   UNL     1      47.581   3.363  17.486  0.00  0.00    +0.000 C 
ATOM     27  N   UNL     1      48.651   3.527  18.326  0.00  0.00    +0.000 N 
ATOM     28  O   UNL     1      46.693   2.552  17.707  0.00  0.00    +0.000 OA
ATOM     29  H   UNL     1      49.366   4.205  18.086  0.00  0.00    +0.000 HD
ATOM     30  H   UNL     1      48.737   2.960  19.155  0.00  0.00    +0.000 HD
ENDBRANCH  23  26
ENDBRANCH  18  20
ENDBRANCH   1  18
TORSDOF 6
ENDMDL
MODEL 4
REMARK VINA RESULT:    -7.172      1.437      2.253
REMARK INTER + INTRA:         -10.752
REMARK INTER:                 -10.496
REMARK INTRA:                  -0.256
REMARK UNBOUND:                -1.065
REMARK  Name = 
REMARK  7 active torsions:
REMARK  status: ('A' for Active; 'I' for Inactive)
REMARK    1  A    between atoms: C_1  and  O_2
REMARK    2  A    between atoms: O_2  and  C_3
REMARK    3  A    between atoms: C_6  and  C_7
REMARK    4  A    between atoms: C_11  and  C_12
REMARK    5  A    between atoms: C_12  and  N_13
REMARK    6  A    between atoms: N_13  and  C_14
REMARK    7  A    between atoms: C_17  and  C_18
REMARK                            x       y       z     vdW  Elec       q    Type
REMARK                         _______ _______ _______ _____ _____    ______ ____
ROOT
ATOM      1  C   UNL     1      44.137   4.409  11.626  0.00  0.00    +0.000 C 
ATOM      2  C   UNL     1      43.579   3.856  12.927  0.00  0.00    +0.000 C 
ATOM      3  C   UNL     1      44.964   3.484  12.517  0.00  0.00    +0.000 C 
ENDROOT
BRANCH   1   8
ATOM      4  C   UNL     1      46.198   7.492  12.008  0.00  0.00    +0.000 A 
ATOM      5  C   UNL     1      45.323   8.529  11.700  0.00  0.00    +0.000 A 
ATOM      6  C   UNL     1      44.025   8.222  11.308  0.00  0.00    +0.000 A 
ATOM      7  C   UNL     1      43.629   6.892  11.257  0.00  0.00    +0.000 A 
ATOM      8  C   UNL     1      44.536   5.889  11.597  0.00  0.00    +0.000 A 
ATOM      9  N   UNL     1      45.811   6.196  11.942  0.00  0.00    +0.000 NA
BRANCH   4  13
ATOM     10  C   UNL     1      50.268   8.110  13.295  0.00  0.00    +0.000 A 
ATOM     11  C   UNL     1      49.746   8.827  12.220  0.00  0.00    +0.000 A 
ATOM     12  C   UNL     1      48.421   8.625  11.823  0.00  0.00    +0.000 A 
ATOM     13  C   UNL     1      47.579   7.707  12.479  0.00  0.00    +0.000 A 
ATOM     14  C   UNL     1      48.116   7.018  13.576  0.00  0.00    +0.000 A 
ATOM     15  C   UNL     1      49.442   7.216  13.975  0.00  0.00    +0.000 A 
BRANCH  10  17
ATOM     16  C   UNL     1      52.556   8.510  12.823  0.00  0.00    +0.000 C 
ATOM     17  O   UNL     1      51.544   8.191  13.770  0.00  0.00    +0.000 OA
ENDBRANCH  10  17
ENDBRANCH   4  13
ENDBRANCH   1   8
BRANCH   1  18
ATOM     18  N   UNL     1      43.811   3.840  10.295  0.00  0.00    +0.000 N 
ATOM     19  H   UNL     1      43.029   3.184  10.318  0.00  0.00    +0.000 HD
BRANCH  18  20
ATOM     20  C   UNL     1      44.793   3.463   9.360  0.00  0.00    +0.000 A 
ATOM     21  C   UNL     1      45.127   2.109   9.219  0.00  0.00    +0.000 A 
ATOM     22  C   UNL     1      46.033   1.704   8.238  0.00  0.00    +0.000 A 
ATOM     23  C   UNL     1      46.572   2.676   7.407  0.00  0.00    +0.000 A 
ATOM     24  N   UNL     1      46.262   3.998   7.485  0.00  0.00    +0.000 NA
ATOM     25  C   UNL     1      45.370   4.339   8.445  0.00  0.00    +0.000 A 
BRANCH  23  26
ATOM     26  C   UNL     1      47.548   2.306   6.336  0.00  0.00    +0.000 C 
ATOM     27  N   UNL     1      47.543   3.135   5.244  0.00  0.00    +0.000 N 
ATOM     28  O   UNL     1      48.297   1.344   6.423  0.00  0.00    +0.000 OA
ATOM     29  H   UNL     1      46.891   3.911   5.218  0.00  0.00    +0.000 HD
ATOM     30  H   UNL     1      48.160   2.955   4.467  0.00  0.00    +0.000 HD
ENDBRANCH  23  26
ENDBRANCH  18  20
ENDBRANCH   1  18
TORSDOF 6
ENDMDL
MODEL 5
REMARK VINA RESULT:    -6.905      5.549      8.534
REMARK INTER + INTRA:         -10.392
REMARK INTER:                  -9.778
REMARK INTRA:                  -0.614
REMARK UNBOUND:                -1.065
REMARK  Name = 
REMARK  7 active torsions:
REMARK  status: ('A' for Active; 'I' for Inactive)
REMARK    1  A    between atoms: C_1  and  O_2
REMARK    2  A    between atoms: O_2  and  C_3
REMARK    3  A    between atoms: C_6  and  C_7
REMARK    4  A    between atoms: C_11  and  C_12
REMARK    5  A    between atoms: C_12  and  N_13
REMARK    6  A    between atoms: N_13  and  C_14
REMARK    7  A    between atoms: C_17  and  C_18
REMARK                            x       y       z     vdW  Elec       q    Type
REMARK                         _______ _______ _______ _____ _____    ______ ____
ROOT
ATOM      1  C   UNL     1      48.364   4.808  17.242  0.00  0.00    +0.000 C 
ATOM      2  C   UNL     1      47.268   3.762  17.369  0.00  0.00    +0.000 C 
ATOM      3  C   UNL     1      47.154   5.028  18.149  0.00  0.00    +0.000 C 
ENDROOT
BRANCH   1   8
ATOM      4  C   UNL     1      47.593   5.930  13.770  0.00  0.00    +0.000 A 
ATOM      5  C   UNL     1      48.516   6.941  13.526  0.00  0.00    +0.000 A 
ATOM      6  C   UNL     1      49.396   7.311  14.535  0.00  0.00    +0.000 A 
ATOM      7  C   UNL     1      49.348   6.645  15.753  0.00  0.00    +0.000 A 
ATOM      8  C   UNL     1      48.419   5.623  15.944  0.00  0.00    +0.000 A 
ATOM      9  N   UNL     1      47.539   5.295  14.965  0.00  0.00    +0.000 NA
BRANCH   4  13
ATOM     10  C   UNL     1      44.868   4.382  10.807  0.00  0.00    +0.000 A 
ATOM     11  C   UNL     1      45.085   3.695  12.002  0.00  0.00    +0.000 A 
ATOM     12  C   UNL     1      45.961   4.216  12.957  0.00  0.00    +0.000 A 
ATOM     13  C   UNL     1      46.647   5.429  12.756  0.00  0.00    +0.000 A 
ATOM     14  C   UNL     1      46.392   6.117  11.560  0.00  0.00    +0.000 A 
ATOM     15  C   UNL     1      45.517   5.597  10.601  0.00  0.00    +0.000 A 
BRANCH  10  17
ATOM     16  C   UNL     1      44.628   4.002   8.479  0.00  0.00    +0.000 C 
ATOM     17  O   UNL     1      44.062   3.976   9.784  0.00  0.00    +0.000 OA
ENDBRANCH  10  17
ENDBRANCH   4  13
ENDBRANCH   1   8
BRANCH   1  18
ATOM     18  N   UNL     1      49.657   4.722  17.963  0.00  0.00    +0.000 N 
ATOM     19  H   UNL     1      50.130   5.622  18.050  0.00  0.00    +0.000 HD
BRANCH  18  20
ATOM     20  C   UNL     1      50.565   3.660  17.787  0.00  0.00    +0.000 A 
ATOM     21  C   UNL     1      51.884   3.799  18.238  0.00  0.00    +0.000 A 
ATOM     22  C   UNL     1      52.775   2.728  18.154  0.00  0.00    +0.000 A 
ATOM     23  C   UNL     1      52.308   1.530  17.630  0.00  0.00    +0.000 A 
ATOM     24  N   UNL     1      51.031   1.336  17.204  0.00  0.00    +0.000 NA
ATOM     25  C   UNL     1      50.203   2.401  17.316  0.00  0.00    +0.000 A 
BRANCH  23  26
ATOM     26  C   UNL     1      53.213   0.345  17.514  0.00  0.00    +0.000 C 
ATOM     27  N   UNL     1      52.995  -0.636  18.445  0.00  0.00    +0.000 N 
ATOM     28  O   UNL     1      54.080   0.253  16.656  0.00  0.00    +0.000 OA
ATOM     29  H   UNL     1      52.271  -0.502  19.142  0.00  0.00    +0.000 HD
ATOM     30  H   UNL     1      53.566  -1.467  18.450  0.00  0.00    +0.000 HD
ENDBRANCH  23  26
ENDBRANCH  18  20
ENDBRANCH   1  18
TORSDOF 6
ENDMDL
MODEL 6
REMARK VINA RESULT:    -6.753      4.684      6.887
REMARK INTER + INTRA:         -10.187
REMARK INTER:                  -9.357
REMARK INTRA:                  -0.829
REMARK UNBOUND:                -1.065
REMARK  Name = 
REMARK  7 active torsions:
REMARK  status: ('A' for Active; 'I' for Inactive)
REMARK    1  A    between atoms: C_1  and  O_2
REMARK    2  A    between atoms: O_2  and  C_3
REMARK    3  A    between atoms: C_6  and  C_7
REMARK    4  A    between atoms: C_11  and  C_12
REMARK    5  A    between atoms: C_12  and  N_13
REMARK    6  A    between atoms: N_13  and  C_14
REMARK    7  A    between atoms: C_17  and  C_18
REMARK                            x       y       z     vdW  Elec       q    Type
REMARK                         _______ _______ _______ _____ _____    ______ ____
ROOT
ATOM      1  C   UNL     1      48.129   7.441  13.667  0.00  0.00    +0.000 C 
ATOM      2  C   UNL     1      49.096   6.996  12.582  0.00  0.00    +0.000 C 
ATOM      3  C   UNL     1      48.839   8.453  12.769  0.00  0.00    +0.000 C 
ENDROOT
BRANCH   1   8
ATOM      4  C   UNL     1      49.586   6.028  16.795  0.00  0.00    +0.000 A 
ATOM      5  C   UNL     1      49.384   7.024  17.745  0.00  0.00    +0.000 A 
ATOM      6  C   UNL     1      48.796   8.220  17.355  0.00  0.00    +0.000 A 
ATOM      7  C   UNL     1      48.401   8.382  16.033  0.00  0.00    +0.000 A 
ATOM      8  C   UNL     1      48.604   7.347  15.121  0.00  0.00    +0.000 A 
ATOM      9  N   UNL     1      49.214   6.197  15.504  0.00  0.00    +0.000 NA
BRANCH   4  13
ATOM     10  C   UNL     1      51.333   2.181  17.661  0.00  0.00    +0.000 A 
ATOM     11  C   UNL     1      52.093   3.346  17.761  0.00  0.00    +0.000 A 
ATOM     12  C   UNL     1      51.509   4.586  17.489  0.00  0.00    +0.000 A 
ATOM     13  C   UNL     1      50.158   4.706  17.111  0.00  0.00    +0.000 A 
ATOM     14  C   UNL     1      49.405   3.525  17.046  0.00  0.00    +0.000 A 
ATOM     15  C   UNL     1      49.987   2.282  17.315  0.00  0.00    +0.000 A 
BRANCH  10  17
ATOM     16  C   UNL     1      53.145   0.657  17.563  0.00  0.00    +0.000 C 
ATOM     17  O   UNL     1      51.781   0.911  17.874  0.00  0.00    +0.000 OA
ENDBRANCH  10  17
ENDBRANCH   4  13
ENDBRANCH   1   8
BRANCH   1  18
ATOM     18  N   UNL     1      46.655   7.412  13.504  0.00  0.00    +0.000 N 
ATOM     19  H   UNL     1      46.154   7.787  14.311  0.00  0.00    +0.000 HD
BRANCH  18  20
ATOM     20  C   UNL     1      45.970   6.338  12.904  0.00  0.00    +0.000 A 
ATOM     21  C   UNL     1      45.652   6.398  11.541  0.00  0.00    +0.000 A 
ATOM     22  C   UNL     1      45.054   5.308  10.907  0.00  0.00    +0.000 A 
ATOM     23  C   UNL     1      44.802   4.172  11.663  0.00  0.00    +0.000 A 
ATOM     24  N   UNL     1      45.114   4.054  12.982  0.00  0.00    +0.000 NA
ATOM     25  C   UNL     1      45.703   5.133  13.548  0.00  0.00    +0.000 A 
BRANCH  23  26
ATOM     26  C   UNL     1      44.162   2.971  11.042  0.00  0.00    +0.000 C 
ATOM     27  N   UNL     1      44.907   2.366  10.064  0.00  0.00    +0.000 N 
ATOM     28  O   UNL     1      43.063   2.555  11.379  0.00  0.00    +0.000 OA
ATOM     29  H   UNL     1      45.808   2.761   9.815  0.00  0.00    +0.000 HD
ATOM     30  H   UNL     1      44.550   1.556   9.582  0.00  0.00    +0.000 HD
ENDBRANCH  23  26
ENDBRANCH  18  20
ENDBRANCH   1  18
TORSDOF 6
ENDMDL
MODEL 7
REMARK VINA RESULT:    -6.419      2.097      7.153
REMARK INTER + INTRA:          -9.736
REMARK INTER:                  -8.860
REMARK INTRA:                  -0.876
REMARK UNBOUND:                -1.065
REMARK  Name = 
REMARK  7 active torsions:
REMARK  status: ('A' for Active; 'I' for Inactive)
REMARK    1  A    between atoms: C_1  and  O_2
REMARK    2  A    between atoms: O_2  and  C_3
REMARK    3  A    between atoms: C_6  and  C_7
REMARK    4  A    between atoms: C_11  and  C_12
REMARK    5  A    between atoms: C_12  and  N_13
REMARK    6  A    between atoms: N_13  and  C_14
REMARK    7  A    between atoms: C_17  and  C_18
REMARK                            x       y       z     vdW  Elec       q    Type
REMARK                         _______ _______ _______ _____ _____    ______ ____
ROOT
ATOM      1  C   UNL     1      46.350   5.141  13.825  0.00  0.00    +0.000 C 
ATOM      2  C   UNL     1      47.202   3.932  14.177  0.00  0.00    +0.000 C 
ATOM      3  C   UNL     1      46.164   4.394  15.144  0.00  0.00    +0.000 C 
ENDROOT
BRANCH   1   8
ATOM      4  C   UNL     1      44.711   4.174  10.618  0.00  0.00    +0.000 A 
ATOM      5  C   UNL     1      43.419   4.679  10.730  0.00  0.00    +0.000 A 
ATOM      6  C   UNL     1      43.043   5.319  11.904  0.00  0.00    +0.000 A 
ATOM      7  C   UNL     1      43.973   5.460  12.927  0.00  0.00    +0.000 A 
ATOM      8  C   UNL     1      45.263   4.957  12.760  0.00  0.00    +0.000 A 
ATOM      9  N   UNL     1      45.609   4.300  11.625  0.00  0.00    +0.000 NA
BRANCH   4  13
ATOM     10  C   UNL     1      46.276   2.209   7.113  0.00  0.00    +0.000 A 
ATOM     11  C   UNL     1      45.810   1.465   8.197  0.00  0.00    +0.000 A 
ATOM     12  C   UNL     1      45.294   2.117   9.320  0.00  0.00    +0.000 A 
ATOM     13  C   UNL     1      45.227   3.520   9.402  0.00  0.00    +0.000 A 
ATOM     14  C   UNL     1      45.674   4.247   8.289  0.00  0.00    +0.000 A 
ATOM     15  C   UNL     1      46.193   3.599   7.164  0.00  0.00    +0.000 A 
BRANCH  10  17
ATOM     16  C   UNL     1      47.750   2.537   5.286  0.00  0.00    +0.000 C 
ATOM     17  O   UNL     1      46.823   1.704   5.970  0.00  0.00    +0.000 OA
ENDBRANCH  10  17
ENDBRANCH   4  13
ENDBRANCH   1   8
BRANCH   1  18
ATOM     18  N   UNL     1      46.821   6.540  13.980  0.00  0.00    +0.000 N 
ATOM     19  H   UNL     1      46.085   7.231  13.827  0.00  0.00    +0.000 HD
BRANCH  18  20
ATOM     20  C   UNL     1      48.072   6.984  13.512  0.00  0.00    +0.000 A 
ATOM     21  C   UNL     1      48.257   7.208  12.141  0.00  0.00    +0.000 A 
ATOM     22  C   UNL     1      49.460   7.733  11.667  0.00  0.00    +0.000 A 
ATOM     23  C   UNL     1      50.448   8.037  12.593  0.00  0.00    +0.000 A 
ATOM     24  N   UNL     1      50.310   7.863  13.935  0.00  0.00    +0.000 NA
ATOM     25  C   UNL     1      49.122   7.363  14.346  0.00  0.00    +0.000 A 
BRANCH  23  26
ATOM     26  C   UNL     1      51.760   8.602  12.149  0.00  0.00    +0.000 C 
ATOM     27  N   UNL     1      52.500   7.771  11.348  0.00  0.00    +0.000 N 
ATOM     28  O   UNL     1      52.146   9.717  12.469  0.00  0.00    +0.000 OA
ATOM     29  H   UNL     1      52.137   6.851  11.124  0.00  0.00    +0.000 HD
ATOM     30  H   UNL     1      53.403   8.065  11.010  0.00  0.00    +0.000 HD
ENDBRANCH  23  26
ENDBRANCH  18  20
ENDBRANCH   1  18
TORSDOF 6
ENDMDL
MODEL 8
REMARK VINA RESULT:    -6.221      4.758      8.211
REMARK INTER + INTRA:          -9.469
REMARK INTER:                  -8.403
REMARK INTRA:                  -1.066
REMARK UNBOUND:                -1.065
REMARK  Name = 
REMARK  7 active torsions:
REMARK  status: ('A' for Active; 'I' for Inactive)
REMARK    1  A    between atoms: C_1  and  O_2
REMARK    2  A    between atoms: O_2  and  C_3
REMARK    3  A    between atoms: C_6  and  C_7
REMARK    4  A    between atoms: C_11  and  C_12
REMARK    5  A    between atoms: C_12  and  N_13
REMARK    6  A    between atoms: N_13  and  C_14
REMARK    7  A    between atoms: C_17  and  C_18
REMARK                            x       y       z     vdW  Elec       q    Type
REMARK                         _______ _______ _______ _____ _____    ______ ____
ROOT
ATOM      1  C   UNL     1      49.208   8.649  16.835  0.00  0.00    +0.000 C 
ATOM      2  C   UNL     1      47.932   9.380  17.220  0.00  0.00    +0.000 C 
ATOM      3  C   UNL     1      49.221  10.130  17.211  0.00  0.00    +0.000 C 
ENDROOT
BRANCH   1   8
ATOM      4  C   UNL     1      48.586   7.194  13.458  0.00  0.00    +0.000 A 
ATOM      5  C   UNL     1      49.723   7.525  12.729  0.00  0.00    +0.000 A 
ATOM      6  C   UNL     1      50.714   8.289  13.333  0.00  0.00    +0.000 A 
ATOM      7  C   UNL     1      50.556   8.680  14.657  0.00  0.00    +0.000 A 
ATOM      8  C   UNL     1      49.408   8.305  15.354  0.00  0.00    +0.000 A 
ATOM      9  N   UNL     1      48.429   7.592  14.744  0.00  0.00    +0.000 NA
BRANCH   4  13
ATOM     10  C   UNL     1      45.352   4.808  11.895  0.00  0.00    +0.000 A 
ATOM     11  C   UNL     1      45.849   5.892  11.172  0.00  0.00    +0.000 A 
ATOM     12  C   UNL     1      46.906   6.647  11.687  0.00  0.00    +0.000 A 
ATOM     13  C   UNL     1      47.497   6.351  12.929  0.00  0.00    +0.000 A 
ATOM     14  C   UNL     1      47.000   5.239  13.625  0.00  0.00    +0.000 A 
ATOM     15  C   UNL     1      45.942   4.482  13.114  0.00  0.00    +0.000 A 
BRANCH  10  17
ATOM     16  C   UNL     1      43.084   4.652  11.221  0.00  0.00    +0.000 C 
ATOM     17  O   UNL     1      44.314   4.004  11.523  0.00  0.00    +0.000 OA
ENDBRANCH  10  17
ENDBRANCH   4  13
ENDBRANCH   1   8
BRANCH   1  18
ATOM     18  N   UNL     1      49.960   7.777  17.770  0.00  0.00    +0.000 N 
ATOM     19  H   UNL     1      50.861   8.168  18.048  0.00  0.00    +0.000 HD
BRANCH  18  20
ATOM     20  C   UNL     1      50.004   6.376  17.645  0.00  0.00    +0.000 A 
ATOM     21  C   UNL     1      48.806   5.651  17.585  0.00  0.00    +0.000 A 
ATOM     22  C   UNL     1      48.826   4.272  17.372  0.00  0.00    +0.000 A 
ATOM     23  C   UNL     1      50.058   3.655  17.207  0.00  0.00    +0.000 A 
ATOM     24  N   UNL     1      51.246   4.316  17.230  0.00  0.00    +0.000 NA
ATOM     25  C   UNL     1      51.174   5.653  17.429  0.00  0.00    +0.000 A 
BRANCH  23  26
ATOM     26  C   UNL     1      50.146   2.180  16.975  0.00  0.00    +0.000 C 
ATOM     27  N   UNL     1      51.027   1.523  17.794  0.00  0.00    +0.000 N 
ATOM     28  O   UNL     1      49.485   1.600  16.126  0.00  0.00    +0.000 OA
ATOM     29  H   UNL     1      51.560   2.055  18.473  0.00  0.00    +0.000 HD
ATOM     30  H   UNL     1      51.160   0.528  17.701  0.00  0.00    +0.000 HD
ENDBRANCH  23  26
ENDBRANCH  18  20
ENDBRANCH   1  18
TORSDOF 6
ENDMDL
MODEL 9
REMARK VINA RESULT:    -6.034      3.357      7.731
REMARK INTER + INTRA:          -9.215
REMARK INTER:                  -8.807
REMARK INTRA:                  -0.409
REMARK UNBOUND:                -1.065
REMARK  Name = 
REMARK  7 active torsions:
REMARK  status: ('A' for Active; 'I' for Inactive)
REMARK    1  A    between atoms: C_1  and  O_2
REMARK    2  A    between atoms: O_2  and  C_3
REMARK    3  A    between atoms: C_6  and  C_7
REMARK    4  A    between atoms: C_11  and  C_12
REMARK    5  A    between atoms: C_12  and  N_13
REMARK    6  A    between atoms: N_13  and  C_14
REMARK    7  A    between atoms: C_17  and  C_18
REMARK                            x       y       z     vdW  Elec       q    Type
REMARK                         _______ _______ _______ _____ _____    ______ ____
ROOT
ATOM      1  C   UNL     1      48.708   8.721  12.723  0.00  0.00    +0.000 C 
ATOM      2  C   UNL     1      49.217  10.060  13.233  0.00  0.00    +0.000 C 
ATOM      3  C   UNL     1      49.586   9.622  11.856  0.00  0.00    +0.000 C 
ENDROOT
BRANCH   1   8
ATOM      4  C   UNL     1      45.493   7.301  11.480  0.00  0.00    +0.000 A 
ATOM      5  C   UNL     1      44.606   8.372  11.526  0.00  0.00    +0.000 A 
ATOM      6  C   UNL     1      45.047   9.593  12.021  0.00  0.00    +0.000 A 
ATOM      7  C   UNL     1      46.367   9.720  12.433  0.00  0.00    +0.000 A 
ATOM      8  C   UNL     1      47.225   8.624  12.347  0.00  0.00    +0.000 A 
ATOM      9  N   UNL     1      46.775   7.425  11.898  0.00  0.00    +0.000 NA
BRANCH   4  13
ATOM     10  C   UNL     1      44.451   3.471   9.793  0.00  0.00    +0.000 A 
ATOM     11  C   UNL     1      45.376   4.299   9.159  0.00  0.00    +0.000 A 
ATOM     12  C   UNL     1      45.713   5.532   9.725  0.00  0.00    +0.000 A 
ATOM     13  C   UNL     1      45.142   5.977  10.932  0.00  0.00    +0.000 A 
ATOM     14  C   UNL     1      44.235   5.116  11.567  0.00  0.00    +0.000 A 
ATOM     15  C   UNL     1      43.895   3.883  11.002  0.00  0.00    +0.000 A 
BRANCH  10  17
ATOM     16  C   UNL     1      44.992   1.417   8.741  0.00  0.00    +0.000 C 
ATOM     17  O   UNL     1      44.016   2.260   9.339  0.00  0.00    +0.000 OA
ENDBRANCH  10  17
ENDBRANCH   4  13
ENDBRANCH   1   8
BRANCH   1  18
ATOM     18  N   UNL     1      49.333   7.424  13.080  0.00  0.00    +0.000 N 
ATOM     19  H   UNL     1      49.623   6.880  12.267  0.00  0.00    +0.000 HD
BRANCH  18  20
ATOM     20  C   UNL     1      48.861   6.607  14.125  0.00  0.00    +0.000 A 
ATOM     21  C   UNL     1      49.172   6.936  15.451  0.00  0.00    +0.000 A 
ATOM     22  C   UNL     1      48.641   6.192  16.506  0.00  0.00    +0.000 A 
ATOM     23  C   UNL     1      47.792   5.138  16.198  0.00  0.00    +0.000 A 
ATOM     24  N   UNL     1      47.439   4.794  14.931  0.00  0.00    +0.000 NA
ATOM     25  C   UNL     1      47.970   5.553  13.944  0.00  0.00    +0.000 A 
BRANCH  23  26
ATOM     26  C   UNL     1      47.191   4.302  17.283  0.00  0.00    +0.000 C 
ATOM     27  N   UNL     1      47.337   4.812  18.547  0.00  0.00    +0.000 N 
ATOM     28  O   UNL     1      46.611   3.248  17.066  0.00  0.00    +0.000 OA
ATOM     29  H   UNL     1      47.840   5.684  18.671  0.00  0.00    +0.000 HD
ATOM     30  H   UNL     1      46.974   4.310  19.342  0.00  0.00    +0.000 HD
ENDBRANCH  23  26
ENDBRANCH  18  20
ENDBRANCH   1  18
TORSDOF 6
ENDMDL
