MODEL 1
REMARK VINA RESULT:    -8.231      0.000      0.000
REMARK INTER + INTRA:         -12.695
REMARK INTER:                 -12.080
REMARK INTRA:                  -0.615
REMARK UNBOUND:                -0.615
REMARK  Name = 
REMARK  9 active torsions:
REMARK  status: ('A' for Active; 'I' for Inactive)
REMARK    1  A    between atoms: C_1  and  C_2
REMARK    2  A    between atoms: C_2  and  C_3
REMARK    3  A    between atoms: C_3  and  N_4
REMARK    4  A    between atoms: C_10  and  C_11
REMARK    5  A    between atoms: N_13  and  C_14
REMARK    6  A    between atoms: C_14  and  C_15
REMARK    7  A    between atoms: C_18  and  C_19
REMARK    8  A    between atoms: C_19  and  N_20
REMARK    9  A    between atoms: C_21  and  C_23
REMARK                            x       y       z     vdW  Elec       q    Type
REMARK                         _______ _______ _______ _____ _____    ______ ____
ROOT
ATOM      1  C   UNL     1      47.417   3.751  17.271  0.00  0.00    +0.000 C 
ENDROOT
BRANCH   1   2
ATOM      2  C   UNL     1      48.885   3.426  17.431  0.00  0.00    +0.000 A 
ATOM      3  C   UNL     1      49.780   4.415  17.862  0.00  0.00    +0.000 A 
ATOM      4  C   UNL     1      51.141   4.130  18.031  0.00  0.00    +0.000 A 
ATOM      5  C   UNL     1      51.646   2.855  17.742  0.00  0.00    +0.000 A 
ATOM      6  C   UNL     1      50.754   1.868  17.300  0.00  0.00    +0.000 A 
ATOM      7  C   UNL     1      49.391   2.152  17.136  0.00  0.00    +0.000 A 
BRANCH   5   8
ATOM      8  C   UNL     1      53.111   2.539  17.922  0.00  0.00    +0.000 C 
BRANCH   8   9
ATOM      9  N   UNL     1      53.309   1.227  18.492  0.00  0.00    +0.000 N 
ATOM     10  C   UNL     1      54.023   0.258  17.827  0.00  0.00    +0.000 C 
ATOM     11  O   UNL     1      54.509   0.434  16.717  0.00  0.00    +0.000 OA
ATOM     12  H   UNL     1      52.977   1.064  19.430  0.00  0.00    +0.000 HD
BRANCH  10  13
ATOM     13  C   UNL     1      54.170  -0.992  18.540  0.00  0.00    +0.000 A 
ATOM     14  C   UNL     1      55.267  -1.755  18.878  0.00  0.00    +0.000 A 
ATOM     15  N   UNL     1      54.898  -2.890  19.552  0.00  0.00    +0.000 NA
ATOM     16  C   UNL     1      53.590  -2.829  19.639  0.00  0.00    +0.000 A 
ATOM     17  N   UNL     1      53.105  -1.694  19.057  0.00  0.00    +0.000 N 
ATOM     18  H   UNL     1      52.136  -1.412  19.002  0.00  0.00    +0.000 HD
ENDBRANCH  10  13
ENDBRANCH   8   9
ENDBRANCH   5   8
ENDBRANCH   1   2
BRANCH   1  21
ATOM     19  C   UNL     1      47.231   4.162  14.840  0.00  0.00    +0.000 C 
ATOM     20  O   UNL     1      47.521   3.005  14.553  0.00  0.00    +0.000 OA
ATOM     21  N   UNL     1      47.179   4.607  16.135  0.00  0.00    +0.000 N 
ATOM     22  H   UNL     1      46.860   5.549  16.333  0.00  0.00    +0.000 HD
BRANCH  19  29
ATOM     23  N   UNL     1      44.858   4.089  10.820  0.00  0.00    +0.000 N 
ATOM     24  C   UNL     1      44.940   5.305  10.173  0.00  0.00    +0.000 A 
ATOM     25  N   UNL     1      45.544   6.356  10.624  0.00  0.00    +0.000 NA
ATOM     26  C   UNL     1      46.157   6.182  11.823  0.00  0.00    +0.000 A 
ATOM     27  S   UNL     1      47.086   7.418  12.530  0.00  0.00    +0.000 S 
ATOM     28  C   UNL     1      47.518   6.420  13.847  0.00  0.00    +0.000 A 
ATOM     29  C   UNL     1      46.944   5.158  13.796  0.00  0.00    +0.000 A 
ATOM     30  C   UNL     1      46.132   5.044  12.605  0.00  0.00    +0.000 A 
ATOM     31  C   UNL     1      45.356   3.926  12.108  0.00  0.00    +0.000 A 
ATOM     32  O   UNL     1      45.117   2.935  12.787  0.00  0.00    +0.000 OA
BRANCH  23  33
ATOM     33  C   UNL     1      44.124   2.979  10.231  0.00  0.00    +0.000 C 
BRANCH  33  35
ATOM     34  C   UNL     1      45.687   1.830   8.635  0.00  0.00    +0.000 C 
ATOM     35  C   UNL     1      44.497   2.763   8.766  0.00  0.00    +0.000 C 
ENDBRANCH  33  35
ENDBRANCH  23  33
ENDBRANCH  19  29
ENDBRANCH   1  21
TORSDOF 8
ENDMDL
MODEL 2
REMARK VINA RESULT:    -8.113      4.073      9.639
REMARK INTER + INTRA:         -12.522
REMARK INTER:                 -11.362
REMARK INTRA:                  -1.161
REMARK UNBOUND:                -0.615
REMARK  Name = 
REMARK  9 active torsions:
REMARK  status: ('A' for Active; 'I' for Inactive)
REMARK    1  A    between atoms: C_1  and  C_2
REMARK    2  A    between atoms: C_2  and  C_3
REMARK    3  A    between atoms: C_3  and  N_4
REMARK    4  A    between atoms: C_10  and  C_11
REMARK    5  A    between atoms: N_13  and  C_14
REMARK    6  A    between atoms: C_14  and  C_15
REMARK    7  A    between atoms: C_18  and  C_19
REMARK    8  A    between atoms: C_19  and  N_20
REMARK    9  A    between atoms: C_21  and  C_23
REMARK                            x       y       z     vdW  Elec       q    Type
REMARK                         _______ _______ _______ _____ _____    ______ ____
ROOT
ATOM      1  C   UNL     1      46.687   8.549  13.007  0.00  0.00    +0.000 C 
ENDROOT
BRANCH   1   2
ATOM      2  C   UNL     1      46.065   7.256  12.531  0.00  0.00    +0.000 A 
ATOM      3  C   UNL     1      46.580   6.027  12.967  0.00  0.00    +0.000 A 
ATOM      4  C   UNL     1      46.009   4.818  12.550  0.00  0.00    +0.000 A 
ATOM      5  C   UNL     1      44.927   4.808  11.659  0.00  0.00    +0.000 A 
ATOM      6  C   UNL     1      44.418   6.036  11.213  0.00  0.00    +0.000 A 
ATOM      7  C   UNL     1      44.987   7.246  11.635  0.00  0.00    +0.000 A 
BRANCH   5   8
ATOM      8  C   UNL     1      44.305   3.510  11.205  0.00  0.00    +0.000 C 
BRANCH   8   9
ATOM      9  N   UNL     1      45.151   2.813  10.266  0.00  0.00    +0.000 N 
ATOM     10  C   UNL     1      45.145   3.126   8.926  0.00  0.00    +0.000 C 
ATOM     11  O   UNL     1      44.416   3.986   8.449  0.00  0.00    +0.000 OA
ATOM     12  H   UNL     1      45.810   2.142  10.631  0.00  0.00    +0.000 HD
BRANCH  10  13
ATOM     13  C   UNL     1      46.074   2.370   8.117  0.00  0.00    +0.000 A 
ATOM     14  C   UNL     1      46.359   1.023   8.028  0.00  0.00    +0.000 A 
ATOM     15  N   UNL     1      47.349   0.781   7.112  0.00  0.00    +0.000 NA
ATOM     16  C   UNL     1      47.669   1.959   6.631  0.00  0.00    +0.000 A 
ATOM     17  N   UNL     1      46.917   2.948   7.195  0.00  0.00    +0.000 N 
ATOM     18  H   UNL     1      46.966   3.936   6.987  0.00  0.00    +0.000 HD
ENDBRANCH  10  13
ENDBRANCH   8   9
ENDBRANCH   5   8
ENDBRANCH   1   2
BRANCH   1  21
ATOM     19  C   UNL     1      48.221   9.001  14.894  0.00  0.00    +0.000 C 
ATOM     20  O   UNL     1      49.065   9.522  14.172  0.00  0.00    +0.000 OA
ATOM     21  N   UNL     1      47.050   8.486  14.401  0.00  0.00    +0.000 N 
ATOM     22  H   UNL     1      46.345   8.134  15.040  0.00  0.00    +0.000 HD
BRANCH  19  29
ATOM     23  N   UNL     1      48.897   5.404  17.791  0.00  0.00    +0.000 N 
ATOM     24  C   UNL     1      48.990   5.831  19.100  0.00  0.00    +0.000 A 
ATOM     25  N   UNL     1      48.951   7.063  19.492  0.00  0.00    +0.000 NA
ATOM     26  C   UNL     1      48.770   7.965  18.494  0.00  0.00    +0.000 A 
ATOM     27  S   UNL     1      48.591   9.624  18.822  0.00  0.00    +0.000 S 
ATOM     28  C   UNL     1      48.347   9.984  17.170  0.00  0.00    +0.000 A 
ATOM     29  C   UNL     1      48.432   8.873  16.344  0.00  0.00    +0.000 A 
ATOM     30  C   UNL     1      48.698   7.697  17.142  0.00  0.00    +0.000 A 
ATOM     31  C   UNL     1      48.852   6.313  16.741  0.00  0.00    +0.000 A 
ATOM     32  O   UNL     1      48.981   5.975  15.570  0.00  0.00    +0.000 OA
BRANCH  23  33
ATOM     33  C   UNL     1      48.984   3.989  17.461  0.00  0.00    +0.000 C 
BRANCH  33  35
ATOM     34  C   UNL     1      50.512   2.020  17.148  0.00  0.00    +0.000 C 
ATOM     35  C   UNL     1      50.394   3.441  17.668  0.00  0.00    +0.000 C 
ENDBRANCH  33  35
ENDBRANCH  23  33
ENDBRANCH  19  29
ENDBRANCH   1  21
TORSDOF 8
ENDMDL
MODEL 3
REMARK VINA RESULT:    -7.924      5.608      9.378
REMARK INTER + INTRA:         -12.245
REMARK INTER:                 -10.903
REMARK INTRA:                  -1.342
REMARK UNBOUND:                -0.615
REMARK  Name = 
REMARK  9 active torsions:
REMARK  status: ('A' for Active; 'I' for Inactive)
REMARK    1  A    between atoms: C_1  and  C_2
REMARK    2  A    between atoms: C_2  and  C_3
REMARK    3  A    between atoms: C_3  and  N_4
REMARK    4  A    between atoms: C_10  and  C_11
REMARK    5  A    between atoms: N_13  and  C_14
REMARK    6  A    between atoms: C_14  and  C_15
REMARK    7  A    between atoms: C_18  and  C_19
REMARK    8  A    between atoms: C_19  and  N_20
REMARK    9  A    between atoms: C_21  and  C_23
REMARK                            x       y       z     vdW  Elec       q    Type
REMARK                         _______ _______ _______ _____ _____    ______ ____
ROOT
ATOM      1  C   UNL     1      47.005   4.625  14.861  0.00  0.00    +0.000 C 
ENDROOT
BRANCH   1   2
ATOM      2  C   UNL     1      46.288   4.513  13.535  0.00  0.00    +0.000 A 
ATOM      3  C   UNL     1      46.016   5.667  12.785  0.00  0.00    +0.000 A 
ATOM      4  C   UNL     1      45.366   5.584  11.547  0.00  0.00    +0.000 A 
ATOM      5  C   UNL     1      44.944   4.347  11.042  0.00  0.00    +0.000 A 
ATOM      6  C   UNL     1      45.205   3.194  11.796  0.00  0.00    +0.000 A 
ATOM      7  C   UNL     1      45.860   3.276  13.033  0.00  0.00    +0.000 A 
BRANCH   5   8
ATOM      8  C   UNL     1      44.244   4.249   9.708  0.00  0.00    +0.000 C 
BRANCH   8   9
ATOM      9  N   UNL     1      45.009   3.475   8.759  0.00  0.00    +0.000 N 
ATOM     10  C   UNL     1      46.051   4.032   8.055  0.00  0.00    +0.000 C 
ATOM     11  O   UNL     1      46.376   5.207   8.168  0.00  0.00    +0.000 OA
ATOM     12  H   UNL     1      44.811   2.489   8.684  0.00  0.00    +0.000 HD
BRANCH  10  13
ATOM     13  C   UNL     1      46.747   3.124   7.171  0.00  0.00    +0.000 A 
ATOM     14  C   UNL     1      47.212   1.835   7.328  0.00  0.00    +0.000 A 
ATOM     15  N   UNL     1      47.837   1.387   6.194  0.00  0.00    +0.000 NA
ATOM     16  C   UNL     1      47.754   2.381   5.340  0.00  0.00    +0.000 A 
ATOM     17  N   UNL     1      47.092   3.446   5.878  0.00  0.00    +0.000 N 
ATOM     18  H   UNL     1      46.891   4.324   5.421  0.00  0.00    +0.000 HD
ENDBRANCH  10  13
ENDBRANCH   8   9
ENDBRANCH   5   8
ENDBRANCH   1   2
BRANCH   1  21
ATOM     19  C   UNL     1      48.731   6.103  15.836  0.00  0.00    +0.000 C 
ATOM     20  O   UNL     1      49.201   5.210  16.533  0.00  0.00    +0.000 OA
ATOM     21  N   UNL     1      47.653   5.904  15.013  0.00  0.00    +0.000 N 
ATOM     22  H   UNL     1      47.345   6.647  14.395  0.00  0.00    +0.000 HD
BRANCH  19  29
ATOM     23  N   UNL     1      50.624   8.921  12.631  0.00  0.00    +0.000 N 
ATOM     24  C   UNL     1      51.047  10.106  13.199  0.00  0.00    +0.000 A 
ATOM     25  N   UNL     1      50.902  10.436  14.441  0.00  0.00    +0.000 NA
ATOM     26  C   UNL     1      50.307   9.489  15.209  0.00  0.00    +0.000 A 
ATOM     27  S   UNL     1      50.120   9.699  16.887  0.00  0.00    +0.000 S 
ATOM     28  C   UNL     1      49.425   8.149  17.062  0.00  0.00    +0.000 A 
ATOM     29  C   UNL     1      49.289   7.464  15.862  0.00  0.00    +0.000 A 
ATOM     30  C   UNL     1      49.799   8.279  14.782  0.00  0.00    +0.000 A 
ATOM     31  C   UNL     1      49.890   7.996  13.364  0.00  0.00    +0.000 A 
ATOM     32  O   UNL     1      49.323   7.042  12.843  0.00  0.00    +0.000 OA
BRANCH  23  33
ATOM     33  C   UNL     1      50.813   8.666  11.211  0.00  0.00    +0.000 C 
BRANCH  33  35
ATOM     34  C   UNL     1      52.371   7.047  10.087  0.00  0.00    +0.000 C 
ATOM     35  C   UNL     1      52.267   8.337  10.879  0.00  0.00    +0.000 C 
ENDBRANCH  33  35
ENDBRANCH  23  33
ENDBRANCH  19  29
ENDBRANCH   1  21
TORSDOF 8
ENDMDL
MODEL 4
REMARK VINA RESULT:    -7.286      4.167      9.807
REMARK INTER + INTRA:         -11.309
REMARK INTER:                 -10.404
REMARK INTRA:                  -0.905
REMARK UNBOUND:                -0.615
REMARK  Name = 
REMARK  9 active torsions:
REMARK  status: ('A' for Active; 'I' for Inactive)
REMARK    1  A    between atoms: C_1  and  C_2
REMARK    2  A    between atoms: C_2  and  C_3
REMARK    3  A    between atoms: C_3  and  N_4
REMARK    4  A    between atoms: C_10  and  C_11
REMARK    5  A    between atoms: N_13  and  C_14
REMARK    6  A    between atoms: C_14  and  C_15
REMARK    7  A    between atoms: C_18  and  C_19
REMARK    8  A    between atoms: C_19  and  N_20
REMARK    9  A    between atoms: C_21  and  C_23
REMARK                            x       y       z     vdW  Elec       q    Type
REMARK                         _______ _______ _______ _____ _____    ______ ____
ROOT
ATOM      1  C   UNL     1      46.934   8.177  13.266  0.00  0.00    +0.000 C 
ENDROOT
BRANCH   1   2
ATOM      2  C   UNL     1      46.208   6.980  12.696  0.00  0.00    +0.000 A 
ATOM      3  C   UNL     1      45.308   7.145  11.633  0.00  0.00    +0.000 A 
ATOM      4  C   UNL     1      44.636   6.047  11.081  0.00  0.00    +0.000 A 
ATOM      5  C   UNL     1      44.825   4.758  11.600  0.00  0.00    +0.000 A 
ATOM      6  C   UNL     1      45.715   4.594  12.670  0.00  0.00    +0.000 A 
ATOM      7  C   UNL     1      46.391   5.692  13.220  0.00  0.00    +0.000 A 
BRANCH   5   8
ATOM      8  C   UNL     1      44.106   3.569  11.010  0.00  0.00    +0.000 C 
BRANCH   8   9
ATOM      9  N   UNL     1      44.964   2.805  10.136  0.00  0.00    +0.000 N 
ATOM     10  C   UNL     1      45.111   3.136   8.809  0.00  0.00    +0.000 C 
ATOM     11  O   UNL     1      44.514   4.068   8.287  0.00  0.00    +0.000 OA
ATOM     12  H   UNL     1      45.519   2.069  10.544  0.00  0.00    +0.000 HD
BRANCH  10  13
ATOM     13  C   UNL     1      46.034   2.303   8.070  0.00  0.00    +0.000 A 
ATOM     14  C   UNL     1      46.241   0.941   8.030  0.00  0.00    +0.000 A 
ATOM     15  N   UNL     1      47.261   0.615   7.175  0.00  0.00    +0.000 NA
ATOM     16  C   UNL     1      47.677   1.758   6.684  0.00  0.00    +0.000 A 
ATOM     17  N   UNL     1      46.958   2.805   7.182  0.00  0.00    +0.000 N 
ATOM     18  H   UNL     1      47.078   3.783   6.953  0.00  0.00    +0.000 HD
ENDBRANCH  10  13
ENDBRANCH   8   9
ENDBRANCH   5   8
ENDBRANCH   1   2
BRANCH   1  21
ATOM     19  C   UNL     1      48.662   8.218  15.035  0.00  0.00    +0.000 C 
ATOM     20  O   UNL     1      47.997   8.947  15.763  0.00  0.00    +0.000 OA
ATOM     21  N   UNL     1      48.224   7.816  13.799  0.00  0.00    +0.000 N 
ATOM     22  H   UNL     1      48.769   7.150  13.262  0.00  0.00    +0.000 HD
BRANCH  19  29
ATOM     23  N   UNL     1      50.216   4.788  17.794  0.00  0.00    +0.000 N 
ATOM     24  C   UNL     1      51.593   4.806  17.881  0.00  0.00    +0.000 A 
ATOM     25  N   UNL     1      52.374   5.622  17.251  0.00  0.00    +0.000 NA
ATOM     26  C   UNL     1      51.730   6.534  16.478  0.00  0.00    +0.000 A 
ATOM     27  S   UNL     1      52.581   7.753  15.653  0.00  0.00    +0.000 S 
ATOM     28  C   UNL     1      51.135   8.440  15.058  0.00  0.00    +0.000 A 
ATOM     29  C   UNL     1      49.995   7.746  15.439  0.00  0.00    +0.000 A 
ATOM     30  C   UNL     1      50.370   6.617  16.261  0.00  0.00    +0.000 A 
ATOM     31  C   UNL     1      49.542   5.618  16.905  0.00  0.00    +0.000 A 
ATOM     32  O   UNL     1      48.351   5.483  16.651  0.00  0.00    +0.000 OA
BRANCH  23  33
ATOM     33  C   UNL     1      49.436   3.802  18.527  0.00  0.00    +0.000 C 
BRANCH  33  35
ATOM     34  C   UNL     1      49.675   4.910  20.769  0.00  0.00    +0.000 C 
ATOM     35  C   UNL     1      48.700   4.425  19.712  0.00  0.00    +0.000 C 
ENDBRANCH  33  35
ENDBRANCH  23  33
ENDBRANCH  19  29
ENDBRANCH   1  21
TORSDOF 8
ENDMDL
MODEL 5
REMARK VINA RESULT:    -7.268      2.071      3.959
REMARK INTER + INTRA:         -11.282
REMARK INTER:                 -10.008
REMARK INTRA:                  -1.274
REMARK UNBOUND:                -0.615
REMARK  Name = 
REMARK  9 active torsions:
REMARK  status: ('A' for Active; 'I' for Inactive)
REMARK    1  A    between atoms: C_1  and  C_2
REMARK    2  A    between atoms: C_2  and  C_3
REMARK    3  A    between atoms: C_3  and  N_4
REMARK    4  A    between atoms: C_10  and  C_11
REMARK    5  A    between atoms: N_13  and  C_14
REMARK    6  A    between atoms: C_14  and  C_15
REMARK    7  A    between atoms: C_18  and  C_19
REMARK    8  A    between atoms: C_19  and  N_20
REMARK    9  A    between atoms: C_21  and  C_23
REMARK                            x       y       z     vdW  Elec       q    Type
REMARK                         _______ _______ _______ _____ _____    ______ ____
ROOT
ATOM      1  C   UNL     1      47.153   3.651  16.829  0.00  0.00    +0.000 C 
ENDROOT
BRANCH   1   2
ATOM      2  C   UNL     1      48.613   3.396  17.123  0.00  0.00    +0.000 A 
ATOM      3  C   UNL     1      49.403   4.408  17.687  0.00  0.00    +0.000 A 
ATOM      4  C   UNL     1      50.755   4.188  17.982  0.00  0.00    +0.000 A 
ATOM      5  C   UNL     1      51.358   2.957  17.690  0.00  0.00    +0.000 A 
ATOM      6  C   UNL     1      50.573   1.948  17.115  0.00  0.00    +0.000 A 
ATOM      7  C   UNL     1      49.220   2.167  16.825  0.00  0.00    +0.000 A 
BRANCH   5   8
ATOM      8  C   UNL     1      52.814   2.711  18.004  0.00  0.00    +0.000 C 
BRANCH   8   9
ATOM      9  N   UNL     1      53.028   1.388  18.541  0.00  0.00    +0.000 N 
ATOM     10  C   UNL     1      53.814   0.468  17.886  0.00  0.00    +0.000 C 
ATOM     11  O   UNL     1      54.353   0.700  16.811  0.00  0.00    +0.000 OA
ATOM     12  H   UNL     1      52.651   1.181  19.453  0.00  0.00    +0.000 HD
BRANCH  10  13
ATOM     13  C   UNL     1      53.966  -0.800  18.564  0.00  0.00    +0.000 A 
ATOM     14  C   UNL     1      55.070  -1.512  18.983  0.00  0.00    +0.000 A 
ATOM     15  N   UNL     1      54.708  -2.694  19.575  0.00  0.00    +0.000 NA
ATOM     16  C   UNL     1      53.396  -2.712  19.533  0.00  0.00    +0.000 A 
ATOM     17  N   UNL     1      52.901  -1.584  18.946  0.00  0.00    +0.000 N 
ATOM     18  H   UNL     1      51.927  -1.356  18.804  0.00  0.00    +0.000 HD
ENDBRANCH  10  13
ENDBRANCH   8   9
ENDBRANCH   5   8
ENDBRANCH   1   2
BRANCH   1  21
ATOM     19  C   UNL     1      47.010   4.343  14.459  0.00  0.00    +0.000 C 
ATOM     20  O   UNL     1      47.223   3.209  14.044  0.00  0.00    +0.000 OA
ATOM     21  N   UNL     1      46.980   4.642  15.796  0.00  0.00    +0.000 N 
ATOM     22  H   UNL     1      46.723   5.576  16.099  0.00  0.00    +0.000 HD
BRANCH  19  29
ATOM     23  N   UNL     1      49.094   8.466  13.792  0.00  0.00    +0.000 N 
ATOM     24  C   UNL     1      48.458   9.190  12.804  0.00  0.00    +0.000 A 
ATOM     25  N   UNL     1      47.449   8.781  12.106  0.00  0.00    +0.000 NA
ATOM     26  C   UNL     1      47.001   7.543  12.436  0.00  0.00    +0.000 A 
ATOM     27  S   UNL     1      45.622   6.875  11.699  0.00  0.00    +0.000 S 
ATOM     28  C   UNL     1      45.711   5.472  12.668  0.00  0.00    +0.000 A 
ATOM     29  C   UNL     1      46.797   5.466  13.533  0.00  0.00    +0.000 A 
ATOM     30  C   UNL     1      47.552   6.687  13.368  0.00  0.00    +0.000 A 
ATOM     31  C   UNL     1      48.744   7.146  14.052  0.00  0.00    +0.000 A 
ATOM     32  O   UNL     1      49.419   6.414  14.766  0.00  0.00    +0.000 OA
BRANCH  23  33
ATOM     33  C   UNL     1      50.244   9.016  14.495  0.00  0.00    +0.000 C 
BRANCH  33  35
ATOM     34  C   UNL     1      52.606   8.236  14.845  0.00  0.00    +0.000 C 
ATOM     35  C   UNL     1      51.560   8.636  13.821  0.00  0.00    +0.000 C 
ENDBRANCH  33  35
ENDBRANCH  23  33
ENDBRANCH  19  29
ENDBRANCH   1  21
TORSDOF 8
ENDMDL
MODEL 6
REMARK VINA RESULT:    -7.187      5.452     10.219
REMARK INTER + INTRA:         -11.164
REMARK INTER:                 -10.252
REMARK INTRA:                  -0.911
REMARK UNBOUND:                -0.615
REMARK  Name = 
REMARK  9 active torsions:
REMARK  status: ('A' for Active; 'I' for Inactive)
REMARK    1  A    between atoms: C_1  and  C_2
REMARK    2  A    between atoms: C_2  and  C_3
REMARK    3  A    between atoms: C_3  and  N_4
REMARK    4  A    between atoms: C_10  and  C_11
REMARK    5  A    between atoms: N_13  and  C_14
REMARK    6  A    between atoms: C_14  and  C_15
REMARK    7  A    between atoms: C_18  and  C_19
REMARK    8  A    between atoms: C_19  and  N_20
REMARK    9  A    between atoms: C_21  and  C_23
REMARK                            x       y       z     vdW  Elec       q    Type
REMARK                         _______ _______ _______ _____ _____    ______ ____
ROOT
ATOM      1  C   UNL     1      46.832   4.665  14.872  0.00  0.00    +0.000 C 
ENDROOT
BRANCH   1   2
ATOM      2  C   UNL     1      46.242   4.629  13.481  0.00  0.00    +0.000 A 
ATOM      3  C   UNL     1      46.350   5.749  12.643  0.00  0.00    +0.000 A 
ATOM      4  C   UNL     1      45.825   5.731  11.345  0.00  0.00    +0.000 A 
ATOM      5  C   UNL     1      45.150   4.601  10.863  0.00  0.00    +0.000 A 
ATOM      6  C   UNL     1      45.031   3.485  11.703  0.00  0.00    +0.000 A 
ATOM      7  C   UNL     1      45.561   3.501  13.000  0.00  0.00    +0.000 A 
BRANCH   5   8
ATOM      8  C   UNL     1      44.581   4.573   9.465  0.00  0.00    +0.000 C 
BRANCH   8   9
ATOM      9  N   UNL     1      45.551   4.108   8.502  0.00  0.00    +0.000 N 
ATOM     10  C   UNL     1      45.654   2.775   8.175  0.00  0.00    +0.000 C 
ATOM     11  O   UNL     1      44.957   1.910   8.689  0.00  0.00    +0.000 OA
ATOM     12  H   UNL     1      46.100   4.798   8.013  0.00  0.00    +0.000 HD
BRANCH  10  13
ATOM     13  C   UNL     1      46.644   2.467   7.168  0.00  0.00    +0.000 A 
ATOM     14  C   UNL     1      47.622   1.498   7.080  0.00  0.00    +0.000 A 
ATOM     15  N   UNL     1      48.342   1.619   5.921  0.00  0.00    +0.000 NA
ATOM     16  C   UNL     1      47.815   2.642   5.292  0.00  0.00    +0.000 A 
ATOM     17  N   UNL     1      46.777   3.179   5.998  0.00  0.00    +0.000 N 
ATOM     18  H   UNL     1      46.203   3.965   5.723  0.00  0.00    +0.000 HD
ENDBRANCH  10  13
ENDBRANCH   8   9
ENDBRANCH   5   8
ENDBRANCH   1   2
BRANCH   1  21
ATOM     19  C   UNL     1      48.750   5.887  15.844  0.00  0.00    +0.000 C 
ATOM     20  O   UNL     1      49.187   4.890  16.408  0.00  0.00    +0.000 OA
ATOM     21  N   UNL     1      47.601   5.863  15.096  0.00  0.00    +0.000 N 
ATOM     22  H   UNL     1      47.316   6.691  14.583  0.00  0.00    +0.000 HD
BRANCH  19  29
ATOM     23  N   UNL     1      49.200   9.044  19.253  0.00  0.00    +0.000 N 
ATOM     24  C   UNL     1      49.910  10.145  18.820  0.00  0.00    +0.000 A 
ATOM     25  N   UNL     1      50.436  10.285  17.646  0.00  0.00    +0.000 NA
ATOM     26  C   UNL     1      50.212   9.245  16.802  0.00  0.00    +0.000 A 
ATOM     27  S   UNL     1      50.737   9.289  15.185  0.00  0.00    +0.000 S 
ATOM     28  C   UNL     1      50.035   7.768  14.855  0.00  0.00    +0.000 A 
ATOM     29  C   UNL     1      49.427   7.187  15.960  0.00  0.00    +0.000 A 
ATOM     30  C   UNL     1      49.558   8.066  17.100  0.00  0.00    +0.000 A 
ATOM     31  C   UNL     1      49.077   7.911  18.457  0.00  0.00    +0.000 A 
ATOM     32  O   UNL     1      48.641   6.848  18.886  0.00  0.00    +0.000 OA
BRANCH  23  33
ATOM     33  C   UNL     1      48.677   8.981  20.610  0.00  0.00    +0.000 C 
BRANCH  33  35
ATOM     34  C   UNL     1      46.474  10.095  20.144  0.00  0.00    +0.000 C 
ATOM     35  C   UNL     1      47.772  10.170  20.927  0.00  0.00    +0.000 C 
ENDBRANCH  33  35
ENDBRANCH  23  33
ENDBRANCH  19  29
ENDBRANCH   1  21
TORSDOF 8
ENDMDL
MODEL 7
REMARK VINA RESULT:    -6.822      2.593      3.928
REMARK INTER + INTRA:         -10.628
REMARK INTER:                  -9.522
REMARK INTRA:                  -1.106
REMARK UNBOUND:                -0.615
REMARK  Name = 
REMARK  9 active torsions:
REMARK  status: ('A' for Active; 'I' for Inactive)
REMARK    1  A    between atoms: C_1  and  C_2
REMARK    2  A    between atoms: C_2  and  C_3
REMARK    3  A    between atoms: C_3  and  N_4
REMARK    4  A    between atoms: C_10  and  C_11
REMARK    5  A    between atoms: N_13  and  C_14
REMARK    6  A    between atoms: C_14  and  C_15
REMARK    7  A    between atoms: C_18  and  C_19
REMARK    8  A    between atoms: C_19  and  N_20
REMARK    9  A    between atoms: C_21  and  C_23
REMARK                            x       y       z     vdW  Elec       q    Type
REMARK                         _______ _______ _______ _____ _____    ______ ____
ROOT
ATOM      1  C   UNL     1      48.596   8.585  15.252  0.00  0.00    +0.000 C 
ENDROOT
BRANCH   1   2
ATOM      2  C   UNL     1      48.631   7.301  16.051  0.00  0.00    +0.000 A 
ATOM      3  C   UNL     1      48.233   6.095  15.457  0.00  0.00    +0.000 A 
ATOM      4  C   UNL     1      48.272   4.892  16.174  0.00  0.00    +0.000 A 
ATOM      5  C   UNL     1      48.681   4.872  17.515  0.00  0.00    +0.000 A 
ATOM      6  C   UNL     1      49.067   6.080  18.113  0.00  0.00    +0.000 A 
ATOM      7  C   UNL     1      49.033   7.282  17.394  0.00  0.00    +0.000 A 
BRANCH   5   8
ATOM      8  C   UNL     1      48.726   3.581  18.295  0.00  0.00    +0.000 C 
BRANCH   8   9
ATOM      9  N   UNL     1      50.061   3.033  18.343  0.00  0.00    +0.000 N 
ATOM     10  C   UNL     1      50.515   2.166  17.376  0.00  0.00    +0.000 C 
ATOM     11  O   UNL     1      49.820   1.791  16.441  0.00  0.00    +0.000 OA
ATOM     12  H   UNL     1      50.683   3.366  19.064  0.00  0.00    +0.000 HD
BRANCH  10  13
ATOM     13  C   UNL     1      51.885   1.733  17.538  0.00  0.00    +0.000 A 
ATOM     14  C   UNL     1      53.045   2.398  17.873  0.00  0.00    +0.000 A 
ATOM     15  N   UNL     1      54.123   1.550  17.883  0.00  0.00    +0.000 NA
ATOM     16  C   UNL     1      53.637   0.373  17.567  0.00  0.00    +0.000 A 
ATOM     17  N   UNL     1      52.289   0.428  17.364  0.00  0.00    +0.000 N 
ATOM     18  H   UNL     1      51.684  -0.344  17.120  0.00  0.00    +0.000 HD
ENDBRANCH  10  13
ENDBRANCH   8   9
ENDBRANCH   5   8
ENDBRANCH   1   2
BRANCH   1  21
ATOM     19  C   UNL     1      47.444   8.781  13.073  0.00  0.00    +0.000 C 
ATOM     20  O   UNL     1      48.495   8.838  12.445  0.00  0.00    +0.000 OA
ATOM     21  N   UNL     1      47.409   8.677  14.440  0.00  0.00    +0.000 N 
ATOM     22  H   UNL     1      46.521   8.554  14.915  0.00  0.00    +0.000 HD
BRANCH  19  29
ATOM     23  N   UNL     1      44.155   5.645  12.004  0.00  0.00    +0.000 N 
ATOM     24  C   UNL     1      43.124   6.228  11.295  0.00  0.00    +0.000 A 
ATOM     25  N   UNL     1      43.034   7.483  10.999  0.00  0.00    +0.000 NA
ATOM     26  C   UNL     1      44.082   8.237  11.418  0.00  0.00    +0.000 A 
ATOM     27  S   UNL     1      44.192   9.891  11.036  0.00  0.00    +0.000 S 
ATOM     28  C   UNL     1      45.711  10.028  11.804  0.00  0.00    +0.000 A 
ATOM     29  C   UNL     1      46.142   8.846  12.390  0.00  0.00    +0.000 A 
ATOM     30  C   UNL     1      45.160   7.809  12.166  0.00  0.00    +0.000 A 
ATOM     31  C   UNL     1      45.168   6.416  12.563  0.00  0.00    +0.000 A 
ATOM     32  O   UNL     1      45.974   5.963  13.368  0.00  0.00    +0.000 OA
BRANCH  23  33
ATOM     33  C   UNL     1      44.139   4.221  12.307  0.00  0.00    +0.000 C 
BRANCH  33  35
ATOM     34  C   UNL     1      44.387   2.950  10.155  0.00  0.00    +0.000 C 
ATOM     35  C   UNL     1      43.420   3.417  11.227  0.00  0.00    +0.000 C 
ENDBRANCH  33  35
ENDBRANCH  23  33
ENDBRANCH  19  29
ENDBRANCH   1  21
TORSDOF 8
ENDMDL
MODEL 8
REMARK VINA RESULT:    -6.369      5.683     10.449
REMARK INTER + INTRA:          -9.963
REMARK INTER:                  -9.431
REMARK INTRA:                  -0.532
REMARK UNBOUND:                -0.615
REMARK  Name = 
REMARK  9 active torsions:
REMARK  status: ('A' for Active; 'I' for Inactive)
REMARK    1  A    between atoms: C_1  and  C_2
REMARK    2  A    between atoms: C_2  and  C_3
REMARK    3  A    between atoms: C_3  and  N_4
REMARK    4  A    between atoms: C_10  and  C_11
REMARK    5  A    between atoms: N_13  and  C_14
REMARK    6  A    between atoms: C_14  and  C_15
REMARK    7  A    between atoms: C_18  and  C_19
REMARK    8  A    between atoms: C_19  and  N_20
REMARK    9  A    between atoms: C_21  and  C_23
REMARK                            x       y       z     vdW  Elec       q    Type
REMARK                         _______ _______ _______ _____ _____    ______ ____
ROOT
ATOM      1  C   UNL     1      47.283   5.258  14.809  0.00  0.00    +0.000 C 
ENDROOT
BRANCH   1   2
ATOM      2  C   UNL     1      46.572   5.047  13.492  0.00  0.00    +0.000 A 
ATOM      3  C   UNL     1      45.953   3.819  13.218  0.00  0.00    +0.000 A 
ATOM      4  C   UNL     1      45.275   3.608  12.011  0.00  0.00    +0.000 A 
ATOM      5  C   UNL     1      45.226   4.611  11.033  0.00  0.00    +0.000 A 
ATOM      6  C   UNL     1      45.854   5.835  11.301  0.00  0.00    +0.000 A 
ATOM      7  C   UNL     1      46.529   6.048  12.512  0.00  0.00    +0.000 A 
BRANCH   5   8
ATOM      8  C   UNL     1      44.497   4.392   9.730  0.00  0.00    +0.000 C 
BRANCH   8   9
ATOM      9  N   UNL     1      45.400   4.000   8.673  0.00  0.00    +0.000 N 
ATOM     10  C   UNL     1      45.711   2.678   8.451  0.00  0.00    +0.000 C 
ATOM     11  O   UNL     1      45.271   1.767   9.140  0.00  0.00    +0.000 OA
ATOM     12  H   UNL     1      45.734   4.716   8.046  0.00  0.00    +0.000 HD
BRANCH  10  13
ATOM     13  C   UNL     1      46.597   2.438   7.334  0.00  0.00    +0.000 A 
ATOM     14  C   UNL     1      47.406   1.376   6.991  0.00  0.00    +0.000 A 
ATOM     15  N   UNL     1      48.086   1.620   5.826  0.00  0.00    +0.000 NA
ATOM     16  C   UNL     1      47.698   2.814   5.445  0.00  0.00    +0.000 A 
ATOM     17  N   UNL     1      46.788   3.343   6.314  0.00  0.00    +0.000 N 
ATOM     18  H   UNL     1      46.333   4.242   6.238  0.00  0.00    +0.000 HD
ENDBRANCH  10  13
ENDBRANCH   8   9
ENDBRANCH   5   8
ENDBRANCH   1   2
BRANCH   1  21
ATOM     19  C   UNL     1      49.010   6.899  15.475  0.00  0.00    +0.000 C 
ATOM     20  O   UNL     1      49.756   6.035  15.922  0.00  0.00    +0.000 OA
ATOM     21  N   UNL     1      47.784   6.604  14.937  0.00  0.00    +0.000 N 
ATOM     22  H   UNL     1      47.231   7.339  14.508  0.00  0.00    +0.000 HD
BRANCH  19  29
ATOM     23  N   UNL     1      50.679   9.749  18.774  0.00  0.00    +0.000 N 
ATOM     24  C   UNL     1      50.808  11.039  18.298  0.00  0.00    +0.000 A 
ATOM     25  N   UNL     1      50.556  11.420  17.088  0.00  0.00    +0.000 NA
ATOM     26  C   UNL     1      50.100  10.436  16.271  0.00  0.00    +0.000 A 
ATOM     27  S   UNL     1      49.619  10.765  14.673  0.00  0.00    +0.000 S 
ATOM     28  C   UNL     1      49.150   9.142  14.419  0.00  0.00    +0.000 A 
ATOM     29  C   UNL     1      49.380   8.322  15.515  0.00  0.00    +0.000 A 
ATOM     30  C   UNL     1      49.955   9.101  16.588  0.00  0.00    +0.000 A 
ATOM     31  C   UNL     1      50.349   8.700  17.924  0.00  0.00    +0.000 A 
ATOM     32  O   UNL     1      50.432   7.525  18.264  0.00  0.00    +0.000 OA
BRANCH  23  33
ATOM     33  C   UNL     1      51.021   9.426  20.151  0.00  0.00    +0.000 C 
BRANCH  33  35
ATOM     34  C   UNL     1      52.698   7.837  21.137  0.00  0.00    +0.000 C 
ATOM     35  C   UNL     1      52.503   9.093  20.307  0.00  0.00    +0.000 C 
ENDBRANCH  33  35
ENDBRANCH  23  33
ENDBRANCH  19  29
ENDBRANCH   1  21
TORSDOF 8
ENDMDL
MODEL 9
REMARK VINA RESULT:    -5.685      2.876      3.480
REMARK INTER + INTRA:          -8.959
REMARK INTER:                  -8.308
REMARK INTRA:                  -0.652
REMARK UNBOUND:                -0.615
REMARK  Name = 
REMARK  9 active torsions:
REMARK  status: ('A' for Active; 'I' for Inactive)
REMARK    1  A    between atoms: C_1  and  C_2
REMARK    2  A    between atoms: C_2  and  C_3
REMARK    3  A    between atoms: C_3  and  N_4
REMARK    4  A    between atoms: C_10  and  C_11
REMARK    5  A    between atoms: N_13  and  C_14
REMARK    6  A    between atoms: C_14  and  C_15
REMARK    7  A    between atoms: C_18  and  C_19
REMARK    8  A    between atoms: C_19  and  N_20
REMARK    9  A    between atoms: C_21  and  C_23
REMARK                            x       y       z     vdW  Elec       q    Type
REMARK                         _______ _______ _______ _____ _____    ______ ____
ROOT
ATOM      1  C   UNL     1      48.115   4.435  16.606  0.00  0.00    +0.000 C 
ENDROOT
BRANCH   1   2
ATOM      2  C   UNL     1      49.438   3.851  17.047  0.00  0.00    +0.000 A 
ATOM      3  C   UNL     1      49.647   2.465  16.988  0.00  0.00    +0.000 A 
ATOM      4  C   UNL     1      50.870   1.904  17.378  0.00  0.00    +0.000 A 
ATOM      5  C   UNL     1      51.905   2.714  17.866  0.00  0.00    +0.000 A 
ATOM      6  C   UNL     1      51.693   4.098  17.937  0.00  0.00    +0.000 A 
ATOM      7  C   UNL     1      50.470   4.660  17.542  0.00  0.00    +0.000 A 
BRANCH   5   8
ATOM      8  C   UNL     1      53.226   2.118  18.287  0.00  0.00    +0.000 C 
BRANCH   8   9
ATOM      9  N   UNL     1      53.137   0.687  18.457  0.00  0.00    +0.000 N 
ATOM     10  C   UNL     1      54.239  -0.122  18.306  0.00  0.00    +0.000 C 
ATOM     11  O   UNL     1      55.342   0.309  17.998  0.00  0.00    +0.000 OA
ATOM     12  H   UNL     1      52.259   0.302  18.771  0.00  0.00    +0.000 HD
BRANCH  10  13
ATOM     13  C   UNL     1      54.003  -1.528  18.545  0.00  0.00    +0.000 A 
ATOM     14  C   UNL     1      54.678  -2.670  18.169  0.00  0.00    +0.000 A 
ATOM     15  N   UNL     1      54.049  -3.798  18.627  0.00  0.00    +0.000 NA
ATOM     16  C   UNL     1      53.001  -3.363  19.287  0.00  0.00    +0.000 A 
ATOM     17  N   UNL     1      52.938  -2.000  19.279  0.00  0.00    +0.000 N 
ATOM     18  H   UNL     1      52.234  -1.426  19.724  0.00  0.00    +0.000 HD
ENDBRANCH  10  13
ENDBRANCH   8   9
ENDBRANCH   5   8
ENDBRANCH   1   2
BRANCH   1  21
ATOM     19  C   UNL     1      47.987   6.027  14.717  0.00  0.00    +0.000 C 
ATOM     20  O   UNL     1      47.602   5.169  13.930  0.00  0.00    +0.000 OA
ATOM     21  N   UNL     1      48.277   5.746  16.028  0.00  0.00    +0.000 N 
ATOM     22  H   UNL     1      48.517   6.499  16.664  0.00  0.00    +0.000 HD
BRANCH  19  29
ATOM     23  N   UNL     1      45.612   8.979  11.991  0.00  0.00    +0.000 N 
ATOM     24  C   UNL     1      46.274  10.184  11.868  0.00  0.00    +0.000 A 
ATOM     25  N   UNL     1      47.380  10.496  12.461  0.00  0.00    +0.000 NA
ATOM     26  C   UNL     1      47.904   9.508  13.231  0.00  0.00    +0.000 A 
ATOM     27  S   UNL     1      49.404   9.694  14.009  0.00  0.00    +0.000 S 
ATOM     28  C   UNL     1      49.348   8.103  14.626  0.00  0.00    +0.000 A 
ATOM     29  C   UNL     1      48.187   7.420  14.288  0.00  0.00    +0.000 A 
ATOM     30  C   UNL     1      47.344   8.272  13.481  0.00  0.00    +0.000 A 
ATOM     31  C   UNL     1      46.053   8.005  12.878  0.00  0.00    +0.000 A 
ATOM     32  O   UNL     1      45.381   7.021  13.166  0.00  0.00    +0.000 OA
BRANCH  23  33
ATOM     33  C   UNL     1      44.354   8.746  11.297  0.00  0.00    +0.000 C 
BRANCH  33  35
ATOM     34  C   UNL     1      42.184   9.825  10.635  0.00  0.00    +0.000 C 
ATOM     35  C   UNL     1      43.655  10.053  10.930  0.00  0.00    +0.000 C 
ENDBRANCH  33  35
ENDBRANCH  23  33
ENDBRANCH  19  29
ENDBRANCH   1  21
TORSDOF 8
ENDMDL
