MODEL 1
REMARK VINA RESULT:    -8.380      0.000      0.000
REMARK INTER + INTRA:         -12.299
REMARK INTER:                 -11.320
REMARK INTRA:                  -0.980
REMARK UNBOUND:                -0.980
REMARK  Name = 
REMARK  6 active torsions:
REMARK  status: ('A' for Active; 'I' for Inactive)
REMARK    1  A    between atoms: C_2  and  C_19
REMARK    2  A    between atoms: N_3  and  C_4
REMARK    3  A    between atoms: C_4  and  C_5
REMARK    4  A    between atoms: C_8  and  O_9
REMARK    5  A    between atoms: O_9  and  C_10
REMARK    6  A    between atoms: C_10  and  C_11
REMARK                            x       y       z     vdW  Elec       q    Type
REMARK                         _______ _______ _______ _____ _____    ______ ____
ROOT
ATOM      1  O   UNL     1      49.772   7.046  14.258  0.00  0.00    +0.000 OA
ATOM      2  C   UNL     1      48.810   6.753  14.964  0.00  0.00    +0.000 C 
ATOM      3  N   UNL     1      47.517   6.870  14.523  0.00  0.00    +0.000 N 
ATOM      4  H   UNL     1      46.756   6.756  15.185  0.00  0.00    +0.000 HD
ENDROOT
BRANCH   2   5
ATOM      5  C   UNL     1      48.990   6.212  16.315  0.00  0.00    +0.000 A 
ATOM      6  C   UNL     1      49.657   6.961  17.275  0.00  0.00    +0.000 A 
ATOM      7  S   UNL     1      49.765   6.189  18.791  0.00  0.00    +0.000 S 
ATOM      8  C   UNL     1      48.886   4.844  18.231  0.00  0.00    +0.000 A 
ATOM      9  N   UNL     1      48.578   3.813  19.061  0.00  0.00    +0.000 NA
ATOM     10  C   UNL     1      47.864   2.884  18.519  0.00  0.00    +0.000 A 
ATOM     11  N   UNL     1      47.446   2.883  17.214  0.00  0.00    +0.000 N 
ATOM     12  C   UNL     1      47.815   3.855  16.315  0.00  0.00    +0.000 A 
ATOM     13  O   UNL     1      47.569   3.744  15.118  0.00  0.00    +0.000 OA
ATOM     14  C   UNL     1      48.553   4.963  16.894  0.00  0.00    +0.000 A 
ATOM     15  H   UNL     1      46.922   2.105  16.839  0.00  0.00    +0.000 HD
ENDBRANCH   2   5
BRANCH   3  16
ATOM     16  C   UNL     1      47.184   7.434  13.241  0.00  0.00    +0.000 C 
BRANCH  16  17
ATOM     17  C   UNL     1      46.406   6.472  12.393  0.00  0.00    +0.000 A 
ATOM     18  C   UNL     1      46.344   6.601  11.003  0.00  0.00    +0.000 A 
ATOM     19  C   UNL     1      45.642   5.661  10.251  0.00  0.00    +0.000 A 
ATOM     20  C   UNL     1      45.033   4.611  10.917  0.00  0.00    +0.000 A 
ATOM     21  N   UNL     1      45.036   4.475  12.260  0.00  0.00    +0.000 NA
ATOM     22  C   UNL     1      45.707   5.414  12.965  0.00  0.00    +0.000 A 
BRANCH  20  23
ATOM     23  O   UNL     1      44.371   3.677  10.144  0.00  0.00    +0.000 OA
BRANCH  23  24
ATOM     24  C   UNL     1      44.503   3.960   8.750  0.00  0.00    +0.000 C 
BRANCH  24  25
ATOM     25  C   UNL     1      45.482   3.000   8.129  0.00  0.00    +0.000 A 
ATOM     26  C   UNL     1      46.393   3.398   7.147  0.00  0.00    +0.000 A 
ATOM     27  C   UNL     1      47.324   2.486   6.658  0.00  0.00    +0.000 A 
ATOM     28  C   UNL     1      47.312   1.197   7.167  0.00  0.00    +0.000 A 
ATOM     29  N   UNL     1      46.442   0.772   8.108  0.00  0.00    +0.000 NA
ATOM     30  C   UNL     1      45.548   1.679   8.562  0.00  0.00    +0.000 A 
ENDBRANCH  24  25
ENDBRANCH  23  24
ENDBRANCH  20  23
ENDBRANCH  16  17
ENDBRANCH   3  16
TORSDOF 6
ENDMDL
MODEL 2
REMARK VINA RESULT:    -7.552      1.661      2.273
REMARK INTER + INTRA:         -11.180
REMARK INTER:                 -10.508
REMARK INTRA:                  -0.672
REMARK UNBOUND:                -0.980
REMARK  Name = 
REMARK  6 active torsions:
REMARK  status: ('A' for Active; 'I' for Inactive)
REMARK    1  A    between atoms: C_2  and  C_19
REMARK    2  A    between atoms: N_3  and  C_4
REMARK    3  A    between atoms: C_4  and  C_5
REMARK    4  A    between atoms: C_8  and  O_9
REMARK    5  A    between atoms: O_9  and  C_10
REMARK    6  A    between atoms: C_10  and  C_11
REMARK                            x       y       z     vdW  Elec       q    Type
REMARK                         _______ _______ _______ _____ _____    ______ ____
ROOT
ATOM      1  O   UNL     1      49.295   8.080  15.392  0.00  0.00    +0.000 OA
ATOM      2  C   UNL     1      48.834   6.955  15.565  0.00  0.00    +0.000 C 
ATOM      3  N   UNL     1      47.948   6.385  14.689  0.00  0.00    +0.000 N 
ATOM      4  H   UNL     1      47.484   5.519  14.946  0.00  0.00    +0.000 HD
ENDROOT
BRANCH   2   5
ATOM      5  C   UNL     1      49.244   6.128  16.706  0.00  0.00    +0.000 A 
ATOM      6  C   UNL     1      48.281   5.556  17.525  0.00  0.00    +0.000 A 
ATOM      7  S   UNL     1      48.930   4.618  18.792  0.00  0.00    +0.000 S 
ATOM      8  C   UNL     1      50.522   4.907  18.263  0.00  0.00    +0.000 A 
ATOM      9  N   UNL     1      51.583   4.341  18.896  0.00  0.00    +0.000 NA
ATOM     10  C   UNL     1      52.728   4.603  18.359  0.00  0.00    +0.000 A 
ATOM     11  N   UNL     1      52.909   5.396  17.257  0.00  0.00    +0.000 N 
ATOM     12  C   UNL     1      51.876   6.066  16.645  0.00  0.00    +0.000 A 
ATOM     13  O   UNL     1      52.085   6.899  15.769  0.00  0.00    +0.000 OA
ATOM     14  C   UNL     1      50.559   5.744  17.163  0.00  0.00    +0.000 A 
ATOM     15  H   UNL     1      53.836   5.594  16.909  0.00  0.00    +0.000 HD
ENDBRANCH   2   5
BRANCH   3  16
ATOM     16  C   UNL     1      47.415   7.094  13.555  0.00  0.00    +0.000 C 
BRANCH  16  17
ATOM     17  C   UNL     1      46.559   6.212  12.696  0.00  0.00    +0.000 A 
ATOM     18  C   UNL     1      46.123   6.616  11.432  0.00  0.00    +0.000 A 
ATOM     19  C   UNL     1      45.362   5.748  10.651  0.00  0.00    +0.000 A 
ATOM     20  C   UNL     1      45.073   4.492  11.158  0.00  0.00    +0.000 A 
ATOM     21  N   UNL     1      45.442   4.081  12.391  0.00  0.00    +0.000 NA
ATOM     22  C   UNL     1      46.161   4.953  13.134  0.00  0.00    +0.000 A 
BRANCH  20  23
ATOM     23  O   UNL     1      44.345   3.641  10.351  0.00  0.00    +0.000 OA
BRANCH  23  24
ATOM     24  C   UNL     1      44.449   4.007   8.973  0.00  0.00    +0.000 C 
BRANCH  24  25
ATOM     25  C   UNL     1      45.445   3.112   8.286  0.00  0.00    +0.000 A 
ATOM     26  C   UNL     1      46.353   3.598   7.342  0.00  0.00    +0.000 A 
ATOM     27  C   UNL     1      47.300   2.740   6.788  0.00  0.00    +0.000 A 
ATOM     28  C   UNL     1      47.307   1.417   7.199  0.00  0.00    +0.000 A 
ATOM     29  N   UNL     1      46.441   0.908   8.101  0.00  0.00    +0.000 NA
ATOM     30  C   UNL     1      45.531   1.763   8.618  0.00  0.00    +0.000 A 
ENDBRANCH  24  25
ENDBRANCH  23  24
ENDBRANCH  20  23
ENDBRANCH  16  17
ENDBRANCH   3  16
TORSDOF 6
ENDMDL
MODEL 3
REMARK VINA RESULT:    -7.448      2.756      3.657
REMARK INTER + INTRA:         -11.041
REMARK INTER:                 -10.385
REMARK INTRA:                  -0.656
REMARK UNBOUND:                -0.980
REMARK  Name = 
REMARK  6 active torsions:
REMARK  status: ('A' for Active; 'I' for Inactive)
REMARK    1  A    between atoms: C_2  and  C_19
REMARK    2  A    between atoms: N_3  and  C_4
REMARK    3  A    between atoms: C_4  and  C_5
REMARK    4  A    between atoms: C_8  and  O_9
REMARK    5  A    between atoms: O_9  and  C_10
REMARK    6  A    between atoms: C_10  and  C_11
REMARK                            x       y       z     vdW  Elec       q    Type
REMARK                         _______ _______ _______ _____ _____    ______ ____
ROOT
ATOM      1  O   UNL     1      47.563   5.132  14.606  0.00  0.00    +0.000 OA
ATOM      2  C   UNL     1      47.555   6.123  13.880  0.00  0.00    +0.000 C 
ATOM      3  N   UNL     1      46.413   6.579  13.276  0.00  0.00    +0.000 N 
ATOM      4  H   UNL     1      46.481   7.309  12.573  0.00  0.00    +0.000 HD
ENDROOT
BRANCH   2   5
ATOM      5  C   UNL     1      48.771   6.913  13.653  0.00  0.00    +0.000 A 
ATOM      6  C   UNL     1      49.105   7.309  12.365  0.00  0.00    +0.000 A 
ATOM      7  S   UNL     1      50.539   8.229  12.283  0.00  0.00    +0.000 S 
ATOM      8  C   UNL     1      50.740   8.167  13.972  0.00  0.00    +0.000 A 
ATOM      9  N   UNL     1      51.772   8.810  14.578  0.00  0.00    +0.000 NA
ATOM     10  C   UNL     1      51.774   8.723  15.866  0.00  0.00    +0.000 A 
ATOM     11  N   UNL     1      50.847   8.035  16.603  0.00  0.00    +0.000 N 
ATOM     12  C   UNL     1      49.844   7.290  16.027  0.00  0.00    +0.000 A 
ATOM     13  O   UNL     1      49.133   6.550  16.699  0.00  0.00    +0.000 OA
ATOM     14  C   UNL     1      49.751   7.418  14.585  0.00  0.00    +0.000 A 
ATOM     15  H   UNL     1      50.927   7.972  17.608  0.00  0.00    +0.000 HD
ENDBRANCH   2   5
BRANCH   3  16
ATOM     16  C   UNL     1      45.158   5.879  13.365  0.00  0.00    +0.000 C 
BRANCH  16  17
ATOM     17  C   UNL     1      44.901   5.036  12.151  0.00  0.00    +0.000 A 
ATOM     18  C   UNL     1      45.354   5.414  10.884  0.00  0.00    +0.000 A 
ATOM     19  C   UNL     1      45.128   4.581   9.790  0.00  0.00    +0.000 A 
ATOM     20  C   UNL     1      44.463   3.384  10.004  0.00  0.00    +0.000 A 
ATOM     21  N   UNL     1      43.974   3.005  11.204  0.00  0.00    +0.000 NA
ATOM     22  C   UNL     1      44.191   3.844  12.243  0.00  0.00    +0.000 A 
BRANCH  20  23
ATOM     23  O   UNL     1      44.280   2.564   8.909  0.00  0.00    +0.000 OA
BRANCH  23  24
ATOM     24  C   UNL     1      45.307   1.573   8.817  0.00  0.00    +0.000 C 
BRANCH  24  25
ATOM     25  C   UNL     1      46.183   1.863   7.628  0.00  0.00    +0.000 A 
ATOM     26  C   UNL     1      45.940   2.939   6.771  0.00  0.00    +0.000 A 
ATOM     27  C   UNL     1      46.823   3.204   5.727  0.00  0.00    +0.000 A 
ATOM     28  C   UNL     1      47.926   2.379   5.574  0.00  0.00    +0.000 A 
ATOM     29  N   UNL     1      48.189   1.325   6.375  0.00  0.00    +0.000 NA
ATOM     30  C   UNL     1      47.312   1.090   7.377  0.00  0.00    +0.000 A 
ENDBRANCH  24  25
ENDBRANCH  23  24
ENDBRANCH  20  23
ENDBRANCH  16  17
ENDBRANCH   3  16
TORSDOF 6
ENDMDL
MODEL 4
REMARK VINA RESULT:    -7.065      2.517      3.096
REMARK INTER + INTRA:         -10.523
REMARK INTER:                  -9.475
REMARK INTRA:                  -1.048
REMARK UNBOUND:                -0.980
REMARK  Name = 
REMARK  6 active torsions:
REMARK  status: ('A' for Active; 'I' for Inactive)
REMARK    1  A    between atoms: C_2  and  C_19
REMARK    2  A    between atoms: N_3  and  C_4
REMARK    3  A    between atoms: C_4  and  C_5
REMARK    4  A    between atoms: C_8  and  O_9
REMARK    5  A    between atoms: O_9  and  C_10
REMARK    6  A    between atoms: C_10  and  C_11
REMARK                            x       y       z     vdW  Elec       q    Type
REMARK                         _______ _______ _______ _____ _____    ______ ____
ROOT
ATOM      1  O   UNL     1      48.082  10.233  12.785  0.00  0.00    +0.000 OA
ATOM      2  C   UNL     1      47.865   9.609  13.820  0.00  0.00    +0.000 C 
ATOM      3  N   UNL     1      46.753   8.824  13.981  0.00  0.00    +0.000 N 
ATOM      4  H   UNL     1      46.542   8.446  14.900  0.00  0.00    +0.000 HD
ENDROOT
BRANCH   2   5
ATOM      5  C   UNL     1      48.814   9.631  14.938  0.00  0.00    +0.000 A 
ATOM      6  C   UNL     1      49.019  10.807  15.647  0.00  0.00    +0.000 A 
ATOM      7  S   UNL     1      50.142  10.652  16.920  0.00  0.00    +0.000 S 
ATOM      8  C   UNL     1      50.362   8.995  16.597  0.00  0.00    +0.000 A 
ATOM      9  N   UNL     1      51.180   8.234  17.371  0.00  0.00    +0.000 NA
ATOM     10  C   UNL     1      51.213   6.985  17.046  0.00  0.00    +0.000 A 
ATOM     11  N   UNL     1      50.516   6.431  16.005  0.00  0.00    +0.000 N 
ATOM     12  C   UNL     1      49.754   7.179  15.138  0.00  0.00    +0.000 A 
ATOM     13  O   UNL     1      49.279   6.689  14.120  0.00  0.00    +0.000 OA
ATOM     14  C   UNL     1      49.622   8.577  15.506  0.00  0.00    +0.000 A 
ATOM     15  H   UNL     1      50.616   5.452  15.777  0.00  0.00    +0.000 HD
ENDBRANCH   2   5
BRANCH   3  16
ATOM     16  C   UNL     1      45.710   8.746  12.992  0.00  0.00    +0.000 C 
BRANCH  16  17
ATOM     17  C   UNL     1      45.508   7.342  12.503  0.00  0.00    +0.000 A 
ATOM     18  C   UNL     1      46.219   6.267  13.042  0.00  0.00    +0.000 A 
ATOM     19  C   UNL     1      45.970   4.973  12.586  0.00  0.00    +0.000 A 
ATOM     20  C   UNL     1      45.004   4.798  11.609  0.00  0.00    +0.000 A 
ATOM     21  N   UNL     1      44.327   5.815  11.036  0.00  0.00    +0.000 NA
ATOM     22  C   UNL     1      44.605   7.060  11.484  0.00  0.00    +0.000 A 
BRANCH  20  23
ATOM     23  O   UNL     1      44.756   3.503  11.198  0.00  0.00    +0.000 OA
BRANCH  23  24
ATOM     24  C   UNL     1      44.146   3.469   9.906  0.00  0.00    +0.000 C 
BRANCH  24  25
ATOM     25  C   UNL     1      45.137   2.965   8.892  0.00  0.00    +0.000 A 
ATOM     26  C   UNL     1      45.781   3.820   7.994  0.00  0.00    +0.000 A 
ATOM     27  C   UNL     1      46.741   3.312   7.124  0.00  0.00    +0.000 A 
ATOM     28  C   UNL     1      47.028   1.957   7.180  0.00  0.00    +0.000 A 
ATOM     29  N   UNL     1      46.421   1.098   8.026  0.00  0.00    +0.000 NA
ATOM     30  C   UNL     1      45.490   1.620   8.856  0.00  0.00    +0.000 A 
ENDBRANCH  24  25
ENDBRANCH  23  24
ENDBRANCH  20  23
ENDBRANCH  16  17
ENDBRANCH   3  16
TORSDOF 6
ENDMDL
MODEL 5
REMARK VINA RESULT:    -7.016      3.132      4.414
REMARK INTER + INTRA:         -10.456
REMARK INTER:                  -9.472
REMARK INTRA:                  -0.985
REMARK UNBOUND:                -0.980
REMARK  Name = 
REMARK  6 active torsions:
REMARK  status: ('A' for Active; 'I' for Inactive)
REMARK    1  A    between atoms: C_2  and  C_19
REMARK    2  A    between atoms: N_3  and  C_4
REMARK    3  A    between atoms: C_4  and  C_5
REMARK    4  A    between atoms: C_8  and  O_9
REMARK    5  A    between atoms: O_9  and  C_10
REMARK    6  A    between atoms: C_10  and  C_11
REMARK                            x       y       z     vdW  Elec       q    Type
REMARK                         _______ _______ _______ _____ _____    ______ ____
ROOT
ATOM      1  O   UNL     1      47.946   8.682  13.465  0.00  0.00    +0.000 OA
ATOM      2  C   UNL     1      48.825   7.841  13.294  0.00  0.00    +0.000 C 
ATOM      3  N   UNL     1      48.620   6.509  13.538  0.00  0.00    +0.000 N 
ATOM      4  H   UNL     1      49.412   5.874  13.523  0.00  0.00    +0.000 HD
ENDROOT
BRANCH   2   5
ATOM      5  C   UNL     1      50.145   8.212  12.770  0.00  0.00    +0.000 A 
ATOM      6  C   UNL     1      50.264   8.675  11.467  0.00  0.00    +0.000 A 
ATOM      7  S   UNL     1      51.863   9.072  11.026  0.00  0.00    +0.000 S 
ATOM      8  C   UNL     1      52.446   8.680  12.576  0.00  0.00    +0.000 A 
ATOM      9  N   UNL     1      53.757   8.842  12.892  0.00  0.00    +0.000 NA
ATOM     10  C   UNL     1      54.051   8.556  14.116  0.00  0.00    +0.000 A 
ATOM     11  N   UNL     1      53.156   8.103  15.049  0.00  0.00    +0.000 N 
ATOM     12  C   UNL     1      51.842   7.832  14.747  0.00  0.00    +0.000 A 
ATOM     13  O   UNL     1      51.105   7.271  15.551  0.00  0.00    +0.000 OA
ATOM     14  C   UNL     1      51.442   8.211  13.404  0.00  0.00    +0.000 A 
ATOM     15  H   UNL     1      53.458   7.858  15.981  0.00  0.00    +0.000 HD
ENDBRANCH   2   5
BRANCH   3  16
ATOM     16  C   UNL     1      47.395   6.004  14.102  0.00  0.00    +0.000 C 
BRANCH  16  17
ATOM     17  C   UNL     1      46.521   5.368  13.062  0.00  0.00    +0.000 A 
ATOM     18  C   UNL     1      46.113   6.063  11.921  0.00  0.00    +0.000 A 
ATOM     19  C   UNL     1      45.334   5.420  10.960  0.00  0.00    +0.000 A 
ATOM     20  C   UNL     1      45.000   4.092  11.169  0.00  0.00    +0.000 A 
ATOM     21  N   UNL     1      45.341   3.400  12.277  0.00  0.00    +0.000 NA
ATOM     22  C   UNL     1      46.079   4.057  13.201  0.00  0.00    +0.000 A 
BRANCH  20  23
ATOM     23  O   UNL     1      44.254   3.471  10.187  0.00  0.00    +0.000 OA
BRANCH  23  24
ATOM     24  C   UNL     1      44.558   3.988   8.889  0.00  0.00    +0.000 C 
BRANCH  24  25
ATOM     25  C   UNL     1      45.493   3.048   8.177  0.00  0.00    +0.000 A 
ATOM     26  C   UNL     1      46.297   3.466   7.112  0.00  0.00    +0.000 A 
ATOM     27  C   UNL     1      47.196   2.573   6.534  0.00  0.00    +0.000 A 
ATOM     28  C   UNL     1      47.260   1.285   7.041  0.00  0.00    +0.000 A 
ATOM     29  N   UNL     1      46.494   0.842   8.060  0.00  0.00    +0.000 NA
ATOM     30  C   UNL     1      45.628   1.730   8.599  0.00  0.00    +0.000 A 
ENDBRANCH  24  25
ENDBRANCH  23  24
ENDBRANCH  20  23
ENDBRANCH  16  17
ENDBRANCH   3  16
TORSDOF 6
ENDMDL
MODEL 6
REMARK VINA RESULT:    -7.012      3.516      5.489
REMARK INTER + INTRA:         -10.451
REMARK INTER:                  -9.619
REMARK INTRA:                  -0.832
REMARK UNBOUND:                -0.980
REMARK  Name = 
REMARK  6 active torsions:
REMARK  status: ('A' for Active; 'I' for Inactive)
REMARK    1  A    between atoms: C_2  and  C_19
REMARK    2  A    between atoms: N_3  and  C_4
REMARK    3  A    between atoms: C_4  and  C_5
REMARK    4  A    between atoms: C_8  and  O_9
REMARK    5  A    between atoms: O_9  and  C_10
REMARK    6  A    between atoms: C_10  and  C_11
REMARK                            x       y       z     vdW  Elec       q    Type
REMARK                         _______ _______ _______ _____ _____    ______ ____
ROOT
ATOM      1  O   UNL     1      48.427   9.007  14.169  0.00  0.00    +0.000 OA
ATOM      2  C   UNL     1      49.067   8.300  13.396  0.00  0.00    +0.000 C 
ATOM      3  N   UNL     1      48.734   6.993  13.154  0.00  0.00    +0.000 N 
ATOM      4  H   UNL     1      49.373   6.408  12.625  0.00  0.00    +0.000 HD
ENDROOT
BRANCH   2   5
ATOM      5  C   UNL     1      50.211   8.830  12.645  0.00  0.00    +0.000 A 
ATOM      6  C   UNL     1      51.482   8.321  12.873  0.00  0.00    +0.000 A 
ATOM      7  S   UNL     1      52.690   9.039  11.907  0.00  0.00    +0.000 S 
ATOM      8  C   UNL     1      51.549  10.025  11.118  0.00  0.00    +0.000 A 
ATOM      9  N   UNL     1      51.923  10.866  10.118  0.00  0.00    +0.000 NA
ATOM     10  C   UNL     1      50.950  11.515   9.573  0.00  0.00    +0.000 A 
ATOM     11  N   UNL     1      49.637  11.414   9.950  0.00  0.00    +0.000 N 
ATOM     12  C   UNL     1      49.226  10.650  11.017  0.00  0.00    +0.000 A 
ATOM     13  O   UNL     1      48.075  10.708  11.438  0.00  0.00    +0.000 OA
ATOM     14  C   UNL     1      50.272   9.840  11.615  0.00  0.00    +0.000 A 
ATOM     15  H   UNL     1      48.926  11.980   9.509  0.00  0.00    +0.000 HD
ENDBRANCH   2   5
BRANCH   3  16
ATOM     16  C   UNL     1      47.670   6.322  13.856  0.00  0.00    +0.000 C 
BRANCH  16  17
ATOM     17  C   UNL     1      46.715   5.653  12.913  0.00  0.00    +0.000 A 
ATOM     18  C   UNL     1      46.373   6.224  11.684  0.00  0.00    +0.000 A 
ATOM     19  C   UNL     1      45.512   5.547  10.821  0.00  0.00    +0.000 A 
ATOM     20  C   UNL     1      45.031   4.309  11.214  0.00  0.00    +0.000 A 
ATOM     21  N   UNL     1      45.305   3.745  12.409  0.00  0.00    +0.000 NA
ATOM     22  C   UNL     1      46.126   4.434  13.234  0.00  0.00    +0.000 A 
BRANCH  20  23
ATOM     23  O   UNL     1      44.205   3.647  10.326  0.00  0.00    +0.000 OA
BRANCH  23  24
ATOM     24  C   UNL     1      44.441   4.062   8.979  0.00  0.00    +0.000 C 
BRANCH  24  25
ATOM     25  C   UNL     1      45.369   3.087   8.306  0.00  0.00    +0.000 A 
ATOM     26  C   UNL     1      46.228   3.472   7.272  0.00  0.00    +0.000 A 
ATOM     27  C   UNL     1      47.116   2.545   6.732  0.00  0.00    +0.000 A 
ATOM     28  C   UNL     1      47.115   1.257   7.244  0.00  0.00    +0.000 A 
ATOM     29  N   UNL     1      46.295   0.846   8.233  0.00  0.00    +0.000 NA
ATOM     30  C   UNL     1      45.441   1.766   8.736  0.00  0.00    +0.000 A 
ENDBRANCH  24  25
ENDBRANCH  23  24
ENDBRANCH  20  23
ENDBRANCH  16  17
ENDBRANCH   3  16
TORSDOF 6
ENDMDL
MODEL 7
REMARK VINA RESULT:    -6.830      3.829      8.606
REMARK INTER + INTRA:         -10.206
REMARK INTER:                  -9.260
REMARK INTRA:                  -0.945
REMARK UNBOUND:                -0.980
REMARK  Name = 
REMARK  6 active torsions:
REMARK  status: ('A' for Active; 'I' for Inactive)
REMARK    1  A    between atoms: C_2  and  C_19
REMARK    2  A    between atoms: N_3  and  C_4
REMARK    3  A    between atoms: C_4  and  C_5
REMARK    4  A    between atoms: C_8  and  O_9
REMARK    5  A    between atoms: O_9  and  C_10
REMARK    6  A    between atoms: C_10  and  C_11
REMARK                            x       y       z     vdW  Elec       q    Type
REMARK                         _______ _______ _______ _____ _____    ______ ____
ROOT
ATOM      1  O   UNL     1      47.260   3.104  14.035  0.00  0.00    +0.000 OA
ATOM      2  C   UNL     1      46.828   4.154  14.503  0.00  0.00    +0.000 C 
ATOM      3  N   UNL     1      46.801   4.397  15.852  0.00  0.00    +0.000 N 
ATOM      4  H   UNL     1      46.304   5.212  16.199  0.00  0.00    +0.000 HD
ENDROOT
BRANCH   2   5
ATOM      5  C   UNL     1      46.353   5.239  13.637  0.00  0.00    +0.000 A 
ATOM      6  C   UNL     1      47.189   6.310  13.352  0.00  0.00    +0.000 A 
ATOM      7  S   UNL     1      46.485   7.472  12.321  0.00  0.00    +0.000 S 
ATOM      8  C   UNL     1      45.054   6.562  12.183  0.00  0.00    +0.000 A 
ATOM      9  N   UNL     1      44.033   6.979  11.389  0.00  0.00    +0.000 NA
ATOM     10  C   UNL     1      43.030   6.168  11.337  0.00  0.00    +0.000 A 
ATOM     11  N   UNL     1      42.947   4.985  12.024  0.00  0.00    +0.000 N 
ATOM     12  C   UNL     1      43.911   4.572  12.912  0.00  0.00    +0.000 A 
ATOM     13  O   UNL     1      43.736   3.598  13.637  0.00  0.00    +0.000 OA
ATOM     14  C   UNL     1      45.095   5.411  12.948  0.00  0.00    +0.000 A 
ATOM     15  H   UNL     1      42.116   4.414  11.971  0.00  0.00    +0.000 HD
ENDBRANCH   2   5
BRANCH   3  16
ATOM     16  C   UNL     1      47.185   3.408  16.825  0.00  0.00    +0.000 C 
BRANCH  16  17
ATOM     17  C   UNL     1      48.643   3.495  17.163  0.00  0.00    +0.000 A 
ATOM     18  C   UNL     1      49.485   2.383  17.075  0.00  0.00    +0.000 A 
ATOM     19  C   UNL     1      50.843   2.518  17.361  0.00  0.00    +0.000 A 
ATOM     20  C   UNL     1      51.317   3.770  17.713  0.00  0.00    +0.000 A 
ATOM     21  N   UNL     1      50.529   4.858  17.848  0.00  0.00    +0.000 NA
ATOM     22  C   UNL     1      49.213   4.692  17.585  0.00  0.00    +0.000 A 
BRANCH  20  23
ATOM     23  O   UNL     1      52.672   3.882  17.959  0.00  0.00    +0.000 OA
BRANCH  23  24
ATOM     24  C   UNL     1      53.078   5.249  18.055  0.00  0.00    +0.000 C 
BRANCH  24  25
ATOM     25  C   UNL     1      53.879   5.624  16.838  0.00  0.00    +0.000 A 
ATOM     26  C   UNL     1      55.056   4.956  16.488  0.00  0.00    +0.000 A 
ATOM     27  C   UNL     1      55.721   5.298  15.313  0.00  0.00    +0.000 A 
ATOM     28  C   UNL     1      55.185   6.302  14.523  0.00  0.00    +0.000 A 
ATOM     29  N   UNL     1      54.057   6.977  14.832  0.00  0.00    +0.000 NA
ATOM     30  C   UNL     1      53.436   6.626  15.980  0.00  0.00    +0.000 A 
ENDBRANCH  24  25
ENDBRANCH  23  24
ENDBRANCH  20  23
ENDBRANCH  16  17
ENDBRANCH   3  16
TORSDOF 6
ENDMDL
MODEL 8
REMARK VINA RESULT:    -6.362      3.736      4.798
REMARK INTER + INTRA:          -9.573
REMARK INTER:                  -8.585
REMARK INTRA:                  -0.988
REMARK UNBOUND:                -0.980
REMARK  Name = 
REMARK  6 active torsions:
REMARK  status: ('A' for Active; 'I' for Inactive)
REMARK    1  A    between atoms: C_2  and  C_19
REMARK    2  A    between atoms: N_3  and  C_4
REMARK    3  A    between atoms: C_4  and  C_5
REMARK    4  A    between atoms: C_8  and  O_9
REMARK    5  A    between atoms: O_9  and  C_10
REMARK    6  A    between atoms: C_10  and  C_11
REMARK                            x       y       z     vdW  Elec       q    Type
REMARK                         _______ _______ _______ _____ _____    ______ ____
ROOT
ATOM      1  O   UNL     1      48.000   9.974  11.376  0.00  0.00    +0.000 OA
ATOM      2  C   UNL     1      48.351   9.623  12.500  0.00  0.00    +0.000 C 
ATOM      3  N   UNL     1      47.495   9.006  13.374  0.00  0.00    +0.000 N 
ATOM      4  H   UNL     1      47.785   8.867  14.337  0.00  0.00    +0.000 HD
ENDROOT
BRANCH   2   5
ATOM      5  C   UNL     1      49.732   9.804  12.960  0.00  0.00    +0.000 A 
ATOM      6  C   UNL     1      50.014  10.743  13.943  0.00  0.00    +0.000 A 
ATOM      7  S   UNL     1      51.664  10.813  14.369  0.00  0.00    +0.000 S 
ATOM      8  C   UNL     1      52.053   9.560  13.285  0.00  0.00    +0.000 A 
ATOM      9  N   UNL     1      53.324   9.089  13.187  0.00  0.00    +0.000 NA
ATOM     10  C   UNL     1      53.467   8.104  12.365  0.00  0.00    +0.000 A 
ATOM     11  N   UNL     1      52.457   7.559  11.617  0.00  0.00    +0.000 N 
ATOM     12  C   UNL     1      51.179   8.067  11.611  0.00  0.00    +0.000 A 
ATOM     13  O   UNL     1      50.339   7.670  10.810  0.00  0.00    +0.000 OA
ATOM     14  C   UNL     1      50.948   9.125  12.577  0.00  0.00    +0.000 A 
ATOM     15  H   UNL     1      52.643   6.814  10.960  0.00  0.00    +0.000 HD
ENDBRANCH   2   5
BRANCH   3  16
ATOM     16  C   UNL     1      46.099   8.809  13.081  0.00  0.00    +0.000 C 
BRANCH  16  17
ATOM     17  C   UNL     1      45.821   7.415  12.602  0.00  0.00    +0.000 A 
ATOM     18  C   UNL     1      46.464   6.305  13.157  0.00  0.00    +0.000 A 
ATOM     19  C   UNL     1      46.145   5.024  12.709  0.00  0.00    +0.000 A 
ATOM     20  C   UNL     1      45.178   4.895  11.726  0.00  0.00    +0.000 A 
ATOM     21  N   UNL     1      44.565   5.945  11.137  0.00  0.00    +0.000 NA
ATOM     22  C   UNL     1      44.911   7.176  11.578  0.00  0.00    +0.000 A 
BRANCH  20  23
ATOM     23  O   UNL     1      44.859   3.613  11.324  0.00  0.00    +0.000 OA
BRANCH  23  24
ATOM     24  C   UNL     1      44.225   3.606  10.043  0.00  0.00    +0.000 C 
BRANCH  24  25
ATOM     25  C   UNL     1      45.231   3.244   8.984  0.00  0.00    +0.000 A 
ATOM     26  C   UNL     1      45.653   1.927   8.780  0.00  0.00    +0.000 A 
ATOM     27  C   UNL     1      46.532   1.637   7.739  0.00  0.00    +0.000 A 
ATOM     28  C   UNL     1      46.964   2.679   6.934  0.00  0.00    +0.000 A 
ATOM     29  N   UNL     1      46.587   3.964   7.105  0.00  0.00    +0.000 NA
ATOM     30  C   UNL     1      45.736   4.215   8.125  0.00  0.00    +0.000 A 
ENDBRANCH  24  25
ENDBRANCH  23  24
ENDBRANCH  20  23
ENDBRANCH  16  17
ENDBRANCH   3  16
TORSDOF 6
ENDMDL
MODEL 9
REMARK VINA RESULT:    -6.104      3.943      9.452
REMARK INTER + INTRA:          -9.224
REMARK INTER:                  -8.316
REMARK INTRA:                  -0.908
REMARK UNBOUND:                -0.980
REMARK  Name = 
REMARK  6 active torsions:
REMARK  status: ('A' for Active; 'I' for Inactive)
REMARK    1  A    between atoms: C_2  and  C_19
REMARK    2  A    between atoms: N_3  and  C_4
REMARK    3  A    between atoms: C_4  and  C_5
REMARK    4  A    between atoms: C_8  and  O_9
REMARK    5  A    between atoms: O_9  and  C_10
REMARK    6  A    between atoms: C_10  and  C_11
REMARK                            x       y       z     vdW  Elec       q    Type
REMARK                         _______ _______ _______ _____ _____    ______ ____
ROOT
ATOM      1  O   UNL     1      47.003   3.221  13.611  0.00  0.00    +0.000 OA
ATOM      2  C   UNL     1      46.666   4.287  14.120  0.00  0.00    +0.000 C 
ATOM      3  N   UNL     1      46.924   4.585  15.433  0.00  0.00    +0.000 N 
ATOM      4  H   UNL     1      46.500   5.411  15.846  0.00  0.00    +0.000 HD
ENDROOT
BRANCH   2   5
ATOM      5  C   UNL     1      46.001   5.332  13.334  0.00  0.00    +0.000 A 
ATOM      6  C   UNL     1      46.696   6.483  12.989  0.00  0.00    +0.000 A 
ATOM      7  S   UNL     1      45.780   7.585  12.064  0.00  0.00    +0.000 S 
ATOM      8  C   UNL     1      44.435   6.542  12.055  0.00  0.00    +0.000 A 
ATOM      9  N   UNL     1      43.301   6.868  11.381  0.00  0.00    +0.000 NA
ATOM     10  C   UNL     1      42.380   5.964  11.415  0.00  0.00    +0.000 A 
ATOM     11  N   UNL     1      42.483   4.770  12.078  0.00  0.00    +0.000 N 
ATOM     12  C   UNL     1      43.571   4.441  12.852  0.00  0.00    +0.000 A 
ATOM     13  O   UNL     1      43.567   3.445  13.568  0.00  0.00    +0.000 OA
ATOM     14  C   UNL     1      44.667   5.390  12.784  0.00  0.00    +0.000 A 
ATOM     15  H   UNL     1      41.709   4.122  12.099  0.00  0.00    +0.000 HD
ENDBRANCH   2   5
BRANCH   3  16
ATOM     16  C   UNL     1      47.521   3.640  16.339  0.00  0.00    +0.000 C 
BRANCH  16  17
ATOM     17  C   UNL     1      47.899   4.278  17.643  0.00  0.00    +0.000 A 
ATOM     18  C   UNL     1      49.079   3.940  18.312  0.00  0.00    +0.000 A 
ATOM     19  C   UNL     1      49.410   4.587  19.501  0.00  0.00    +0.000 A 
ATOM     20  C   UNL     1      48.552   5.565  19.976  0.00  0.00    +0.000 A 
ATOM     21  N   UNL     1      47.385   5.890  19.380  0.00  0.00    +0.000 NA
ATOM     22  C   UNL     1      47.080   5.230  18.240  0.00  0.00    +0.000 A 
BRANCH  20  23
ATOM     23  O   UNL     1      48.921   6.212  21.139  0.00  0.00    +0.000 OA
BRANCH  23  24
ATOM     24  C   UNL     1      50.119   6.970  20.961  0.00  0.00    +0.000 C 
BRANCH  24  25
ATOM     25  C   UNL     1      49.826   8.194  20.137  0.00  0.00    +0.000 A 
ATOM     26  C   UNL     1      50.409   8.404  18.884  0.00  0.00    +0.000 A 
ATOM     27  C   UNL     1      50.049   9.518  18.132  0.00  0.00    +0.000 A 
ATOM     28  C   UNL     1      49.113  10.393  18.660  0.00  0.00    +0.000 A 
ATOM     29  N   UNL     1      48.534  10.231  19.869  0.00  0.00    +0.000 NA
ATOM     30  C   UNL     1      48.907   9.141  20.578  0.00  0.00    +0.000 A 
ENDBRANCH  24  25
ENDBRANCH  23  24
ENDBRANCH  20  23
ENDBRANCH  16  17
ENDBRANCH   3  16
TORSDOF 6
ENDMDL
