MODEL 1
REMARK VINA RESULT:    -7.448      0.000      0.000
REMARK INTER + INTRA:         -10.445
REMARK INTER:                  -9.625
REMARK INTRA:                  -0.820
REMARK UNBOUND:                -0.820
REMARK  Name = 
REMARK  6 active torsions:
REMARK  status: ('A' for Active; 'I' for Inactive)
REMARK    1  A    between atoms: C_1  and  N_2
REMARK    2  A    between atoms: N_2  and  C_3
REMARK    3  A    between atoms: C_3  and  C_4
REMARK    4  A    between atoms: C_7  and  C_8
REMARK    5  A    between atoms: C_8  and  C_9
REMARK    6  A    between atoms: C_17  and  C_19
REMARK                            x       y       z     vdW  Elec       q    Type
REMARK                         _______ _______ _______ _____ _____    ______ ____
ROOT
ATOM      1  C   UNL     1      49.009   7.148  12.464  0.00  0.00    +0.000 C 
ATOM      2  N   UNL     1      48.425   6.780  13.751  0.00  0.00    +0.000 N 
ATOM      3  C   UNL     1      49.299   6.915  14.846  0.00  0.00    +0.000 C 
ATOM      4  O   UNL     1      50.515   6.985  14.663  0.00  0.00    +0.000 OA
ENDROOT
BRANCH   3   5
ATOM      5  C   UNL     1      48.778   7.106  16.212  0.00  0.00    +0.000 A 
ATOM      6  C   UNL     1      48.634   8.321  16.862  0.00  0.00    +0.000 A 
ATOM      7  S   UNL     1      48.296   8.179  18.531  0.00  0.00    +0.000 S 
ATOM      8  C   UNL     1      48.404   6.486  18.455  0.00  0.00    +0.000 A 
ATOM      9  N   UNL     1      48.362   5.730  19.582  0.00  0.00    +0.000 NA
ATOM     10  C   UNL     1      48.477   4.460  19.367  0.00  0.00    +0.000 A 
ATOM     11  N   UNL     1      48.583   3.882  18.123  0.00  0.00    +0.000 N 
ATOM     12  C   UNL     1      48.512   4.604  16.957  0.00  0.00    +0.000 A 
ATOM     13  O   UNL     1      48.349   4.054  15.874  0.00  0.00    +0.000 OA
ATOM     14  C   UNL     1      48.543   6.039  17.157  0.00  0.00    +0.000 A 
ATOM     15  H   UNL     1      48.553   2.878  18.027  0.00  0.00    +0.000 HD
ENDBRANCH   3   5
BRANCH   2  16
ATOM     16  C   UNL     1      46.974   6.658  13.878  0.00  0.00    +0.000 C 
BRANCH  16  17
ATOM     17  C   UNL     1      46.265   5.908  12.783  0.00  0.00    +0.000 A 
ATOM     18  C   UNL     1      45.967   4.549  12.912  0.00  0.00    +0.000 A 
ATOM     19  C   UNL     1      45.335   3.868  11.870  0.00  0.00    +0.000 A 
ATOM     20  C   UNL     1      45.007   4.533  10.678  0.00  0.00    +0.000 A 
ATOM     21  C   UNL     1      45.282   5.900  10.563  0.00  0.00    +0.000 A 
ATOM     22  C   UNL     1      45.901   6.581  11.607  0.00  0.00    +0.000 A 
BRANCH  20  23
ATOM     23  C   UNL     1      44.343   3.796   9.541  0.00  0.00    +0.000 C 
BRANCH  23  24
ATOM     24  C   UNL     1      45.312   3.039   8.690  0.00  0.00    +0.000 A 
ATOM     25  C   UNL     1      45.488   1.674   8.798  0.00  0.00    +0.000 A 
ATOM     26  N   UNL     1      46.384   0.973   8.077  0.00  0.00    +0.000 NA
ATOM     27  C   UNL     1      47.131   1.691   7.225  0.00  0.00    +0.000 A 
ATOM     28  N   UNL     1      47.054   3.016   7.030  0.00  0.00    +0.000 NA
ATOM     29  C   UNL     1      46.140   3.662   7.778  0.00  0.00    +0.000 A 
ENDBRANCH  23  24
ENDBRANCH  20  23
ENDBRANCH  16  17
ENDBRANCH   2  16
TORSDOF 5
ENDMDL
MODEL 2
REMARK VINA RESULT:    -7.163      2.752      3.939
REMARK INTER + INTRA:         -10.077
REMARK INTER:                  -9.281
REMARK INTRA:                  -0.796
REMARK UNBOUND:                -0.820
REMARK  Name = 
REMARK  6 active torsions:
REMARK  status: ('A' for Active; 'I' for Inactive)
REMARK    1  A    between atoms: C_1  and  N_2
REMARK    2  A    between atoms: N_2  and  C_3
REMARK    3  A    between atoms: C_3  and  C_4
REMARK    4  A    between atoms: C_7  and  C_8
REMARK    5  A    between atoms: C_8  and  C_9
REMARK    6  A    between atoms: C_17  and  C_19
REMARK                            x       y       z     vdW  Elec       q    Type
REMARK                         _______ _______ _______ _____ _____    ______ ____
ROOT
ATOM      1  C   UNL     1      46.955   4.594  14.293  0.00  0.00    +0.000 C 
ATOM      2  N   UNL     1      46.969   6.018  13.970  0.00  0.00    +0.000 N 
ATOM      3  C   UNL     1      48.221   6.638  14.135  0.00  0.00    +0.000 C 
ATOM      4  O   UNL     1      49.093   6.104  14.821  0.00  0.00    +0.000 OA
ENDROOT
BRANCH   3   5
ATOM      5  C   UNL     1      48.562   7.865  13.392  0.00  0.00    +0.000 A 
ATOM      6  C   UNL     1      48.862   7.938  12.041  0.00  0.00    +0.000 A 
ATOM      7  S   UNL     1      49.508   9.442  11.552  0.00  0.00    +0.000 S 
ATOM      8  C   UNL     1      49.477  10.023  13.148  0.00  0.00    +0.000 A 
ATOM      9  N   UNL     1      50.038  11.218  13.470  0.00  0.00    +0.000 NA
ATOM     10  C   UNL     1      49.955  11.516  14.725  0.00  0.00    +0.000 A 
ATOM     11  N   UNL     1      49.320  10.747  15.673  0.00  0.00    +0.000 N 
ATOM     12  C   UNL     1      48.644   9.593  15.366  0.00  0.00    +0.000 A 
ATOM     13  O   UNL     1      47.878   9.068  16.166  0.00  0.00    +0.000 OA
ATOM     14  C   UNL     1      48.846   9.143  14.003  0.00  0.00    +0.000 A 
ATOM     15  H   UNL     1      49.196  11.098  16.610  0.00  0.00    +0.000 HD
ENDBRANCH   3   5
BRANCH   2  16
ATOM     16  C   UNL     1      45.869   6.596  13.202  0.00  0.00    +0.000 C 
BRANCH  16  17
ATOM     17  C   UNL     1      45.464   5.861  11.952  0.00  0.00    +0.000 A 
ATOM     18  C   UNL     1      44.458   4.891  11.976  0.00  0.00    +0.000 A 
ATOM     19  C   UNL     1      44.121   4.203  10.810  0.00  0.00    +0.000 A 
ATOM     20  C   UNL     1      44.795   4.463   9.607  0.00  0.00    +0.000 A 
ATOM     21  C   UNL     1      45.782   5.455   9.580  0.00  0.00    +0.000 A 
ATOM     22  C   UNL     1      46.110   6.150  10.740  0.00  0.00    +0.000 A 
BRANCH  20  23
ATOM     23  C   UNL     1      44.448   3.707   8.348  0.00  0.00    +0.000 C 
BRANCH  23  24
ATOM     24  C   UNL     1      45.556   2.821   7.875  0.00  0.00    +0.000 A 
ATOM     25  C   UNL     1      45.757   1.549   8.372  0.00  0.00    +0.000 A 
ATOM     26  N   UNL     1      46.772   0.747   7.998  0.00  0.00    +0.000 NA
ATOM     27  C   UNL     1      47.615   1.265   7.091  0.00  0.00    +0.000 A 
ATOM     28  N   UNL     1      47.527   2.482   6.534  0.00  0.00    +0.000 NA
ATOM     29  C   UNL     1      46.491   3.237   6.948  0.00  0.00    +0.000 A 
ENDBRANCH  23  24
ENDBRANCH  20  23
ENDBRANCH  16  17
ENDBRANCH   2  16
TORSDOF 5
ENDMDL
MODEL 3
REMARK VINA RESULT:    -7.056      2.213      2.811
REMARK INTER + INTRA:          -9.938
REMARK INTER:                  -8.874
REMARK INTRA:                  -1.064
REMARK UNBOUND:                -0.820
REMARK  Name = 
REMARK  6 active torsions:
REMARK  status: ('A' for Active; 'I' for Inactive)
REMARK    1  A    between atoms: C_1  and  N_2
REMARK    2  A    between atoms: N_2  and  C_3
REMARK    3  A    between atoms: C_3  and  C_4
REMARK    4  A    between atoms: C_7  and  C_8
REMARK    5  A    between atoms: C_8  and  C_9
REMARK    6  A    between atoms: C_17  and  C_19
REMARK                            x       y       z     vdW  Elec       q    Type
REMARK                         _______ _______ _______ _____ _____    ______ ____
ROOT
ATOM      1  C   UNL     1      47.953   8.960  15.260  0.00  0.00    +0.000 C 
ATOM      2  N   UNL     1      48.757   7.745  15.356  0.00  0.00    +0.000 N 
ATOM      3  C   UNL     1      48.883   7.233  16.661  0.00  0.00    +0.000 C 
ATOM      4  O   UNL     1      48.641   7.949  17.633  0.00  0.00    +0.000 OA
ENDROOT
BRANCH   3   5
ATOM      5  C   UNL     1      49.178   5.807  16.889  0.00  0.00    +0.000 A 
ATOM      6  C   UNL     1      48.245   4.821  17.167  0.00  0.00    +0.000 A 
ATOM      7  S   UNL     1      48.930   3.342  17.680  0.00  0.00    +0.000 S 
ATOM      8  C   UNL     1      50.497   3.994  17.617  0.00  0.00    +0.000 A 
ATOM      9  N   UNL     1      51.566   3.295  18.079  0.00  0.00    +0.000 NA
ATOM     10  C   UNL     1      52.689   3.930  17.984  0.00  0.00    +0.000 A 
ATOM     11  N   UNL     1      52.839   5.179  17.427  0.00  0.00    +0.000 N 
ATOM     12  C   UNL     1      51.802   5.866  16.847  0.00  0.00    +0.000 A 
ATOM     13  O   UNL     1      52.001   6.844  16.136  0.00  0.00    +0.000 OA
ATOM     14  C   UNL     1      50.504   5.262  17.071  0.00  0.00    +0.000 A 
ATOM     15  H   UNL     1      53.761   5.562  17.283  0.00  0.00    +0.000 HD
ENDBRANCH   3   5
BRANCH   2  16
ATOM     16  C   UNL     1      49.055   6.978  14.148  0.00  0.00    +0.000 C 
BRANCH  16  17
ATOM     17  C   UNL     1      47.873   6.481  13.360  0.00  0.00    +0.000 A 
ATOM     18  C   UNL     1      47.194   5.318  13.731  0.00  0.00    +0.000 A 
ATOM     19  C   UNL     1      46.118   4.861  12.966  0.00  0.00    +0.000 A 
ATOM     20  C   UNL     1      45.720   5.551  11.812  0.00  0.00    +0.000 A 
ATOM     21  C   UNL     1      46.385   6.730  11.459  0.00  0.00    +0.000 A 
ATOM     22  C   UNL     1      47.448   7.193  12.228  0.00  0.00    +0.000 A 
BRANCH  20  23
ATOM     23  C   UNL     1      44.572   5.049  10.971  0.00  0.00    +0.000 C 
BRANCH  23  24
ATOM     24  C   UNL     1      45.016   4.191   9.829  0.00  0.00    +0.000 A 
ATOM     25  C   UNL     1      44.907   2.815   9.845  0.00  0.00    +0.000 A 
ATOM     26  N   UNL     1      45.339   2.015   8.851  0.00  0.00    +0.000 NA
ATOM     27  C   UNL     1      45.908   2.641   7.811  0.00  0.00    +0.000 A 
ATOM     28  N   UNL     1      46.071   3.966   7.677  0.00  0.00    +0.000 NA
ATOM     29  C   UNL     1      45.619   4.713   8.702  0.00  0.00    +0.000 A 
ENDBRANCH  23  24
ENDBRANCH  20  23
ENDBRANCH  16  17
ENDBRANCH   2  16
TORSDOF 5
ENDMDL
MODEL 4
REMARK VINA RESULT:    -6.849      2.017      3.043
REMARK INTER + INTRA:          -9.671
REMARK INTER:                  -8.610
REMARK INTRA:                  -1.061
REMARK UNBOUND:                -0.820
REMARK  Name = 
REMARK  6 active torsions:
REMARK  status: ('A' for Active; 'I' for Inactive)
REMARK    1  A    between atoms: C_1  and  N_2
REMARK    2  A    between atoms: N_2  and  C_3
REMARK    3  A    between atoms: C_3  and  C_4
REMARK    4  A    between atoms: C_7  and  C_8
REMARK    5  A    between atoms: C_8  and  C_9
REMARK    6  A    between atoms: C_17  and  C_19
REMARK                            x       y       z     vdW  Elec       q    Type
REMARK                         _______ _______ _______ _____ _____    ______ ____
ROOT
ATOM      1  C   UNL     1      48.263   9.003  15.724  0.00  0.00    +0.000 C 
ATOM      2  N   UNL     1      49.184   7.877  15.844  0.00  0.00    +0.000 N 
ATOM      3  C   UNL     1      49.462   7.490  17.168  0.00  0.00    +0.000 C 
ATOM      4  O   UNL     1      49.230   8.262  18.100  0.00  0.00    +0.000 OA
ENDROOT
BRANCH   3   5
ATOM      5  C   UNL     1      49.908   6.121  17.479  0.00  0.00    +0.000 A 
ATOM      6  C   UNL     1      51.208   5.651  17.386  0.00  0.00    +0.000 A 
ATOM      7  S   UNL     1      51.345   3.953  17.520  0.00  0.00    +0.000 S 
ATOM      8  C   UNL     1      49.659   3.782  17.633  0.00  0.00    +0.000 A 
ATOM      9  N   UNL     1      49.077   2.555  17.621  0.00  0.00    +0.000 NA
ATOM     10  C   UNL     1      47.786   2.585  17.693  0.00  0.00    +0.000 A 
ATOM     11  N   UNL     1      47.035   3.731  17.823  0.00  0.00    +0.000 N 
ATOM     12  C   UNL     1      47.594   4.978  17.954  0.00  0.00    +0.000 A 
ATOM     13  O   UNL     1      46.930   5.940  18.324  0.00  0.00    +0.000 OA
ATOM     14  C   UNL     1      49.024   5.004  17.720  0.00  0.00    +0.000 A 
ATOM     15  H   UNL     1      46.042   3.669  17.988  0.00  0.00    +0.000 HD
ENDBRANCH   3   5
BRANCH   2  16
ATOM     16  C   UNL     1      49.457   7.040  14.678  0.00  0.00    +0.000 C 
BRANCH  16  17
ATOM     17  C   UNL     1      48.265   6.612  13.864  0.00  0.00    +0.000 A 
ATOM     18  C   UNL     1      47.978   7.209  12.633  0.00  0.00    +0.000 A 
ATOM     19  C   UNL     1      46.850   6.815  11.911  0.00  0.00    +0.000 A 
ATOM     20  C   UNL     1      45.985   5.833  12.416  0.00  0.00    +0.000 A 
ATOM     21  C   UNL     1      46.292   5.217  13.635  0.00  0.00    +0.000 A 
ATOM     22  C   UNL     1      47.423   5.601  14.350  0.00  0.00    +0.000 A 
BRANCH  20  23
ATOM     23  C   UNL     1      44.754   5.419  11.649  0.00  0.00    +0.000 C 
BRANCH  23  24
ATOM     24  C   UNL     1      45.068   4.588  10.445  0.00  0.00    +0.000 A 
ATOM     25  C   UNL     1      45.589   5.126   9.285  0.00  0.00    +0.000 A 
ATOM     26  N   UNL     1      45.840   4.411   8.172  0.00  0.00    +0.000 NA
ATOM     27  C   UNL     1      45.540   3.106   8.242  0.00  0.00    +0.000 A 
ATOM     28  N   UNL     1      45.032   2.467   9.307  0.00  0.00    +0.000 NA
ATOM     29  C   UNL     1      44.804   3.235  10.390  0.00  0.00    +0.000 A 
ENDBRANCH  23  24
ENDBRANCH  20  23
ENDBRANCH  16  17
ENDBRANCH   2  16
TORSDOF 5
ENDMDL
MODEL 5
REMARK VINA RESULT:    -6.736      2.007      3.483
REMARK INTER + INTRA:          -9.525
REMARK INTER:                  -9.164
REMARK INTRA:                  -0.360
REMARK UNBOUND:                -0.820
REMARK  Name = 
REMARK  6 active torsions:
REMARK  status: ('A' for Active; 'I' for Inactive)
REMARK    1  A    between atoms: C_1  and  N_2
REMARK    2  A    between atoms: N_2  and  C_3
REMARK    3  A    between atoms: C_3  and  C_4
REMARK    4  A    between atoms: C_7  and  C_8
REMARK    5  A    between atoms: C_8  and  C_9
REMARK    6  A    between atoms: C_17  and  C_19
REMARK                            x       y       z     vdW  Elec       q    Type
REMARK                         _______ _______ _______ _____ _____    ______ ____
ROOT
ATOM      1  C   UNL     1      47.130   3.737  14.155  0.00  0.00    +0.000 C 
ATOM      2  N   UNL     1      47.035   5.160  14.467  0.00  0.00    +0.000 N 
ATOM      3  C   UNL     1      48.082   5.651  15.268  0.00  0.00    +0.000 C 
ATOM      4  O   UNL     1      48.782   4.874  15.918  0.00  0.00    +0.000 OA
ENDROOT
BRANCH   3   5
ATOM      5  C   UNL     1      48.446   7.080  15.248  0.00  0.00    +0.000 A 
ATOM      6  C   UNL     1      48.321   7.963  16.308  0.00  0.00    +0.000 A 
ATOM      7  S   UNL     1      48.538   9.602  15.875  0.00  0.00    +0.000 S 
ATOM      8  C   UNL     1      48.732   9.190  14.239  0.00  0.00    +0.000 A 
ATOM      9  N   UNL     1      48.811  10.149  13.280  0.00  0.00    +0.000 NA
ATOM     10  C   UNL     1      48.936   9.682  12.080  0.00  0.00    +0.000 A 
ATOM     11  N   UNL     1      49.038   8.347  11.765  0.00  0.00    +0.000 N 
ATOM     12  C   UNL     1      49.079   7.358  12.716  0.00  0.00    +0.000 A 
ATOM     13  O   UNL     1      49.426   6.216  12.436  0.00  0.00    +0.000 OA
ATOM     14  C   UNL     1      48.783   7.823  14.056  0.00  0.00    +0.000 A 
ATOM     15  H   UNL     1      49.249   8.064  10.820  0.00  0.00    +0.000 HD
ENDBRANCH   3   5
BRANCH   2  16
ATOM     16  C   UNL     1      46.136   6.011  13.690  0.00  0.00    +0.000 C 
BRANCH  16  17
ATOM     17  C   UNL     1      45.695   5.479  12.353  0.00  0.00    +0.000 A 
ATOM     18  C   UNL     1      44.825   4.390  12.259  0.00  0.00    +0.000 A 
ATOM     19  C   UNL     1      44.453   3.896  11.007  0.00  0.00    +0.000 A 
ATOM     20  C   UNL     1      44.960   4.473   9.834  0.00  0.00    +0.000 A 
ATOM     21  C   UNL     1      45.809   5.582   9.931  0.00  0.00    +0.000 A 
ATOM     22  C   UNL     1      46.170   6.082  11.178  0.00  0.00    +0.000 A 
BRANCH  20  23
ATOM     23  C   UNL     1      44.578   3.930   8.479  0.00  0.00    +0.000 C 
BRANCH  23  24
ATOM     24  C   UNL     1      45.592   2.982   7.922  0.00  0.00    +0.000 A 
ATOM     25  C   UNL     1      45.764   1.703   8.414  0.00  0.00    +0.000 A 
ATOM     26  N   UNL     1      46.698   0.844   7.963  0.00  0.00    +0.000 NA
ATOM     27  C   UNL     1      47.489   1.310   6.985  0.00  0.00    +0.000 A 
ATOM     28  N   UNL     1      47.421   2.527   6.425  0.00  0.00    +0.000 NA
ATOM     29  C   UNL     1      46.467   3.340   6.917  0.00  0.00    +0.000 A 
ENDBRANCH  23  24
ENDBRANCH  20  23
ENDBRANCH  16  17
ENDBRANCH   2  16
TORSDOF 5
ENDMDL
MODEL 6
REMARK VINA RESULT:    -6.663      2.085      3.035
REMARK INTER + INTRA:          -9.431
REMARK INTER:                  -8.309
REMARK INTRA:                  -1.121
REMARK UNBOUND:                -0.820
REMARK  Name = 
REMARK  6 active torsions:
REMARK  status: ('A' for Active; 'I' for Inactive)
REMARK    1  A    between atoms: C_1  and  N_2
REMARK    2  A    between atoms: N_2  and  C_3
REMARK    3  A    between atoms: C_3  and  C_4
REMARK    4  A    between atoms: C_7  and  C_8
REMARK    5  A    between atoms: C_8  and  C_9
REMARK    6  A    between atoms: C_17  and  C_19
REMARK                            x       y       z     vdW  Elec       q    Type
REMARK                         _______ _______ _______ _____ _____    ______ ____
ROOT
ATOM      1  C   UNL     1      49.067   9.175  12.194  0.00  0.00    +0.000 C 
ATOM      2  N   UNL     1      48.610   8.426  13.361  0.00  0.00    +0.000 N 
ATOM      3  C   UNL     1      49.625   8.105  14.280  0.00  0.00    +0.000 C 
ATOM      4  O   UNL     1      50.807   8.143  13.937  0.00  0.00    +0.000 OA
ENDROOT
BRANCH   3   5
ATOM      5  C   UNL     1      49.310   7.846  15.697  0.00  0.00    +0.000 A 
ATOM      6  C   UNL     1      49.218   6.597  16.291  0.00  0.00    +0.000 A 
ATOM      7  S   UNL     1      48.541   6.623  17.860  0.00  0.00    +0.000 S 
ATOM      8  C   UNL     1      48.279   8.298  17.767  0.00  0.00    +0.000 A 
ATOM      9  N   UNL     1      47.585   8.954  18.734  0.00  0.00    +0.000 NA
ATOM     10  C   UNL     1      47.450  10.221  18.515  0.00  0.00    +0.000 A 
ATOM     11  N   UNL     1      47.987  10.894  17.442  0.00  0.00    +0.000 N 
ATOM     12  C   UNL     1      48.790  10.287  16.509  0.00  0.00    +0.000 A 
ATOM     13  O   UNL     1      49.461  10.942  15.719  0.00  0.00    +0.000 OA
ATOM     14  C   UNL     1      48.837   8.843  16.628  0.00  0.00    +0.000 A 
ATOM     15  H   UNL     1      47.937  11.900  17.398  0.00  0.00    +0.000 HD
ENDBRANCH   3   5
BRANCH   2  16
ATOM     16  C   UNL     1      47.183   8.377  13.674  0.00  0.00    +0.000 C 
BRANCH  16  17
ATOM     17  C   UNL     1      46.369   7.350  12.934  0.00  0.00    +0.000 A 
ATOM     18  C   UNL     1      46.673   5.988  13.015  0.00  0.00    +0.000 A 
ATOM     19  C   UNL     1      45.921   5.058  12.296  0.00  0.00    +0.000 A 
ATOM     20  C   UNL     1      44.865   5.477  11.473  0.00  0.00    +0.000 A 
ATOM     21  C   UNL     1      44.545   6.838  11.416  0.00  0.00    +0.000 A 
ATOM     22  C   UNL     1      45.287   7.765  12.142  0.00  0.00    +0.000 A 
BRANCH  20  23
ATOM     23  C   UNL     1      44.062   4.477  10.678  0.00  0.00    +0.000 C 
BRANCH  23  24
ATOM     24  C   UNL     1      44.862   3.805   9.607  0.00  0.00    +0.000 A 
ATOM     25  C   UNL     1      45.477   4.504   8.588  0.00  0.00    +0.000 A 
ATOM     26  N   UNL     1      46.165   3.923   7.587  0.00  0.00    +0.000 NA
ATOM     27  C   UNL     1      46.219   2.583   7.623  0.00  0.00    +0.000 A 
ATOM     28  N   UNL     1      45.667   1.794   8.556  0.00  0.00    +0.000 NA
ATOM     29  C   UNL     1      44.992   2.433   9.532  0.00  0.00    +0.000 A 
ENDBRANCH  23  24
ENDBRANCH  20  23
ENDBRANCH  16  17
ENDBRANCH   2  16
TORSDOF 5
ENDMDL
MODEL 7
REMARK VINA RESULT:    -6.642      2.737      3.977
REMARK INTER + INTRA:          -9.404
REMARK INTER:                  -8.300
REMARK INTRA:                  -1.103
REMARK UNBOUND:                -0.820
REMARK  Name = 
REMARK  6 active torsions:
REMARK  status: ('A' for Active; 'I' for Inactive)
REMARK    1  A    between atoms: C_1  and  N_2
REMARK    2  A    between atoms: N_2  and  C_3
REMARK    3  A    between atoms: C_3  and  C_4
REMARK    4  A    between atoms: C_7  and  C_8
REMARK    5  A    between atoms: C_8  and  C_9
REMARK    6  A    between atoms: C_17  and  C_19
REMARK                            x       y       z     vdW  Elec       q    Type
REMARK                         _______ _______ _______ _____ _____    ______ ____
ROOT
ATOM      1  C   UNL     1      48.202   8.850  16.717  0.00  0.00    +0.000 C 
ATOM      2  N   UNL     1      49.261   7.845  16.719  0.00  0.00    +0.000 N 
ATOM      3  C   UNL     1      49.377   7.126  17.922  0.00  0.00    +0.000 C 
ATOM      4  O   UNL     1      48.875   7.564  18.958  0.00  0.00    +0.000 OA
ENDROOT
BRANCH   3   5
ATOM      5  C   UNL     1      49.983   5.782  17.946  0.00  0.00    +0.000 A 
ATOM      6  C   UNL     1      51.332   5.503  18.094  0.00  0.00    +0.000 A 
ATOM      7  S   UNL     1      51.744   3.876  17.773  0.00  0.00    +0.000 S 
ATOM      8  C   UNL     1      50.141   3.506  17.354  0.00  0.00    +0.000 A 
ATOM      9  N   UNL     1      49.815   2.295  16.832  0.00  0.00    +0.000 NA
ATOM     10  C   UNL     1      48.561   2.169  16.542  0.00  0.00    +0.000 A 
ATOM     11  N   UNL     1      47.602   3.128  16.774  0.00  0.00    +0.000 N 
ATOM     12  C   UNL     1      47.874   4.316  17.405  0.00  0.00    +0.000 A 
ATOM     13  O   UNL     1      46.976   5.035  17.829  0.00  0.00    +0.000 OA
ATOM     14  C   UNL     1      49.288   4.563  17.601  0.00  0.00    +0.000 A 
ATOM     15  H   UNL     1      46.627   2.915  16.628  0.00  0.00    +0.000 HD
ENDBRANCH   3   5
BRANCH   2  16
ATOM     16  C   UNL     1      49.853   7.416  15.454  0.00  0.00    +0.000 C 
BRANCH  16  17
ATOM     17  C   UNL     1      48.897   7.136  14.326  0.00  0.00    +0.000 A 
ATOM     18  C   UNL     1      48.017   6.052  14.375  0.00  0.00    +0.000 A 
ATOM     19  C   UNL     1      47.160   5.796  13.303  0.00  0.00    +0.000 A 
ATOM     20  C   UNL     1      47.183   6.610  12.161  0.00  0.00    +0.000 A 
ATOM     21  C   UNL     1      48.045   7.712  12.127  0.00  0.00    +0.000 A 
ATOM     22  C   UNL     1      48.891   7.975  13.200  0.00  0.00    +0.000 A 
BRANCH  20  23
ATOM     23  C   UNL     1      46.273   6.326  10.991  0.00  0.00    +0.000 C 
BRANCH  23  24
ATOM     24  C   UNL     1      45.120   5.442  11.350  0.00  0.00    +0.000 A 
ATOM     25  C   UNL     1      44.115   5.841  12.208  0.00  0.00    +0.000 A 
ATOM     26  N   UNL     1      43.090   5.052  12.584  0.00  0.00    +0.000 NA
ATOM     27  C   UNL     1      43.097   3.812  12.073  0.00  0.00    +0.000 A 
ATOM     28  N   UNL     1      44.013   3.308  11.232  0.00  0.00    +0.000 NA
ATOM     29  C   UNL     1      45.013   4.144  10.893  0.00  0.00    +0.000 A 
ENDBRANCH  23  24
ENDBRANCH  20  23
ENDBRANCH  16  17
ENDBRANCH   2  16
TORSDOF 5
ENDMDL
MODEL 8
REMARK VINA RESULT:    -6.070      2.192      3.199
REMARK INTER + INTRA:          -8.664
REMARK INTER:                  -7.918
REMARK INTRA:                  -0.746
REMARK UNBOUND:                -0.820
REMARK  Name = 
REMARK  6 active torsions:
REMARK  status: ('A' for Active; 'I' for Inactive)
REMARK    1  A    between atoms: C_1  and  N_2
REMARK    2  A    between atoms: N_2  and  C_3
REMARK    3  A    between atoms: C_3  and  C_4
REMARK    4  A    between atoms: C_7  and  C_8
REMARK    5  A    between atoms: C_8  and  C_9
REMARK    6  A    between atoms: C_17  and  C_19
REMARK                            x       y       z     vdW  Elec       q    Type
REMARK                         _______ _______ _______ _____ _____    ______ ____
ROOT
ATOM      1  C   UNL     1      47.114   3.473  17.284  0.00  0.00    +0.000 C 
ATOM      2  N   UNL     1      47.633   4.763  16.837  0.00  0.00    +0.000 N 
ATOM      3  C   UNL     1      47.912   5.670  17.875  0.00  0.00    +0.000 C 
ATOM      4  O   UNL     1      47.421   5.502  18.993  0.00  0.00    +0.000 OA
ENDROOT
BRANCH   3   5
ATOM      5  C   UNL     1      48.890   6.756  17.690  0.00  0.00    +0.000 A 
ATOM      6  C   UNL     1      48.588   8.093  17.487  0.00  0.00    +0.000 A 
ATOM      7  S   UNL     1      49.925   9.042  17.004  0.00  0.00    +0.000 S 
ATOM      8  C   UNL     1      50.939   7.680  16.980  0.00  0.00    +0.000 A 
ATOM      9  N   UNL     1      52.209   7.760  16.504  0.00  0.00    +0.000 NA
ATOM     10  C   UNL     1      52.851   6.638  16.530  0.00  0.00    +0.000 A 
ATOM     11  N   UNL     1      52.350   5.459  17.033  0.00  0.00    +0.000 N 
ATOM     12  C   UNL     1      51.116   5.367  17.627  0.00  0.00    +0.000 A 
ATOM     13  O   UNL     1      50.798   4.387  18.291  0.00  0.00    +0.000 OA
ATOM     14  C   UNL     1      50.305   6.559  17.476  0.00  0.00    +0.000 A 
ATOM     15  H   UNL     1      52.949   4.653  17.125  0.00  0.00    +0.000 HD
ENDBRANCH   3   5
BRANCH   2  16
ATOM     16  C   UNL     1      48.146   4.902  15.475  0.00  0.00    +0.000 C 
BRANCH  16  17
ATOM     17  C   UNL     1      47.142   4.761  14.362  0.00  0.00    +0.000 A 
ATOM     18  C   UNL     1      46.830   3.510  13.824  0.00  0.00    +0.000 A 
ATOM     19  C   UNL     1      45.917   3.408  12.772  0.00  0.00    +0.000 A 
ATOM     20  C   UNL     1      45.319   4.556  12.233  0.00  0.00    +0.000 A 
ATOM     21  C   UNL     1      45.613   5.804  12.792  0.00  0.00    +0.000 A 
ATOM     22  C   UNL     1      46.513   5.905  13.849  0.00  0.00    +0.000 A 
BRANCH  20  23
ATOM     23  C   UNL     1      44.348   4.453  11.082  0.00  0.00    +0.000 C 
BRANCH  23  24
ATOM     24  C   UNL     1      44.985   3.954   9.824  0.00  0.00    +0.000 A 
ATOM     25  C   UNL     1      45.535   4.801   8.882  0.00  0.00    +0.000 A 
ATOM     26  N   UNL     1      46.074   4.384   7.720  0.00  0.00    +0.000 NA
ATOM     27  C   UNL     1      46.043   3.059   7.510  0.00  0.00    +0.000 A 
ATOM     28  N   UNL     1      45.541   2.138   8.345  0.00  0.00    +0.000 NA
ATOM     29  C   UNL     1      45.016   2.615   9.490  0.00  0.00    +0.000 A 
ENDBRANCH  23  24
ENDBRANCH  20  23
ENDBRANCH  16  17
ENDBRANCH   2  16
TORSDOF 5
ENDMDL
MODEL 9
REMARK VINA RESULT:    -5.853      2.664      4.395
REMARK INTER + INTRA:          -8.383
REMARK INTER:                  -7.441
REMARK INTRA:                  -0.943
REMARK UNBOUND:                -0.820
REMARK  Name = 
REMARK  6 active torsions:
REMARK  status: ('A' for Active; 'I' for Inactive)
REMARK    1  A    between atoms: C_1  and  N_2
REMARK    2  A    between atoms: N_2  and  C_3
REMARK    3  A    between atoms: C_3  and  C_4
REMARK    4  A    between atoms: C_7  and  C_8
REMARK    5  A    between atoms: C_8  and  C_9
REMARK    6  A    between atoms: C_17  and  C_19
REMARK                            x       y       z     vdW  Elec       q    Type
REMARK                         _______ _______ _______ _____ _____    ______ ____
ROOT
ATOM      1  C   UNL     1      48.569   6.815  17.091  0.00  0.00    +0.000 C 
ATOM      2  N   UNL     1      48.685   7.342  15.735  0.00  0.00    +0.000 N 
ATOM      3  C   UNL     1      48.821   8.741  15.665  0.00  0.00    +0.000 C 
ATOM      4  O   UNL     1      48.506   9.443  16.626  0.00  0.00    +0.000 OA
ENDROOT
BRANCH   3   5
ATOM      5  C   UNL     1      49.458   9.383  14.501  0.00  0.00    +0.000 A 
ATOM      6  C   UNL     1      48.818  10.174  13.560  0.00  0.00    +0.000 A 
ATOM      7  S   UNL     1      49.764  10.511  12.177  0.00  0.00    +0.000 S 
ATOM      8  C   UNL     1      51.036   9.547  12.757  0.00  0.00    +0.000 A 
ATOM      9  N   UNL     1      52.120   9.278  11.984  0.00  0.00    +0.000 NA
ATOM     10  C   UNL     1      52.994   8.514  12.554  0.00  0.00    +0.000 A 
ATOM     11  N   UNL     1      52.900   8.039  13.842  0.00  0.00    +0.000 N 
ATOM     12  C   UNL     1      51.878   8.384  14.691  0.00  0.00    +0.000 A 
ATOM     13  O   UNL     1      51.946   8.166  15.895  0.00  0.00    +0.000 OA
ATOM     14  C   UNL     1      50.801   9.106  14.044  0.00  0.00    +0.000 A 
ATOM     15  H   UNL     1      53.674   7.544  14.257  0.00  0.00    +0.000 HD
ENDBRANCH   3   5
BRANCH   2  16
ATOM     16  C   UNL     1      49.004   6.437  14.633  0.00  0.00    +0.000 C 
BRANCH  16  17
ATOM     17  C   UNL     1      47.885   6.127  13.674  0.00  0.00    +0.000 A 
ATOM     18  C   UNL     1      47.727   6.849  12.489  0.00  0.00    +0.000 A 
ATOM     19  C   UNL     1      46.664   6.561  11.630  0.00  0.00    +0.000 A 
ATOM     20  C   UNL     1      45.736   5.559  11.954  0.00  0.00    +0.000 A 
ATOM     21  C   UNL     1      45.914   4.820  13.128  0.00  0.00    +0.000 A 
ATOM     22  C   UNL     1      46.980   5.098  13.978  0.00  0.00    +0.000 A 
BRANCH  20  23
ATOM     23  C   UNL     1      44.574   5.259  11.040  0.00  0.00    +0.000 C 
BRANCH  23  24
ATOM     24  C   UNL     1      44.932   4.322   9.930  0.00  0.00    +0.000 A 
ATOM     25  C   UNL     1      44.702   2.963  10.000  0.00  0.00    +0.000 A 
ATOM     26  N   UNL     1      45.055   2.090   9.036  0.00  0.00    +0.000 NA
ATOM     27  C   UNL     1      45.670   2.623   7.970  0.00  0.00    +0.000 A 
ATOM     28  N   UNL     1      45.947   3.922   7.784  0.00  0.00    +0.000 NA
ATOM     29  C   UNL     1      45.571   4.745   8.781  0.00  0.00    +0.000 A 
ENDBRANCH  23  24
ENDBRANCH  20  23
ENDBRANCH  16  17
ENDBRANCH   2  16
TORSDOF 5
ENDMDL
