MODEL 1
REMARK VINA RESULT:    -7.868      0.000      0.000
REMARK INTER + INTRA:         -12.217
REMARK INTER:                 -11.087
REMARK INTRA:                  -1.130
REMARK UNBOUND:                -1.130
REMARK  Name = 
REMARK  7 active torsions:
REMARK  status: ('A' for Active; 'I' for Inactive)
REMARK    1  A    between atoms: C_2  and  C_19
REMARK    2  A    between atoms: N_3  and  C_4
REMARK    3  A    between atoms: C_4  and  C_5
REMARK    4  A    between atoms: C_8  and  C_9
REMARK    5  A    between atoms: C_9  and  N_10
REMARK    6  A    between atoms: N_10  and  C_11
REMARK    7  A    between atoms: C_11  and  C_12
REMARK                            x       y       z     vdW  Elec       q    Type
REMARK                         _______ _______ _______ _____ _____    ______ ____
ROOT
ATOM      1  C   UNL     1      46.501   7.592  12.961  0.00  0.00    +0.000 C 
ENDROOT
BRANCH   1   2
ATOM      2  C   UNL     1      45.827   6.443  12.273  0.00  0.00    +0.000 A 
ATOM      3  C   UNL     1      45.973   6.219  10.901  0.00  0.00    +0.000 A 
ATOM      4  C   UNL     1      45.327   5.140  10.294  0.00  0.00    +0.000 A 
ATOM      5  C   UNL     1      44.543   4.300  11.076  0.00  0.00    +0.000 A 
ATOM      6  N   UNL     1      44.410   4.491  12.417  0.00  0.00    +0.000 NA
ATOM      7  C   UNL     1      45.047   5.541  12.980  0.00  0.00    +0.000 A 
BRANCH   5   8
ATOM      8  C   UNL     1      43.804   3.117  10.447  0.00  0.00    +0.000 C 
BRANCH   8   9
ATOM      9  N   UNL     1      44.758   2.141   9.935  0.00  0.00    +0.000 NA
ATOM     10  H   UNL     1      44.606   1.247  10.402  0.00  0.00    +0.000 HD
BRANCH   9  11
ATOM     11  C   UNL     1      44.887   2.008   8.497  0.00  0.00    +0.000 C 
BRANCH  11  12
ATOM     12  C   UNL     1      46.381   2.214   8.189  0.00  0.00    +0.000 C 
ATOM     13  C   UNL     1      46.631   3.356   7.215  0.00  0.00    +0.000 C 
ATOM     14  C   UNL     1      46.742   2.673   5.874  0.00  0.00    +0.000 C 
ATOM     15  O   UNL     1      47.181   1.333   6.108  0.00  0.00    +0.000 OA
ATOM     16  C   UNL     1      47.040   1.032   7.500  0.00  0.00    +0.000 C 
ENDBRANCH  11  12
ENDBRANCH   9  11
ENDBRANCH   8   9
ENDBRANCH   5   8
ENDBRANCH   1   2
BRANCH   1  19
ATOM     17  O   UNL     1      49.051   6.421  13.231  0.00  0.00    +0.000 OA
ATOM     18  C   UNL     1      48.400   6.673  14.241  0.00  0.00    +0.000 C 
ATOM     19  N   UNL     1      47.135   7.195  14.193  0.00  0.00    +0.000 N 
ATOM     20  H   UNL     1      46.680   7.481  15.051  0.00  0.00    +0.000 HD
BRANCH  18  21
ATOM     21  C   UNL     1      48.934   6.400  15.582  0.00  0.00    +0.000 A 
ATOM     22  C   UNL     1      49.939   7.202  16.105  0.00  0.00    +0.000 A 
ATOM     23  S   UNL     1      50.435   6.740  17.670  0.00  0.00    +0.000 S 
ATOM     24  C   UNL     1      49.292   5.481  17.721  0.00  0.00    +0.000 A 
ATOM     25  N   UNL     1      49.165   4.691  18.823  0.00  0.00    +0.000 NA
ATOM     26  C   UNL     1      48.233   3.808  18.741  0.00  0.00    +0.000 A 
ATOM     27  N   UNL     1      47.415   3.629  17.655  0.00  0.00    +0.000 N 
ATOM     28  C   UNL     1      47.547   4.358  16.497  0.00  0.00    +0.000 A 
ATOM     29  O   UNL     1      46.873   4.102  15.505  0.00  0.00    +0.000 OA
ATOM     30  C   UNL     1      48.560   5.396  16.550  0.00  0.00    +0.000 A 
ATOM     31  H   UNL     1      46.719   2.900  17.646  0.00  0.00    +0.000 HD
ENDBRANCH  18  21
ENDBRANCH   1  19
TORSDOF 7
ENDMDL
MODEL 2
REMARK VINA RESULT:    -7.380      1.393      1.532
REMARK INTER + INTRA:         -11.530
REMARK INTER:                 -10.564
REMARK INTRA:                  -0.967
REMARK UNBOUND:                -1.130
REMARK  Name = 
REMARK  7 active torsions:
REMARK  status: ('A' for Active; 'I' for Inactive)
REMARK    1  A    between atoms: C_2  and  C_19
REMARK    2  A    between atoms: N_3  and  C_4
REMARK    3  A    between atoms: C_4  and  C_5
REMARK    4  A    between atoms: C_8  and  C_9
REMARK    5  A    between atoms: C_9  and  N_10
REMARK    6  A    between atoms: N_10  and  C_11
REMARK    7  A    between atoms: C_11  and  C_12
REMARK                            x       y       z     vdW  Elec       q    Type
REMARK                         _______ _______ _______ _____ _____    ______ ____
ROOT
ATOM      1  C   UNL     1      48.050   6.921  13.329  0.00  0.00    +0.000 C 
ENDROOT
BRANCH   1   2
ATOM      2  C   UNL     1      47.005   6.092  12.645  0.00  0.00    +0.000 A 
ATOM      3  C   UNL     1      46.497   6.440  11.390  0.00  0.00    +0.000 A 
ATOM      4  C   UNL     1      45.521   5.645  10.784  0.00  0.00    +0.000 A 
ATOM      5  C   UNL     1      45.070   4.510  11.449  0.00  0.00    +0.000 A 
ATOM      6  N   UNL     1      45.573   4.146  12.660  0.00  0.00    +0.000 NA
ATOM      7  C   UNL     1      46.518   4.931  13.223  0.00  0.00    +0.000 A 
BRANCH   5   8
ATOM      8  C   UNL     1      43.990   3.623  10.829  0.00  0.00    +0.000 C 
BRANCH   8   9
ATOM      9  N   UNL     1      44.583   2.399  10.304  0.00  0.00    +0.000 NA
ATOM     10  H   UNL     1      44.150   1.595  10.759  0.00  0.00    +0.000 HD
BRANCH   9  11
ATOM     11  C   UNL     1      44.668   2.249   8.865  0.00  0.00    +0.000 C 
BRANCH  11  12
ATOM     12  C   UNL     1      46.151   2.459   8.508  0.00  0.00    +0.000 C 
ATOM     13  C   UNL     1      46.379   3.674   7.621  0.00  0.00    +0.000 C 
ATOM     14  C   UNL     1      46.420   3.102   6.225  0.00  0.00    +0.000 C 
ATOM     15  O   UNL     1      46.845   1.741   6.328  0.00  0.00    +0.000 OA
ATOM     16  C   UNL     1      46.759   1.328   7.696  0.00  0.00    +0.000 C 
ENDBRANCH  11  12
ENDBRANCH   9  11
ENDBRANCH   8   9
ENDBRANCH   5   8
ENDBRANCH   1   2
BRANCH   1  19
ATOM     17  O   UNL     1      50.212   6.778  15.133  0.00  0.00    +0.000 OA
ATOM     18  C   UNL     1      49.067   6.811  15.576  0.00  0.00    +0.000 C 
ATOM     19  N   UNL     1      47.963   6.831  14.766  0.00  0.00    +0.000 N 
ATOM     20  H   UNL     1      47.046   6.962  15.175  0.00  0.00    +0.000 HD
BRANCH  18  21
ATOM     21  C   UNL     1      48.807   6.802  17.021  0.00  0.00    +0.000 A 
ATOM     22  C   UNL     1      48.428   7.973  17.664  0.00  0.00    +0.000 A 
ATOM     23  S   UNL     1      48.167   7.778  19.338  0.00  0.00    +0.000 S 
ATOM     24  C   UNL     1      48.505   6.112  19.252  0.00  0.00    +0.000 A 
ATOM     25  N   UNL     1      48.429   5.322  20.359  0.00  0.00    +0.000 NA
ATOM     26  C   UNL     1      48.666   4.076  20.141  0.00  0.00    +0.000 A 
ATOM     27  N   UNL     1      48.983   3.540  18.920  0.00  0.00    +0.000 N 
ATOM     28  C   UNL     1      49.134   4.306  17.788  0.00  0.00    +0.000 A 
ATOM     29  O   UNL     1      49.523   3.813  16.734  0.00  0.00    +0.000 OA
ATOM     30  C   UNL     1      48.839   5.715  17.970  0.00  0.00    +0.000 A 
ATOM     31  H   UNL     1      49.183   2.556  18.822  0.00  0.00    +0.000 HD
ENDBRANCH  18  21
ENDBRANCH   1  19
TORSDOF 7
ENDMDL
MODEL 3
REMARK VINA RESULT:    -7.128      1.957      2.289
REMARK INTER + INTRA:         -11.174
REMARK INTER:                 -10.277
REMARK INTRA:                  -0.897
REMARK UNBOUND:                -1.130
REMARK  Name = 
REMARK  7 active torsions:
REMARK  status: ('A' for Active; 'I' for Inactive)
REMARK    1  A    between atoms: C_2  and  C_19
REMARK    2  A    between atoms: N_3  and  C_4
REMARK    3  A    between atoms: C_4  and  C_5
REMARK    4  A    between atoms: C_8  and  C_9
REMARK    5  A    between atoms: C_9  and  N_10
REMARK    6  A    between atoms: N_10  and  C_11
REMARK    7  A    between atoms: C_11  and  C_12
REMARK                            x       y       z     vdW  Elec       q    Type
REMARK                         _______ _______ _______ _____ _____    ______ ____
ROOT
ATOM      1  C   UNL     1      47.791   6.690  13.473  0.00  0.00    +0.000 C 
ENDROOT
BRANCH   1   2
ATOM      2  C   UNL     1      46.781   5.998  12.607  0.00  0.00    +0.000 A 
ATOM      3  C   UNL     1      46.485   6.451  11.318  0.00  0.00    +0.000 A 
ATOM      4  C   UNL     1      45.536   5.784  10.541  0.00  0.00    +0.000 A 
ATOM      5  C   UNL     1      44.897   4.668  11.072  0.00  0.00    +0.000 A 
ATOM      6  N   UNL     1      45.192   4.202  12.316  0.00  0.00    +0.000 NA
ATOM      7  C   UNL     1      46.116   4.864  13.045  0.00  0.00    +0.000 A 
BRANCH   5   8
ATOM      8  C   UNL     1      43.838   3.919  10.261  0.00  0.00    +0.000 C 
BRANCH   8   9
ATOM      9  N   UNL     1      44.310   3.694   8.901  0.00  0.00    +0.000 NA
ATOM     10  H   UNL     1      45.027   4.383   8.676  0.00  0.00    +0.000 HD
BRANCH   9  11
ATOM     11  C   UNL     1      44.693   2.346   8.530  0.00  0.00    +0.000 C 
BRANCH  11  12
ATOM     12  C   UNL     1      46.215   2.390   8.299  0.00  0.00    +0.000 C 
ATOM     13  C   UNL     1      46.625   3.425   7.264  0.00  0.00    +0.000 C 
ATOM     14  C   UNL     1      46.743   2.633   5.984  0.00  0.00    +0.000 C 
ATOM     15  O   UNL     1      47.039   1.280   6.340  0.00  0.00    +0.000 OA
ATOM     16  C   UNL     1      46.794   1.103   7.740  0.00  0.00    +0.000 C 
ENDBRANCH  11  12
ENDBRANCH   9  11
ENDBRANCH   8   9
ENDBRANCH   5   8
ENDBRANCH   1   2
BRANCH   1  19
ATOM     17  O   UNL     1      49.961   6.715  15.273  0.00  0.00    +0.000 OA
ATOM     18  C   UNL     1      48.878   6.275  15.650  0.00  0.00    +0.000 C 
ATOM     19  N   UNL     1      47.791   6.183  14.822  0.00  0.00    +0.000 N 
ATOM     20  H   UNL     1      46.893   5.911  15.205  0.00  0.00    +0.000 HD
BRANCH  18  21
ATOM     21  C   UNL     1      48.687   5.788  17.022  0.00  0.00    +0.000 A 
ATOM     22  C   UNL     1      48.900   4.449  17.319  0.00  0.00    +0.000 A 
ATOM     23  S   UNL     1      48.633   4.063  18.958  0.00  0.00    +0.000 S 
ATOM     24  C   UNL     1      48.269   5.681  19.337  0.00  0.00    +0.000 A 
ATOM     25  N   UNL     1      47.973   6.054  20.613  0.00  0.00    +0.000 NA
ATOM     26  C   UNL     1      47.762   7.315  20.764  0.00  0.00    +0.000 A 
ATOM     27  N   UNL     1      47.809   8.244  19.757  0.00  0.00    +0.000 N 
ATOM     28  C   UNL     1      48.040   7.907  18.445  0.00  0.00    +0.000 A 
ATOM     29  O   UNL     1      47.969   8.744  17.551  0.00  0.00    +0.000 OA
ATOM     30  C   UNL     1      48.323   6.500  18.224  0.00  0.00    +0.000 A 
ATOM     31  H   UNL     1      47.608   9.215  19.939  0.00  0.00    +0.000 HD
ENDBRANCH  18  21
ENDBRANCH   1  19
TORSDOF 7
ENDMDL
MODEL 4
REMARK VINA RESULT:    -6.884      2.636      3.490
REMARK INTER + INTRA:         -10.831
REMARK INTER:                  -9.104
REMARK INTRA:                  -1.727
REMARK UNBOUND:                -1.130
REMARK  Name = 
REMARK  7 active torsions:
REMARK  status: ('A' for Active; 'I' for Inactive)
REMARK    1  A    between atoms: C_2  and  C_19
REMARK    2  A    between atoms: N_3  and  C_4
REMARK    3  A    between atoms: C_4  and  C_5
REMARK    4  A    between atoms: C_8  and  C_9
REMARK    5  A    between atoms: C_9  and  N_10
REMARK    6  A    between atoms: N_10  and  C_11
REMARK    7  A    between atoms: C_11  and  C_12
REMARK                            x       y       z     vdW  Elec       q    Type
REMARK                         _______ _______ _______ _____ _____    ______ ____
ROOT
ATOM      1  C   UNL     1      49.129   7.966  13.450  0.00  0.00    +0.000 C 
ENDROOT
BRANCH   1   2
ATOM      2  C   UNL     1      47.759   7.847  12.852  0.00  0.00    +0.000 A 
ATOM      3  C   UNL     1      47.442   6.843  11.933  0.00  0.00    +0.000 A 
ATOM      4  C   UNL     1      46.156   6.767  11.394  0.00  0.00    +0.000 A 
ATOM      5  C   UNL     1      45.206   7.702  11.787  0.00  0.00    +0.000 A 
ATOM      6  N   UNL     1      45.493   8.671  12.698  0.00  0.00    +0.000 NA
ATOM      7  C   UNL     1      46.743   8.721  13.206  0.00  0.00    +0.000 A 
BRANCH   5   8
ATOM      8  C   UNL     1      43.791   7.665  11.207  0.00  0.00    +0.000 C 
BRANCH   8   9
ATOM      9  N   UNL     1      43.433   6.301  10.837  0.00  0.00    +0.000 NA
ATOM     10  H   UNL     1      44.267   5.811  10.514  0.00  0.00    +0.000 HD
BRANCH   9  11
ATOM     11  C   UNL     1      42.657   5.523  11.783  0.00  0.00    +0.000 C 
BRANCH  11  12
ATOM     12  C   UNL     1      42.957   4.048  11.459  0.00  0.00    +0.000 C 
ATOM     13  C   UNL     1      43.621   3.313  12.614  0.00  0.00    +0.000 C 
ATOM     14  C   UNL     1      45.093   3.384  12.291  0.00  0.00    +0.000 C 
ATOM     15  O   UNL     1      45.219   3.512  10.873  0.00  0.00    +0.000 OA
ATOM     16  C   UNL     1      43.942   3.851  10.321  0.00  0.00    +0.000 C 
ENDBRANCH  11  12
ENDBRANCH   9  11
ENDBRANCH   8   9
ENDBRANCH   5   8
ENDBRANCH   1   2
BRANCH   1  19
ATOM     17  O   UNL     1      48.711   8.602  16.164  0.00  0.00    +0.000 OA
ATOM     18  C   UNL     1      49.042   7.459  15.864  0.00  0.00    +0.000 C 
ATOM     19  N   UNL     1      49.311   7.083  14.575  0.00  0.00    +0.000 N 
ATOM     20  H   UNL     1      49.479   6.106  14.364  0.00  0.00    +0.000 HD
BRANCH  18  21
ATOM     21  C   UNL     1      49.198   6.416  16.886  0.00  0.00    +0.000 A 
ATOM     22  C   UNL     1      50.046   6.623  17.965  0.00  0.00    +0.000 A 
ATOM     23  S   UNL     1      50.103   5.309  19.051  0.00  0.00    +0.000 S 
ATOM     24  C   UNL     1      48.961   4.436  18.140  0.00  0.00    +0.000 A 
ATOM     25  N   UNL     1      48.532   3.208  18.543  0.00  0.00    +0.000 NA
ATOM     26  C   UNL     1      47.636   2.682  17.785  0.00  0.00    +0.000 A 
ATOM     27  N   UNL     1      47.129   3.262  16.650  0.00  0.00    +0.000 N 
ATOM     28  C   UNL     1      47.577   4.469  16.169  0.00  0.00    +0.000 A 
ATOM     29  O   UNL     1      47.183   4.911  15.095  0.00  0.00    +0.000 OA
ATOM     30  C   UNL     1      48.562   5.126  17.009  0.00  0.00    +0.000 A 
ATOM     31  H   UNL     1      46.445   2.783  16.085  0.00  0.00    +0.000 HD
ENDBRANCH  18  21
ENDBRANCH   1  19
TORSDOF 7
ENDMDL
MODEL 5
REMARK VINA RESULT:    -6.883      3.420      7.838
REMARK INTER + INTRA:         -10.829
REMARK INTER:                  -9.523
REMARK INTRA:                  -1.306
REMARK UNBOUND:                -1.130
REMARK  Name = 
REMARK  7 active torsions:
REMARK  status: ('A' for Active; 'I' for Inactive)
REMARK    1  A    between atoms: C_2  and  C_19
REMARK    2  A    between atoms: N_3  and  C_4
REMARK    3  A    between atoms: C_4  and  C_5
REMARK    4  A    between atoms: C_8  and  C_9
REMARK    5  A    between atoms: C_9  and  N_10
REMARK    6  A    between atoms: N_10  and  C_11
REMARK    7  A    between atoms: C_11  and  C_12
REMARK                            x       y       z     vdW  Elec       q    Type
REMARK                         _______ _______ _______ _____ _____    ______ ____
ROOT
ATOM      1  C   UNL     1      48.340   7.907  12.294  0.00  0.00    +0.000 C 
ENDROOT
BRANCH   1   2
ATOM      2  C   UNL     1      49.029   7.530  13.571  0.00  0.00    +0.000 A 
ATOM      3  C   UNL     1      50.300   8.014  13.891  0.00  0.00    +0.000 A 
ATOM      4  C   UNL     1      50.914   7.637  15.087  0.00  0.00    +0.000 A 
ATOM      5  C   UNL     1      50.239   6.777  15.947  0.00  0.00    +0.000 A 
ATOM      6  N   UNL     1      48.991   6.317  15.660  0.00  0.00    +0.000 NA
ATOM      7  C   UNL     1      48.419   6.698  14.497  0.00  0.00    +0.000 A 
BRANCH   5   8
ATOM      8  C   UNL     1      50.882   6.327  17.259  0.00  0.00    +0.000 C 
BRANCH   8   9
ATOM      9  N   UNL     1      50.180   5.166  17.793  0.00  0.00    +0.000 NA
ATOM     10  H   UNL     1      49.190   5.235  17.557  0.00  0.00    +0.000 HD
BRANCH   9  11
ATOM     11  C   UNL     1      50.732   3.854  17.519  0.00  0.00    +0.000 C 
BRANCH  11  12
ATOM     12  C   UNL     1      49.592   2.854  17.787  0.00  0.00    +0.000 C 
ATOM     13  C   UNL     1      49.056   2.215  16.515  0.00  0.00    +0.000 C 
ATOM     14  C   UNL     1      47.851   3.055  16.166  0.00  0.00    +0.000 C 
ATOM     15  O   UNL     1      47.361   3.631  17.379  0.00  0.00    +0.000 OA
ATOM     16  C   UNL     1      48.352   3.478  18.401  0.00  0.00    +0.000 C 
ENDBRANCH  11  12
ENDBRANCH   9  11
ENDBRANCH   8   9
ENDBRANCH   5   8
ENDBRANCH   1   2
BRANCH   1  19
ATOM     17  O   UNL     1      45.573   7.908  11.751  0.00  0.00    +0.000 OA
ATOM     18  C   UNL     1      46.236   6.915  11.468  0.00  0.00    +0.000 C 
ATOM     19  N   UNL     1      47.574   6.817  11.744  0.00  0.00    +0.000 N 
ATOM     20  H   UNL     1      48.098   6.022  11.399  0.00  0.00    +0.000 HD
BRANCH  18  21
ATOM     21  C   UNL     1      45.622   5.743  10.831  0.00  0.00    +0.000 A 
ATOM     22  C   UNL     1      45.835   5.495   9.481  0.00  0.00    +0.000 A 
ATOM     23  S   UNL     1      45.048   4.094   8.912  0.00  0.00    +0.000 S 
ATOM     24  C   UNL     1      44.433   3.744  10.460  0.00  0.00    +0.000 A 
ATOM     25  N   UNL     1      43.678   2.632  10.681  0.00  0.00    +0.000 NA
ATOM     26  C   UNL     1      43.318   2.468  11.905  0.00  0.00    +0.000 A 
ATOM     27  N   UNL     1      43.631   3.316  12.936  0.00  0.00    +0.000 N 
ATOM     28  C   UNL     1      44.335   4.483  12.750  0.00  0.00    +0.000 A 
ATOM     29  O   UNL     1      44.507   5.275  13.671  0.00  0.00    +0.000 OA
ATOM     30  C   UNL     1      44.800   4.697  11.392  0.00  0.00    +0.000 A 
ATOM     31  H   UNL     1      43.294   3.143  13.870  0.00  0.00    +0.000 HD
ENDBRANCH  18  21
ENDBRANCH   1  19
TORSDOF 7
ENDMDL
MODEL 6
REMARK VINA RESULT:    -6.786      2.071      3.523
REMARK INTER + INTRA:         -10.693
REMARK INTER:                  -9.626
REMARK INTRA:                  -1.067
REMARK UNBOUND:                -1.130
REMARK  Name = 
REMARK  7 active torsions:
REMARK  status: ('A' for Active; 'I' for Inactive)
REMARK    1  A    between atoms: C_2  and  C_19
REMARK    2  A    between atoms: N_3  and  C_4
REMARK    3  A    between atoms: C_4  and  C_5
REMARK    4  A    between atoms: C_8  and  C_9
REMARK    5  A    between atoms: C_9  and  N_10
REMARK    6  A    between atoms: N_10  and  C_11
REMARK    7  A    between atoms: C_11  and  C_12
REMARK                            x       y       z     vdW  Elec       q    Type
REMARK                         _______ _______ _______ _____ _____    ______ ____
ROOT
ATOM      1  C   UNL     1      46.981   4.605  14.568  0.00  0.00    +0.000 C 
ENDROOT
BRANCH   1   2
ATOM      2  C   UNL     1      46.209   4.635  13.283  0.00  0.00    +0.000 A 
ATOM      3  C   UNL     1      46.091   5.802  12.524  0.00  0.00    +0.000 A 
ATOM      4  C   UNL     1      45.360   5.793  11.334  0.00  0.00    +0.000 A 
ATOM      5  C   UNL     1      44.757   4.609  10.924  0.00  0.00    +0.000 A 
ATOM      6  N   UNL     1      44.884   3.459  11.641  0.00  0.00    +0.000 NA
ATOM      7  C   UNL     1      45.598   3.494  12.786  0.00  0.00    +0.000 A 
BRANCH   5   8
ATOM      8  C   UNL     1      43.934   4.560   9.636  0.00  0.00    +0.000 C 
BRANCH   8   9
ATOM      9  N   UNL     1      44.808   4.373   8.484  0.00  0.00    +0.000 NA
ATOM     10  H   UNL     1      45.707   4.816   8.670  0.00  0.00    +0.000 HD
BRANCH   9  11
ATOM     11  C   UNL     1      44.943   3.034   7.946  0.00  0.00    +0.000 C 
BRANCH  11  12
ATOM     12  C   UNL     1      46.451   2.723   7.965  0.00  0.00    +0.000 C 
ATOM     13  C   UNL     1      47.221   3.472   6.887  0.00  0.00    +0.000 C 
ATOM     14  C   UNL     1      47.322   2.477   5.756  0.00  0.00    +0.000 C 
ATOM     15  O   UNL     1      47.250   1.168   6.325  0.00  0.00    +0.000 OA
ATOM     16  C   UNL     1      46.788   1.272   7.676  0.00  0.00    +0.000 C 
ENDBRANCH  11  12
ENDBRANCH   9  11
ENDBRANCH   8   9
ENDBRANCH   5   8
ENDBRANCH   1   2
BRANCH   1  19
ATOM     17  O   UNL     1      49.086   5.079  16.382  0.00  0.00    +0.000 OA
ATOM     18  C   UNL     1      48.627   6.021  15.742  0.00  0.00    +0.000 C 
ATOM     19  N   UNL     1      47.573   5.882  14.879  0.00  0.00    +0.000 N 
ATOM     20  H   UNL     1      47.297   6.664  14.298  0.00  0.00    +0.000 HD
BRANCH  18  21
ATOM     21  C   UNL     1      49.168   7.378  15.885  0.00  0.00    +0.000 A 
ATOM     22  C   UNL     1      49.238   7.969  17.140  0.00  0.00    +0.000 A 
ATOM     23  S   UNL     1      49.893   9.543  17.118  0.00  0.00    +0.000 S 
ATOM     24  C   UNL     1      50.151   9.472  15.437  0.00  0.00    +0.000 A 
ATOM     25  N   UNL     1      50.727  10.510  14.770  0.00  0.00    +0.000 NA
ATOM     26  C   UNL     1      50.902  10.302  13.512  0.00  0.00    +0.000 A 
ATOM     27  N   UNL     1      50.547   9.156  12.849  0.00  0.00    +0.000 N 
ATOM     28  C   UNL     1      49.904   8.109  13.466  0.00  0.00    +0.000 A 
ATOM     29  O   UNL     1      49.502   7.143  12.825  0.00  0.00    +0.000 OA
ATOM     30  C   UNL     1      49.717   8.274  14.896  0.00  0.00    +0.000 A 
ATOM     31  H   UNL     1      50.688   9.068  11.854  0.00  0.00    +0.000 HD
ENDBRANCH  18  21
ENDBRANCH   1  19
TORSDOF 7
ENDMDL
MODEL 7
REMARK VINA RESULT:    -6.745      4.032      8.998
REMARK INTER + INTRA:         -10.635
REMARK INTER:                  -9.556
REMARK INTRA:                  -1.079
REMARK UNBOUND:                -1.130
REMARK  Name = 
REMARK  7 active torsions:
REMARK  status: ('A' for Active; 'I' for Inactive)
REMARK    1  A    between atoms: C_2  and  C_19
REMARK    2  A    between atoms: N_3  and  C_4
REMARK    3  A    between atoms: C_4  and  C_5
REMARK    4  A    between atoms: C_8  and  C_9
REMARK    5  A    between atoms: C_9  and  N_10
REMARK    6  A    between atoms: N_10  and  C_11
REMARK    7  A    between atoms: C_11  and  C_12
REMARK                            x       y       z     vdW  Elec       q    Type
REMARK                         _______ _______ _______ _____ _____    ______ ____
ROOT
ATOM      1  C   UNL     1      47.311   3.598  16.673  0.00  0.00    +0.000 C 
ENDROOT
BRANCH   1   2
ATOM      2  C   UNL     1      48.739   3.876  17.034  0.00  0.00    +0.000 A 
ATOM      3  C   UNL     1      49.645   2.845  17.293  0.00  0.00    +0.000 A 
ATOM      4  C   UNL     1      50.967   3.142  17.632  0.00  0.00    +0.000 A 
ATOM      5  C   UNL     1      51.360   4.474  17.704  0.00  0.00    +0.000 A 
ATOM      6  N   UNL     1      50.494   5.488  17.431  0.00  0.00    +0.000 NA
ATOM      7  C   UNL     1      49.222   5.173  17.105  0.00  0.00    +0.000 A 
BRANCH   5   8
ATOM      8  C   UNL     1      52.793   4.843  18.088  0.00  0.00    +0.000 C 
BRANCH   8   9
ATOM      9  N   UNL     1      53.579   3.638  18.325  0.00  0.00    +0.000 NA
ATOM     10  H   UNL     1      52.956   2.831  18.350  0.00  0.00    +0.000 HD
BRANCH   9  11
ATOM     11  C   UNL     1      54.749   3.418  17.498  0.00  0.00    +0.000 C 
BRANCH  11  12
ATOM     12  C   UNL     1      55.245   2.001  17.841  0.00  0.00    +0.000 C 
ATOM     13  C   UNL     1      54.920   0.983  16.758  0.00  0.00    +0.000 C 
ATOM     14  C   UNL     1      53.640   0.341  17.235  0.00  0.00    +0.000 C 
ATOM     15  O   UNL     1      53.605   0.456  18.660  0.00  0.00    +0.000 OA
ATOM     16  C   UNL     1      54.597   1.400  19.076  0.00  0.00    +0.000 C 
ENDBRANCH  11  12
ENDBRANCH   9  11
ENDBRANCH   8   9
ENDBRANCH   5   8
ENDBRANCH   1   2
BRANCH   1  19
ATOM     17  O   UNL     1      47.236   3.234  13.878  0.00  0.00    +0.000 OA
ATOM     18  C   UNL     1      46.760   4.259  14.359  0.00  0.00    +0.000 C 
ATOM     19  N   UNL     1      46.802   4.533  15.700  0.00  0.00    +0.000 N 
ATOM     20  H   UNL     1      46.306   5.339  16.061  0.00  0.00    +0.000 HD
BRANCH  18  21
ATOM     21  C   UNL     1      46.134   5.281  13.512  0.00  0.00    +0.000 A 
ATOM     22  C   UNL     1      46.835   6.433  13.180  0.00  0.00    +0.000 A 
ATOM     23  S   UNL     1      45.955   7.507  12.190  0.00  0.00    +0.000 S 
ATOM     24  C   UNL     1      44.623   6.449  12.132  0.00  0.00    +0.000 A 
ATOM     25  N   UNL     1      43.512   6.757  11.408  0.00  0.00    +0.000 NA
ATOM     26  C   UNL     1      42.601   5.848  11.417  0.00  0.00    +0.000 A 
ATOM     27  N   UNL     1      42.688   4.657  12.090  0.00  0.00    +0.000 N 
ATOM     28  C   UNL     1      43.760   4.330  12.886  0.00  0.00    +0.000 A 
ATOM     29  O   UNL     1      43.762   3.306  13.561  0.00  0.00    +0.000 OA
ATOM     30  C   UNL     1      44.836   5.304  12.880  0.00  0.00    +0.000 A 
ATOM     31  H   UNL     1      41.925   3.998  12.077  0.00  0.00    +0.000 HD
ENDBRANCH  18  21
ENDBRANCH   1  19
TORSDOF 7
ENDMDL
MODEL 8
REMARK VINA RESULT:    -6.521      2.856      8.560
REMARK INTER + INTRA:         -10.319
REMARK INTER:                  -8.987
REMARK INTRA:                  -1.332
REMARK UNBOUND:                -1.130
REMARK  Name = 
REMARK  7 active torsions:
REMARK  status: ('A' for Active; 'I' for Inactive)
REMARK    1  A    between atoms: C_2  and  C_19
REMARK    2  A    between atoms: N_3  and  C_4
REMARK    3  A    between atoms: C_4  and  C_5
REMARK    4  A    between atoms: C_8  and  C_9
REMARK    5  A    between atoms: C_9  and  N_10
REMARK    6  A    between atoms: N_10  and  C_11
REMARK    7  A    between atoms: C_11  and  C_12
REMARK                            x       y       z     vdW  Elec       q    Type
REMARK                         _______ _______ _______ _____ _____    ______ ____
ROOT
ATOM      1  C   UNL     1      47.429   7.649  12.045  0.00  0.00    +0.000 C 
ENDROOT
BRANCH   1   2
ATOM      2  C   UNL     1      48.200   7.596  13.329  0.00  0.00    +0.000 A 
ATOM      3  C   UNL     1      48.917   8.698  13.802  0.00  0.00    +0.000 A 
ATOM      4  C   UNL     1      49.628   8.611  15.001  0.00  0.00    +0.000 A 
ATOM      5  C   UNL     1      49.607   7.414  15.710  0.00  0.00    +0.000 A 
ATOM      6  N   UNL     1      48.894   6.340  15.273  0.00  0.00    +0.000 NA
ATOM      7  C   UNL     1      48.214   6.452  14.112  0.00  0.00    +0.000 A 
BRANCH   5   8
ATOM      8  C   UNL     1      50.385   7.270  17.018  0.00  0.00    +0.000 C 
BRANCH   8   9
ATOM      9  N   UNL     1      49.602   6.520  17.992  0.00  0.00    +0.000 NA
ATOM     10  H   UNL     1      48.627   6.501  17.695  0.00  0.00    +0.000 HD
BRANCH   9  11
ATOM     11  C   UNL     1      50.091   5.215  18.395  0.00  0.00    +0.000 C 
BRANCH  11  12
ATOM     12  C   UNL     1      48.872   4.467  18.964  0.00  0.00    +0.000 C 
ATOM     13  C   UNL     1      48.562   3.183  18.210  0.00  0.00    +0.000 C 
ATOM     14  C   UNL     1      47.493   3.589  17.225  0.00  0.00    +0.000 C 
ATOM     15  O   UNL     1      46.805   4.716  17.775  0.00  0.00    +0.000 OA
ATOM     16  C   UNL     1      47.569   5.241  18.865  0.00  0.00    +0.000 C 
ENDBRANCH  11  12
ENDBRANCH   9  11
ENDBRANCH   8   9
ENDBRANCH   5   8
ENDBRANCH   1   2
BRANCH   1  19
ATOM     17  O   UNL     1      44.636   7.267  12.074  0.00  0.00    +0.000 OA
ATOM     18  C   UNL     1      45.364   6.327  11.767  0.00  0.00    +0.000 C 
ATOM     19  N   UNL     1      46.730   6.417  11.777  0.00  0.00    +0.000 N 
ATOM     20  H   UNL     1      47.284   5.649  11.417  0.00  0.00    +0.000 HD
BRANCH  18  21
ATOM     21  C   UNL     1      44.807   5.021  11.392  0.00  0.00    +0.000 A 
ATOM     22  C   UNL     1      44.001   4.328  12.285  0.00  0.00    +0.000 A 
ATOM     23  S   UNL     1      43.442   2.833  11.682  0.00  0.00    +0.000 S 
ATOM     24  C   UNL     1      44.221   3.082  10.190  0.00  0.00    +0.000 A 
ATOM     25  N   UNL     1      44.119   2.169   9.184  0.00  0.00    +0.000 NA
ATOM     26  C   UNL     1      44.720   2.506   8.097  0.00  0.00    +0.000 A 
ATOM     27  N   UNL     1      45.425   3.668   7.918  0.00  0.00    +0.000 N 
ATOM     28  C   UNL     1      45.610   4.587   8.923  0.00  0.00    +0.000 A 
ATOM     29  O   UNL     1      46.336   5.564   8.765  0.00  0.00    +0.000 OA
ATOM     30  C   UNL     1      44.920   4.275  10.161  0.00  0.00    +0.000 A 
ATOM     31  H   UNL     1      45.896   3.859   7.046  0.00  0.00    +0.000 HD
ENDBRANCH  18  21
ENDBRANCH   1  19
TORSDOF 7
ENDMDL
MODEL 9
REMARK VINA RESULT:    -6.419      3.608      7.805
REMARK INTER + INTRA:         -10.176
REMARK INTER:                  -8.403
REMARK INTRA:                  -1.773
REMARK UNBOUND:                -1.130
REMARK  Name = 
REMARK  7 active torsions:
REMARK  status: ('A' for Active; 'I' for Inactive)
REMARK    1  A    between atoms: C_2  and  C_19
REMARK    2  A    between atoms: N_3  and  C_4
REMARK    3  A    between atoms: C_4  and  C_5
REMARK    4  A    between atoms: C_8  and  C_9
REMARK    5  A    between atoms: C_9  and  N_10
REMARK    6  A    between atoms: N_10  and  C_11
REMARK    7  A    between atoms: C_11  and  C_12
REMARK                            x       y       z     vdW  Elec       q    Type
REMARK                         _______ _______ _______ _____ _____    ______ ____
ROOT
ATOM      1  C   UNL     1      47.908   8.948  14.383  0.00  0.00    +0.000 C 
ENDROOT
BRANCH   1   2
ATOM      2  C   UNL     1      48.778   8.140  15.299  0.00  0.00    +0.000 A 
ATOM      3  C   UNL     1      48.582   8.134  16.682  0.00  0.00    +0.000 A 
ATOM      4  C   UNL     1      49.414   7.372  17.505  0.00  0.00    +0.000 A 
ATOM      5  C   UNL     1      50.434   6.626  16.924  0.00  0.00    +0.000 A 
ATOM      6  N   UNL     1      50.622   6.604  15.576  0.00  0.00    +0.000 NA
ATOM      7  C   UNL     1      49.801   7.347  14.803  0.00  0.00    +0.000 A 
BRANCH   5   8
ATOM      8  C   UNL     1      51.379   5.792  17.790  0.00  0.00    +0.000 C 
BRANCH   8   9
ATOM      9  N   UNL     1      50.658   4.679  18.395  0.00  0.00    +0.000 NA
ATOM     10  H   UNL     1      49.813   5.030  18.844  0.00  0.00    +0.000 HD
BRANCH   9  11
ATOM     11  C   UNL     1      50.414   3.505  17.580  0.00  0.00    +0.000 C 
BRANCH  11  12
ATOM     12  C   UNL     1      49.000   3.023  17.950  0.00  0.00    +0.000 C 
ATOM     13  C   UNL     1      48.046   3.024  16.765  0.00  0.00    +0.000 C 
ATOM     14  C   UNL     1      47.318   4.341  16.886  0.00  0.00    +0.000 C 
ATOM     15  O   UNL     1      47.333   4.717  18.266  0.00  0.00    +0.000 OA
ATOM     16  C   UNL     1      48.289   3.907  18.959  0.00  0.00    +0.000 C 
ENDBRANCH  11  12
ENDBRANCH   9  11
ENDBRANCH   8   9
ENDBRANCH   5   8
ENDBRANCH   1   2
BRANCH   1  19
ATOM     17  O   UNL     1      47.773   7.685  11.865  0.00  0.00    +0.000 OA
ATOM     18  C   UNL     1      46.833   7.562  12.646  0.00  0.00    +0.000 C 
ATOM     19  N   UNL     1      46.801   8.183  13.866  0.00  0.00    +0.000 N 
ATOM     20  H   UNL     1      46.054   7.969  14.516  0.00  0.00    +0.000 HD
BRANCH  18  21
ATOM     21  C   UNL     1      45.657   6.751  12.304  0.00  0.00    +0.000 A 
ATOM     22  C   UNL     1      44.550   7.349  11.717  0.00  0.00    +0.000 A 
ATOM     23  S   UNL     1      43.280   6.259  11.388  0.00  0.00    +0.000 S 
ATOM     24  C   UNL     1      44.185   4.942  11.976  0.00  0.00    +0.000 A 
ATOM     25  N   UNL     1      43.681   3.678  11.953  0.00  0.00    +0.000 NA
ATOM     26  C   UNL     1      44.489   2.774  12.386  0.00  0.00    +0.000 A 
ATOM     27  N   UNL     1      45.756   3.013  12.852  0.00  0.00    +0.000 N 
ATOM     28  C   UNL     1      46.284   4.278  12.954  0.00  0.00    +0.000 A 
ATOM     29  O   UNL     1      47.378   4.471  13.475  0.00  0.00    +0.000 OA
ATOM     30  C   UNL     1      45.428   5.333  12.442  0.00  0.00    +0.000 A 
ATOM     31  H   UNL     1      46.329   2.261  13.202  0.00  0.00    +0.000 HD
ENDBRANCH  18  21
ENDBRANCH   1  19
TORSDOF 7
ENDMDL
