MODEL 1
REMARK VINA RESULT:    -7.959      0.000      0.000
REMARK INTER + INTRA:         -10.920
REMARK INTER:                 -10.519
REMARK INTRA:                  -0.401
REMARK UNBOUND:                -0.401
REMARK  Name = 
REMARK  6 active torsions:
REMARK  status: ('A' for Active; 'I' for Inactive)
REMARK    1  A    between atoms: N_1  and  C_2
REMARK    2  A    between atoms: C_2  and  C_3
REMARK    3  A    between atoms: C_6  and  C_7
REMARK    4  A    between atoms: C_7  and  S_8
REMARK    5  A    between atoms: S_8  and  C_9
REMARK    6  A    between atoms: C_13  and  C_14
REMARK                            x       y       z     vdW  Elec       q    Type
REMARK                         _______ _______ _______ _____ _____    ______ ____
ROOT
ATOM      1  S   UNL     1      43.688   4.420  10.953  0.00  0.00    +0.000 S 
ENDROOT
BRANCH   1   2
ATOM      2  C   UNL     1      45.093   4.984  11.884  0.00  0.00    +0.000 A 
ATOM      3  N   UNL     1      45.620   6.141  11.436  0.00  0.00    +0.000 NA
ATOM      4  C   UNL     1      46.665   6.656  12.105  0.00  0.00    +0.000 A 
ATOM      5  C   UNL     1      47.208   6.060  13.207  0.00  0.00    +0.000 A 
ATOM      6  C   UNL     1      46.607   4.879  13.585  0.00  0.00    +0.000 A 
ATOM      7  N   UNL     1      45.546   4.305  12.949  0.00  0.00    +0.000 NA
BRANCH   6   8
ATOM      8  C   UNL     1      47.155   4.173  14.786  0.00  0.00    +0.000 C 
ATOM      9  N   UNL     1      47.177   4.892  15.947  0.00  0.00    +0.000 N 
ATOM     10  O   UNL     1      47.563   3.017  14.739  0.00  0.00    +0.000 OA
ATOM     11  H   UNL     1      46.829   5.839  15.970  0.00  0.00    +0.000 HD
ATOM     12  H   UNL     1      47.534   4.455  16.787  0.00  0.00    +0.000 HD
ENDBRANCH   6   8
ENDBRANCH   1   2
BRANCH   1  13
ATOM     13  C   UNL     1      44.176   2.737  10.474  0.00  0.00    +0.000 C 
BRANCH  13  17
ATOM     14  C   UNL     1      46.589   2.697   6.843  0.00  0.00    +0.000 A 
ATOM     15  C   UNL     1      45.961   3.873   7.273  0.00  0.00    +0.000 A 
ATOM     16  C   UNL     1      45.179   3.888   8.434  0.00  0.00    +0.000 A 
ATOM     17  C   UNL     1      44.991   2.721   9.193  0.00  0.00    +0.000 A 
ATOM     18  C   UNL     1      45.609   1.542   8.753  0.00  0.00    +0.000 A 
ATOM     19  C   UNL     1      46.397   1.531   7.594  0.00  0.00    +0.000 A 
BRANCH  14  20
ATOM     20  C   UNL     1      47.441   2.695   5.597  0.00  0.00    +0.000 C 
BRANCH  20  21
ATOM     21  N   UNL     1      48.564   1.771   5.718  0.00  0.00    +0.000 NA
ATOM     22  H   UNL     1      48.922   1.801   6.670  0.00  0.00    +0.000 HD
ATOM     23  H   UNL     1      49.318   2.092   5.114  0.00  0.00    +0.000 HD
ENDBRANCH  20  21
ENDBRANCH  14  20
ENDBRANCH  13  17
ENDBRANCH   1  13
TORSDOF 6
ENDMDL
MODEL 2
REMARK VINA RESULT:    -7.655      1.945      2.437
REMARK INTER + INTRA:         -10.517
REMARK INTER:                 -10.100
REMARK INTRA:                  -0.416
REMARK UNBOUND:                -0.401
REMARK  Name = 
REMARK  6 active torsions:
REMARK  status: ('A' for Active; 'I' for Inactive)
REMARK    1  A    between atoms: N_1  and  C_2
REMARK    2  A    between atoms: C_2  and  C_3
REMARK    3  A    between atoms: C_6  and  C_7
REMARK    4  A    between atoms: C_7  and  S_8
REMARK    5  A    between atoms: S_8  and  C_9
REMARK    6  A    between atoms: C_13  and  C_14
REMARK                            x       y       z     vdW  Elec       q    Type
REMARK                         _______ _______ _______ _____ _____    ______ ____
ROOT
ATOM      1  S   UNL     1      43.885   3.337  11.870  0.00  0.00    +0.000 S 
ENDROOT
BRANCH   1   2
ATOM      2  C   UNL     1      45.088   4.399  12.634  0.00  0.00    +0.000 A 
ATOM      3  N   UNL     1      46.014   3.745  13.363  0.00  0.00    +0.000 NA
ATOM      4  C   UNL     1      46.982   4.470  13.947  0.00  0.00    +0.000 A 
ATOM      5  C   UNL     1      47.064   5.829  13.832  0.00  0.00    +0.000 A 
ATOM      6  C   UNL     1      46.070   6.409  13.074  0.00  0.00    +0.000 A 
ATOM      7  N   UNL     1      45.062   5.729  12.458  0.00  0.00    +0.000 NA
BRANCH   6   8
ATOM      8  C   UNL     1      46.101   7.896  12.910  0.00  0.00    +0.000 C 
ATOM      9  N   UNL     1      46.644   8.604  13.943  0.00  0.00    +0.000 N 
ATOM     10  O   UNL     1      45.664   8.456  11.909  0.00  0.00    +0.000 OA
ATOM     11  H   UNL     1      47.007   8.128  14.755  0.00  0.00    +0.000 HD
ATOM     12  H   UNL     1      46.692   9.612  13.876  0.00  0.00    +0.000 HD
ENDBRANCH   6   8
ENDBRANCH   1   2
BRANCH   1  13
ATOM     13  C   UNL     1      43.728   4.047  10.205  0.00  0.00    +0.000 C 
BRANCH  13  17
ATOM     14  C   UNL     1      46.652   2.316   7.473  0.00  0.00    +0.000 A 
ATOM     15  C   UNL     1      46.411   3.696   7.485  0.00  0.00    +0.000 A 
ATOM     16  C   UNL     1      45.467   4.255   8.355  0.00  0.00    +0.000 A 
ATOM     17  C   UNL     1      44.726   3.445   9.231  0.00  0.00    +0.000 A 
ATOM     18  C   UNL     1      44.957   2.063   9.207  0.00  0.00    +0.000 A 
ATOM     19  C   UNL     1      45.908   1.506   8.340  0.00  0.00    +0.000 A 
BRANCH  14  20
ATOM     20  C   UNL     1      47.680   1.725   6.540  0.00  0.00    +0.000 C 
BRANCH  20  21
ATOM     21  N   UNL     1      48.710   2.699   6.193  0.00  0.00    +0.000 NA
ATOM     22  H   UNL     1      49.613   2.365   6.522  0.00  0.00    +0.000 HD
ATOM     23  H   UNL     1      48.522   3.566   6.691  0.00  0.00    +0.000 HD
ENDBRANCH  20  21
ENDBRANCH  14  20
ENDBRANCH  13  17
ENDBRANCH   1  13
TORSDOF 6
ENDMDL
MODEL 3
REMARK VINA RESULT:    -7.294      1.655      1.926
REMARK INTER + INTRA:         -10.041
REMARK INTER:                  -9.602
REMARK INTRA:                  -0.439
REMARK UNBOUND:                -0.401
REMARK  Name = 
REMARK  6 active torsions:
REMARK  status: ('A' for Active; 'I' for Inactive)
REMARK    1  A    between atoms: N_1  and  C_2
REMARK    2  A    between atoms: C_2  and  C_3
REMARK    3  A    between atoms: C_6  and  C_7
REMARK    4  A    between atoms: C_7  and  S_8
REMARK    5  A    between atoms: S_8  and  C_9
REMARK    6  A    between atoms: C_13  and  C_14
REMARK                            x       y       z     vdW  Elec       q    Type
REMARK                         _______ _______ _______ _____ _____    ______ ____
ROOT
ATOM      1  S   UNL     1      44.366   4.062  11.998  0.00  0.00    +0.000 S 
ENDROOT
BRANCH   1   2
ATOM      2  C   UNL     1      45.381   5.509  12.186  0.00  0.00    +0.000 A 
ATOM      3  N   UNL     1      44.786   6.652  11.790  0.00  0.00    +0.000 NA
ATOM      4  C   UNL     1      45.472   7.798  11.931  0.00  0.00    +0.000 A 
ATOM      5  C   UNL     1      46.732   7.850  12.454  0.00  0.00    +0.000 A 
ATOM      6  C   UNL     1      47.259   6.632  12.824  0.00  0.00    +0.000 A 
ATOM      7  N   UNL     1      46.616   5.436  12.706  0.00  0.00    +0.000 NA
BRANCH   6   8
ATOM      8  C   UNL     1      48.639   6.619  13.403  0.00  0.00    +0.000 C 
ATOM      9  N   UNL     1      49.647   7.000  12.564  0.00  0.00    +0.000 N 
ATOM     10  O   UNL     1      48.862   6.286  14.562  0.00  0.00    +0.000 OA
ATOM     11  H   UNL     1      49.445   7.280  11.615  0.00  0.00    +0.000 HD
ATOM     12  H   UNL     1      50.596   7.013  12.912  0.00  0.00    +0.000 HD
ENDBRANCH   6   8
ENDBRANCH   1   2
BRANCH   1  13
ATOM     13  C   UNL     1      43.789   4.200  10.281  0.00  0.00    +0.000 C 
BRANCH  13  17
ATOM     14  C   UNL     1      46.613   2.336   7.531  0.00  0.00    +0.000 A 
ATOM     15  C   UNL     1      46.418   3.723   7.526  0.00  0.00    +0.000 A 
ATOM     16  C   UNL     1      45.506   4.325   8.403  0.00  0.00    +0.000 A 
ATOM     17  C   UNL     1      44.752   3.553   9.301  0.00  0.00    +0.000 A 
ATOM     18  C   UNL     1      44.938   2.163   9.294  0.00  0.00    +0.000 A 
ATOM     19  C   UNL     1      45.856   1.563   8.420  0.00  0.00    +0.000 A 
BRANCH  14  20
ATOM     20  C   UNL     1      47.607   1.699   6.591  0.00  0.00    +0.000 C 
BRANCH  20  21
ATOM     21  N   UNL     1      48.718   2.598   6.296  0.00  0.00    +0.000 NA
ATOM     22  H   UNL     1      49.194   2.840   7.162  0.00  0.00    +0.000 HD
ATOM     23  H   UNL     1      48.344   3.467   5.918  0.00  0.00    +0.000 HD
ENDBRANCH  20  21
ENDBRANCH  14  20
ENDBRANCH  13  17
ENDBRANCH   1  13
TORSDOF 6
ENDMDL
MODEL 4
REMARK VINA RESULT:    -6.995      2.567      3.480
REMARK INTER + INTRA:          -9.645
REMARK INTER:                  -9.263
REMARK INTRA:                  -0.383
REMARK UNBOUND:                -0.401
REMARK  Name = 
REMARK  6 active torsions:
REMARK  status: ('A' for Active; 'I' for Inactive)
REMARK    1  A    between atoms: N_1  and  C_2
REMARK    2  A    between atoms: C_2  and  C_3
REMARK    3  A    between atoms: C_6  and  C_7
REMARK    4  A    between atoms: C_7  and  S_8
REMARK    5  A    between atoms: S_8  and  C_9
REMARK    6  A    between atoms: C_13  and  C_14
REMARK                            x       y       z     vdW  Elec       q    Type
REMARK                         _______ _______ _______ _____ _____    ______ ____
ROOT
ATOM      1  S   UNL     1      44.413   4.748  11.990  0.00  0.00    +0.000 S 
ENDROOT
BRANCH   1   2
ATOM      2  C   UNL     1      45.491   6.156  12.105  0.00  0.00    +0.000 A 
ATOM      3  N   UNL     1      46.799   5.841  12.196  0.00  0.00    +0.000 NA
ATOM      4  C   UNL     1      47.686   6.848  12.251  0.00  0.00    +0.000 A 
ATOM      5  C   UNL     1      47.319   8.163  12.220  0.00  0.00    +0.000 A 
ATOM      6  C   UNL     1      45.962   8.386  12.133  0.00  0.00    +0.000 A 
ATOM      7  N   UNL     1      45.013   7.409  12.074  0.00  0.00    +0.000 NA
BRANCH   6   8
ATOM      8  C   UNL     1      45.492   9.807  12.096  0.00  0.00    +0.000 C 
ATOM      9  N   UNL     1      44.216  10.030  12.529  0.00  0.00    +0.000 N 
ATOM     10  O   UNL     1      46.205  10.724  11.702  0.00  0.00    +0.000 OA
ATOM     11  H   UNL     1      43.646   9.265  12.859  0.00  0.00    +0.000 HD
ATOM     12  H   UNL     1      43.856  10.974  12.528  0.00  0.00    +0.000 HD
ENDBRANCH   6   8
ENDBRANCH   1   2
BRANCH   1  13
ATOM     13  C   UNL     1      43.918   4.766  10.242  0.00  0.00    +0.000 C 
BRANCH  13  17
ATOM     14  C   UNL     1      46.414   2.230   7.723  0.00  0.00    +0.000 A 
ATOM     15  C   UNL     1      45.559   1.669   8.680  0.00  0.00    +0.000 A 
ATOM     16  C   UNL     1      44.762   2.480   9.496  0.00  0.00    +0.000 A 
ATOM     17  C   UNL     1      44.807   3.880   9.387  0.00  0.00    +0.000 A 
ATOM     18  C   UNL     1      45.675   4.440   8.439  0.00  0.00    +0.000 A 
ATOM     19  C   UNL     1      46.467   3.625   7.618  0.00  0.00    +0.000 A 
BRANCH  14  20
ATOM     20  C   UNL     1      47.260   1.346   6.839  0.00  0.00    +0.000 C 
BRANCH  20  21
ATOM     21  N   UNL     1      48.422   2.062   6.321  0.00  0.00    +0.000 NA
ATOM     22  H   UNL     1      48.425   2.007   5.305  0.00  0.00    +0.000 HD
ATOM     23  H   UNL     1      49.266   1.589   6.640  0.00  0.00    +0.000 HD
ENDBRANCH  20  21
ENDBRANCH  14  20
ENDBRANCH  13  17
ENDBRANCH   1  13
TORSDOF 6
ENDMDL
MODEL 5
REMARK VINA RESULT:    -6.293      2.520      6.282
REMARK INTER + INTRA:          -8.717
REMARK INTER:                  -8.205
REMARK INTRA:                  -0.513
REMARK UNBOUND:                -0.401
REMARK  Name = 
REMARK  6 active torsions:
REMARK  status: ('A' for Active; 'I' for Inactive)
REMARK    1  A    between atoms: N_1  and  C_2
REMARK    2  A    between atoms: C_2  and  C_3
REMARK    3  A    between atoms: C_6  and  C_7
REMARK    4  A    between atoms: C_7  and  S_8
REMARK    5  A    between atoms: S_8  and  C_9
REMARK    6  A    between atoms: C_13  and  C_14
REMARK                            x       y       z     vdW  Elec       q    Type
REMARK                         _______ _______ _______ _____ _____    ______ ____
ROOT
ATOM      1  S   UNL     1      42.942   5.397  11.311  0.00  0.00    +0.000 S 
ENDROOT
BRANCH   1   2
ATOM      2  C   UNL     1      43.825   4.170  10.375  0.00  0.00    +0.000 A 
ATOM      3  N   UNL     1      43.559   2.901  10.745  0.00  0.00    +0.000 NA
ATOM      4  C   UNL     1      44.159   1.910  10.065  0.00  0.00    +0.000 A 
ATOM      5  C   UNL     1      45.018   2.135   9.027  0.00  0.00    +0.000 A 
ATOM      6  C   UNL     1      45.232   3.463   8.728  0.00  0.00    +0.000 A 
ATOM      7  N   UNL     1      44.656   4.512   9.379  0.00  0.00    +0.000 NA
BRANCH   6   8
ATOM      8  C   UNL     1      46.165   3.779   7.600  0.00  0.00    +0.000 C 
ATOM      9  N   UNL     1      46.259   2.837   6.616  0.00  0.00    +0.000 N 
ATOM     10  O   UNL     1      46.812   4.820   7.555  0.00  0.00    +0.000 OA
ATOM     11  H   UNL     1      45.712   1.990   6.663  0.00  0.00    +0.000 HD
ATOM     12  H   UNL     1      46.872   3.008   5.831  0.00  0.00    +0.000 HD
ENDBRANCH   6   8
ENDBRANCH   1   2
BRANCH   1  13
ATOM     13  C   UNL     1      43.760   5.328  12.931  0.00  0.00    +0.000 C 
BRANCH  13  17
ATOM     14  C   UNL     1      47.876   6.761  12.823  0.00  0.00    +0.000 A 
ATOM     15  C   UNL     1      46.869   7.423  12.111  0.00  0.00    +0.000 A 
ATOM     16  C   UNL     1      45.547   6.961  12.137  0.00  0.00    +0.000 A 
ATOM     17  C   UNL     1      45.198   5.814  12.866  0.00  0.00    +0.000 A 
ATOM     18  C   UNL     1      46.211   5.143  13.567  0.00  0.00    +0.000 A 
ATOM     19  C   UNL     1      47.532   5.611  13.545  0.00  0.00    +0.000 A 
BRANCH  14  20
ATOM     20  C   UNL     1      49.296   7.274  12.798  0.00  0.00    +0.000 C 
BRANCH  20  21
ATOM     21  N   UNL     1      49.957   7.080  14.084  0.00  0.00    +0.000 NA
ATOM     22  H   UNL     1      50.087   7.983  14.535  0.00  0.00    +0.000 HD
ATOM     23  H   UNL     1      50.888   6.701  13.920  0.00  0.00    +0.000 HD
ENDBRANCH  20  21
ENDBRANCH  14  20
ENDBRANCH  13  17
ENDBRANCH   1  13
TORSDOF 6
ENDMDL
MODEL 6
REMARK VINA RESULT:    -6.195      3.448      4.406
REMARK INTER + INTRA:          -8.588
REMARK INTER:                  -8.273
REMARK INTRA:                  -0.315
REMARK UNBOUND:                -0.401
REMARK  Name = 
REMARK  6 active torsions:
REMARK  status: ('A' for Active; 'I' for Inactive)
REMARK    1  A    between atoms: N_1  and  C_2
REMARK    2  A    between atoms: C_2  and  C_3
REMARK    3  A    between atoms: C_6  and  C_7
REMARK    4  A    between atoms: C_7  and  S_8
REMARK    5  A    between atoms: S_8  and  C_9
REMARK    6  A    between atoms: C_13  and  C_14
REMARK                            x       y       z     vdW  Elec       q    Type
REMARK                         _______ _______ _______ _____ _____    ______ ____
ROOT
ATOM      1  S   UNL     1      45.881   5.839  11.875  0.00  0.00    +0.000 S 
ENDROOT
BRANCH   1   2
ATOM      2  C   UNL     1      45.553   7.584  11.795  0.00  0.00    +0.000 A 
ATOM      3  N   UNL     1      46.537   8.352  12.304  0.00  0.00    +0.000 NA
ATOM      4  C   UNL     1      46.384   9.685  12.251  0.00  0.00    +0.000 A 
ATOM      5  C   UNL     1      45.284  10.286  11.710  0.00  0.00    +0.000 A 
ATOM      6  C   UNL     1      44.330   9.420  11.222  0.00  0.00    +0.000 A 
ATOM      7  N   UNL     1      44.425   8.060  11.246  0.00  0.00    +0.000 NA
BRANCH   6   8
ATOM      8  C   UNL     1      43.097  10.014  10.615  0.00  0.00    +0.000 C 
ATOM      9  N   UNL     1      42.092  10.330  11.485  0.00  0.00    +0.000 N 
ATOM     10  O   UNL     1      42.986  10.209   9.409  0.00  0.00    +0.000 OA
ATOM     11  H   UNL     1      42.203  10.172  12.475  0.00  0.00    +0.000 HD
ATOM     12  H   UNL     1      41.241  10.739  11.123  0.00  0.00    +0.000 HD
ENDBRANCH   6   8
ENDBRANCH   1   2
BRANCH   1  13
ATOM     13  C   UNL     1      44.561   5.137  10.842  0.00  0.00    +0.000 C 
BRANCH  13  17
ATOM     14  C   UNL     1      46.207   2.626   7.681  0.00  0.00    +0.000 A 
ATOM     15  C   UNL     1      46.344   4.019   7.634  0.00  0.00    +0.000 A 
ATOM     16  C   UNL     1      45.810   4.830   8.643  0.00  0.00    +0.000 A 
ATOM     17  C   UNL     1      45.110   4.269   9.724  0.00  0.00    +0.000 A 
ATOM     18  C   UNL     1      44.961   2.875   9.762  0.00  0.00    +0.000 A 
ATOM     19  C   UNL     1      45.503   2.065   8.753  0.00  0.00    +0.000 A 
BRANCH  14  20
ATOM     20  C   UNL     1      46.797   1.761   6.594  0.00  0.00    +0.000 C 
BRANCH  20  21
ATOM     21  N   UNL     1      48.215   1.505   6.824  0.00  0.00    +0.000 NA
ATOM     22  H   UNL     1      48.746   1.798   6.007  0.00  0.00    +0.000 HD
ATOM     23  H   UNL     1      48.356   0.502   6.918  0.00  0.00    +0.000 HD
ENDBRANCH  20  21
ENDBRANCH  14  20
ENDBRANCH  13  17
ENDBRANCH   1  13
TORSDOF 6
ENDMDL
MODEL 7
REMARK VINA RESULT:    -6.125      3.003      7.080
REMARK INTER + INTRA:          -8.495
REMARK INTER:                  -8.248
REMARK INTRA:                  -0.247
REMARK UNBOUND:                -0.401
REMARK  Name = 
REMARK  6 active torsions:
REMARK  status: ('A' for Active; 'I' for Inactive)
REMARK    1  A    between atoms: N_1  and  C_2
REMARK    2  A    between atoms: C_2  and  C_3
REMARK    3  A    between atoms: C_6  and  C_7
REMARK    4  A    between atoms: C_7  and  S_8
REMARK    5  A    between atoms: S_8  and  C_9
REMARK    6  A    between atoms: C_13  and  C_14
REMARK                            x       y       z     vdW  Elec       q    Type
REMARK                         _______ _______ _______ _____ _____    ______ ____
ROOT
ATOM      1  S   UNL     1      45.994   7.523  12.264  0.00  0.00    +0.000 S 
ENDROOT
BRANCH   1   2
ATOM      2  C   UNL     1      44.926   6.141  11.931  0.00  0.00    +0.000 A 
ATOM      3  N   UNL     1      43.950   5.969  12.845  0.00  0.00    +0.000 NA
ATOM      4  C   UNL     1      43.077   4.967  12.650  0.00  0.00    +0.000 A 
ATOM      5  C   UNL     1      43.138   4.127  11.575  0.00  0.00    +0.000 A 
ATOM      6  C   UNL     1      44.172   4.377  10.700  0.00  0.00    +0.000 A 
ATOM      7  N   UNL     1      45.090   5.375  10.842  0.00  0.00    +0.000 NA
BRANCH   6   8
ATOM      8  C   UNL     1      44.298   3.491   9.500  0.00  0.00    +0.000 C 
ATOM      9  N   UNL     1      44.239   4.112   8.285  0.00  0.00    +0.000 N 
ATOM     10  O   UNL     1      44.444   2.277   9.593  0.00  0.00    +0.000 OA
ATOM     11  H   UNL     1      44.128   5.113   8.227  0.00  0.00    +0.000 HD
ATOM     12  H   UNL     1      44.325   3.555   7.446  0.00  0.00    +0.000 HD
ENDBRANCH   6   8
ENDBRANCH   1   2
BRANCH   1  13
ATOM     13  C   UNL     1      47.600   6.724  12.556  0.00  0.00    +0.000 C 
BRANCH  13  17
ATOM     14  C   UNL     1      47.780   4.546  16.328  0.00  0.00    +0.000 A 
ATOM     15  C   UNL     1      47.055   4.039  15.242  0.00  0.00    +0.000 A 
ATOM     16  C   UNL     1      46.988   4.739  14.031  0.00  0.00    +0.000 A 
ATOM     17  C   UNL     1      47.635   5.976  13.877  0.00  0.00    +0.000 A 
ATOM     18  C   UNL     1      48.347   6.489  14.970  0.00  0.00    +0.000 A 
ATOM     19  C   UNL     1      48.418   5.783  16.179  0.00  0.00    +0.000 A 
BRANCH  14  20
ATOM     20  C   UNL     1      47.855   3.778  17.625  0.00  0.00    +0.000 C 
BRANCH  20  21
ATOM     21  N   UNL     1      46.722   2.871  17.777  0.00  0.00    +0.000 NA
ATOM     22  H   UNL     1      46.096   3.233  18.491  0.00  0.00    +0.000 HD
ATOM     23  H   UNL     1      47.064   1.974  18.118  0.00  0.00    +0.000 HD
ENDBRANCH  20  21
ENDBRANCH  14  20
ENDBRANCH  13  17
ENDBRANCH   1  13
TORSDOF 6
ENDMDL
MODEL 8
REMARK VINA RESULT:    -6.097      2.708      3.969
REMARK INTER + INTRA:          -8.458
REMARK INTER:                  -8.065
REMARK INTRA:                  -0.393
REMARK UNBOUND:                -0.401
REMARK  Name = 
REMARK  6 active torsions:
REMARK  status: ('A' for Active; 'I' for Inactive)
REMARK    1  A    between atoms: N_1  and  C_2
REMARK    2  A    between atoms: C_2  and  C_3
REMARK    3  A    between atoms: C_6  and  C_7
REMARK    4  A    between atoms: C_7  and  S_8
REMARK    5  A    between atoms: S_8  and  C_9
REMARK    6  A    between atoms: C_13  and  C_14
REMARK                            x       y       z     vdW  Elec       q    Type
REMARK                         _______ _______ _______ _____ _____    ______ ____
ROOT
ATOM      1  S   UNL     1      47.863   6.831  12.883  0.00  0.00    +0.000 S 
ENDROOT
BRANCH   1   2
ATOM      2  C   UNL     1      48.122   6.294  14.557  0.00  0.00    +0.000 A 
ATOM      3  N   UNL     1      48.665   7.233  15.357  0.00  0.00    +0.000 NA
ATOM      4  C   UNL     1      48.862   6.921  16.649  0.00  0.00    +0.000 A 
ATOM      5  C   UNL     1      48.538   5.703  17.176  0.00  0.00    +0.000 A 
ATOM      6  C   UNL     1      47.996   4.808  16.281  0.00  0.00    +0.000 A 
ATOM      7  N   UNL     1      47.772   5.063  14.961  0.00  0.00    +0.000 NA
BRANCH   6   8
ATOM      8  C   UNL     1      47.620   3.453  16.795  0.00  0.00    +0.000 C 
ATOM      9  N   UNL     1      48.552   2.468  16.632  0.00  0.00    +0.000 N 
ATOM     10  O   UNL     1      46.539   3.230  17.332  0.00  0.00    +0.000 OA
ATOM     11  H   UNL     1      49.440   2.670  16.196  0.00  0.00    +0.000 HD
ATOM     12  H   UNL     1      48.345   1.538  16.968  0.00  0.00    +0.000 HD
ENDBRANCH   6   8
ENDBRANCH   1   2
BRANCH   1  13
ATOM     13  C   UNL     1      46.059   6.711  12.701  0.00  0.00    +0.000 C 
BRANCH  13  17
ATOM     14  C   UNL     1      44.968   3.384  10.103  0.00  0.00    +0.000 A 
ATOM     15  C   UNL     1      45.319   4.628   9.564  0.00  0.00    +0.000 A 
ATOM     16  C   UNL     1      45.663   5.701  10.395  0.00  0.00    +0.000 A 
ATOM     17  C   UNL     1      45.651   5.564  11.793  0.00  0.00    +0.000 A 
ATOM     18  C   UNL     1      45.285   4.322  12.331  0.00  0.00    +0.000 A 
ATOM     19  C   UNL     1      44.948   3.247  11.497  0.00  0.00    +0.000 A 
BRANCH  14  20
ATOM     20  C   UNL     1      44.611   2.230   9.199  0.00  0.00    +0.000 C 
BRANCH  20  21
ATOM     21  N   UNL     1      45.803   1.547   8.706  0.00  0.00    +0.000 NA
ATOM     22  H   UNL     1      45.953   0.700   9.248  0.00  0.00    +0.000 HD
ATOM     23  H   UNL     1      46.613   2.143   8.869  0.00  0.00    +0.000 HD
ENDBRANCH  20  21
ENDBRANCH  14  20
ENDBRANCH  13  17
ENDBRANCH   1  13
TORSDOF 6
ENDMDL
MODEL 9
REMARK VINA RESULT:    -6.030      3.635      4.981
REMARK INTER + INTRA:          -8.370
REMARK INTER:                  -7.939
REMARK INTRA:                  -0.431
REMARK UNBOUND:                -0.401
REMARK  Name = 
REMARK  6 active torsions:
REMARK  status: ('A' for Active; 'I' for Inactive)
REMARK    1  A    between atoms: N_1  and  C_2
REMARK    2  A    between atoms: C_2  and  C_3
REMARK    3  A    between atoms: C_6  and  C_7
REMARK    4  A    between atoms: C_7  and  S_8
REMARK    5  A    between atoms: S_8  and  C_9
REMARK    6  A    between atoms: C_13  and  C_14
REMARK                            x       y       z     vdW  Elec       q    Type
REMARK                         _______ _______ _______ _____ _____    ______ ____
ROOT
ATOM      1  S   UNL     1      48.292   7.357  13.362  0.00  0.00    +0.000 S 
ENDROOT
BRANCH   1   2
ATOM      2  C   UNL     1      48.381   6.564  14.950  0.00  0.00    +0.000 A 
ATOM      3  N   UNL     1      48.666   7.402  15.967  0.00  0.00    +0.000 NA
ATOM      4  C   UNL     1      48.717   6.889  17.208  0.00  0.00    +0.000 A 
ATOM      5  C   UNL     1      48.494   5.568  17.475  0.00  0.00    +0.000 A 
ATOM      6  C   UNL     1      48.217   4.790  16.372  0.00  0.00    +0.000 A 
ATOM      7  N   UNL     1      48.152   5.249  15.090  0.00  0.00    +0.000 NA
BRANCH   6   8
ATOM      8  C   UNL     1      47.965   3.332  16.596  0.00  0.00    +0.000 C 
ATOM      9  N   UNL     1      47.188   3.015  17.674  0.00  0.00    +0.000 N 
ATOM     10  O   UNL     1      48.425   2.465  15.860  0.00  0.00    +0.000 OA
ATOM     11  H   UNL     1      46.810   3.741  18.264  0.00  0.00    +0.000 HD
ATOM     12  H   UNL     1      46.986   2.043  17.863  0.00  0.00    +0.000 HD
ENDBRANCH   6   8
ENDBRANCH   1   2
BRANCH   1  13
ATOM     13  C   UNL     1      46.504   7.570  13.121  0.00  0.00    +0.000 C 
BRANCH  13  17
ATOM     14  C   UNL     1      44.596   4.112  11.276  0.00  0.00    +0.000 A 
ATOM     15  C   UNL     1      44.590   4.275  12.667  0.00  0.00    +0.000 A 
ATOM     16  C   UNL     1      45.209   5.381  13.264  0.00  0.00    +0.000 A 
ATOM     17  C   UNL     1      45.864   6.348  12.485  0.00  0.00    +0.000 A 
ATOM     18  C   UNL     1      45.882   6.175  11.094  0.00  0.00    +0.000 A 
ATOM     19  C   UNL     1      45.256   5.071  10.498  0.00  0.00    +0.000 A 
BRANCH  14  20
ATOM     20  C   UNL     1      43.916   2.923  10.641  0.00  0.00    +0.000 C 
BRANCH  20  21
ATOM     21  N   UNL     1      43.052   2.230  11.592  0.00  0.00    +0.000 NA
ATOM     22  H   UNL     1      42.166   2.012  11.142  0.00  0.00    +0.000 HD
ATOM     23  H   UNL     1      42.840   2.861  12.362  0.00  0.00    +0.000 HD
ENDBRANCH  20  21
ENDBRANCH  14  20
ENDBRANCH  13  17
ENDBRANCH   1  13
TORSDOF 6
ENDMDL
