MODEL 1
REMARK VINA RESULT:    -8.890      0.000      0.000
REMARK INTER + INTRA:         -12.073
REMARK INTER:                 -11.488
REMARK INTRA:                  -0.584
REMARK UNBOUND:                -0.584
REMARK  Name = 
REMARK  5 active torsions:
REMARK  status: ('A' for Active; 'I' for Inactive)
REMARK    1  A    between atoms: C_2  and  C_4
REMARK    2  A    between atoms: C_7  and  O_8
REMARK    3  A    between atoms: O_8  and  C_9
REMARK    4  A    between atoms: C_9  and  C_10
REMARK    5  A    between atoms: C_14  and  C_15
REMARK                            x       y       z     vdW  Elec       q    Type
REMARK                         _______ _______ _______ _____ _____    ______ ____
ROOT
ATOM      1  C   UNL     1      43.946   4.823  11.438  0.00  0.00    +0.000 C 
ATOM      2  C   UNL     1      42.698   4.953  12.300  0.00  0.00    +0.000 C 
ATOM      3  C   UNL     1      42.939   5.925  11.193  0.00  0.00    +0.000 C 
ENDROOT
BRANCH   1   4
ATOM      4  C   UNL     1      45.300   5.123  12.059  0.00  0.00    +0.000 A 
ATOM      5  C   UNL     1      46.074   6.194  11.582  0.00  0.00    +0.000 A 
ATOM      6  C   UNL     1      47.262   6.566  12.210  0.00  0.00    +0.000 A 
ATOM      7  C   UNL     1      47.686   5.892  13.349  0.00  0.00    +0.000 A 
ATOM      8  C   UNL     1      46.949   4.822  13.881  0.00  0.00    +0.000 A 
ATOM      9  C   UNL     1      45.784   4.429  13.187  0.00  0.00    +0.000 A 
BRANCH   8  10
ATOM     10  C   UNL     1      47.324   4.176  15.152  0.00  0.00    +0.000 A 
ATOM     11  C   UNL     1      47.100   4.781  16.394  0.00  0.00    +0.000 A 
ATOM     12  N   UNL     1      47.395   4.197  17.582  0.00  0.00    +0.000 NA
ATOM     13  C   UNL     1      47.928   2.961  17.491  0.00  0.00    +0.000 A 
ATOM     14  C   UNL     1      48.154   2.342  16.275  0.00  0.00    +0.000 A 
ATOM     15  N   UNL     1      47.851   2.926  15.087  0.00  0.00    +0.000 NA
ENDBRANCH   8  10
ENDBRANCH   1   4
BRANCH   1  16
ATOM     16  O   UNL     1      43.873   3.615  10.643  0.00  0.00    +0.000 OA
BRANCH  16  20
ATOM     17  C   UNL     1      46.373   2.737   7.569  0.00  0.00    +0.000 A 
ATOM     18  N   UNL     1      45.979   4.034   7.641  0.00  0.00    +0.000 NA
ATOM     19  C   UNL     1      45.167   4.340   8.679  0.00  0.00    +0.000 A 
ATOM     20  C   UNL     1      44.740   3.425   9.615  0.00  0.00    +0.000 A 
ATOM     21  C   UNL     1      45.234   2.146   9.448  0.00  0.00    +0.000 A 
ATOM     22  N   UNL     1      46.046   1.767   8.442  0.00  0.00    +0.000 NA
BRANCH  17  24
ATOM     23  N   UNL     1      47.094   3.180   5.278  0.00  0.00    +0.000 N 
ATOM     24  C   UNL     1      47.211   2.352   6.372  0.00  0.00    +0.000 C 
ATOM     25  O   UNL     1      47.947   1.374   6.334  0.00  0.00    +0.000 OA
ATOM     26  H   UNL     1      47.621   2.966   4.444  0.00  0.00    +0.000 HD
ATOM     27  H   UNL     1      46.482   3.986   5.314  0.00  0.00    +0.000 HD
ENDBRANCH  17  24
ENDBRANCH  16  20
ENDBRANCH   1  16
TORSDOF 5
ENDMDL
MODEL 2
REMARK VINA RESULT:    -7.900      2.170      3.605
REMARK INTER + INTRA:         -10.793
REMARK INTER:                 -10.233
REMARK INTRA:                  -0.560
REMARK UNBOUND:                -0.584
REMARK  Name = 
REMARK  5 active torsions:
REMARK  status: ('A' for Active; 'I' for Inactive)
REMARK    1  A    between atoms: C_2  and  C_4
REMARK    2  A    between atoms: C_7  and  O_8
REMARK    3  A    between atoms: O_8  and  C_9
REMARK    4  A    between atoms: C_9  and  C_10
REMARK    5  A    between atoms: C_14  and  C_15
REMARK                            x       y       z     vdW  Elec       q    Type
REMARK                         _______ _______ _______ _____ _____    ______ ____
ROOT
ATOM      1  C   UNL     1      43.753   4.950  11.433  0.00  0.00    +0.000 C 
ATOM      2  C   UNL     1      42.453   5.378  12.099  0.00  0.00    +0.000 C 
ATOM      3  C   UNL     1      43.004   6.179  10.966  0.00  0.00    +0.000 C 
ENDROOT
BRANCH   1   4
ATOM      4  C   UNL     1      45.051   5.074  12.212  0.00  0.00    +0.000 A 
ATOM      5  C   UNL     1      45.489   4.020  13.030  0.00  0.00    +0.000 A 
ATOM      6  C   UNL     1      46.733   4.058  13.660  0.00  0.00    +0.000 A 
ATOM      7  C   UNL     1      47.579   5.143  13.461  0.00  0.00    +0.000 A 
ATOM      8  C   UNL     1      47.203   6.221  12.644  0.00  0.00    +0.000 A 
ATOM      9  C   UNL     1      45.914   6.181  12.071  0.00  0.00    +0.000 A 
BRANCH   8  10
ATOM     10  C   UNL     1      48.135   7.320  12.331  0.00  0.00    +0.000 A 
ATOM     11  C   UNL     1      47.691   8.599  11.974  0.00  0.00    +0.000 A 
ATOM     12  N   UNL     1      48.520   9.641  11.721  0.00  0.00    +0.000 NA
ATOM     13  C   UNL     1      49.835   9.364  11.842  0.00  0.00    +0.000 A 
ATOM     14  C   UNL     1      50.296   8.110  12.198  0.00  0.00    +0.000 A 
ATOM     15  N   UNL     1      49.463   7.069  12.457  0.00  0.00    +0.000 NA
ENDBRANCH   8  10
ENDBRANCH   1   4
BRANCH   1  16
ATOM     16  O   UNL     1      43.559   3.700  10.730  0.00  0.00    +0.000 OA
BRANCH  16  20
ATOM     17  C   UNL     1      46.213   2.930   7.759  0.00  0.00    +0.000 A 
ATOM     18  N   UNL     1      45.816   1.846   8.473  0.00  0.00    +0.000 NA
ATOM     19  C   UNL     1      44.910   2.091   9.448  0.00  0.00    +0.000 A 
ATOM     20  C   UNL     1      44.408   3.341   9.733  0.00  0.00    +0.000 A 
ATOM     21  C   UNL     1      44.870   4.356   8.917  0.00  0.00    +0.000 A 
ATOM     22  N   UNL     1      45.769   4.189   7.927  0.00  0.00    +0.000 NA
BRANCH  17  24
ATOM     23  N   UNL     1      47.090   3.330   5.515  0.00  0.00    +0.000 N 
ATOM     24  C   UNL     1      47.287   2.696   6.721  0.00  0.00    +0.000 C 
ATOM     25  O   UNL     1      48.273   1.990   6.898  0.00  0.00    +0.000 OA
ATOM     26  H   UNL     1      47.769   3.202   4.779  0.00  0.00    +0.000 HD
ATOM     27  H   UNL     1      46.273   3.911   5.373  0.00  0.00    +0.000 HD
ENDBRANCH  17  24
ENDBRANCH  16  20
ENDBRANCH   1  16
TORSDOF 5
ENDMDL
MODEL 3
REMARK VINA RESULT:    -7.602      2.308      7.494
REMARK INTER + INTRA:         -10.408
REMARK INTER:                 -10.066
REMARK INTRA:                  -0.342
REMARK UNBOUND:                -0.584
REMARK  Name = 
REMARK  5 active torsions:
REMARK  status: ('A' for Active; 'I' for Inactive)
REMARK    1  A    between atoms: C_2  and  C_4
REMARK    2  A    between atoms: C_7  and  O_8
REMARK    3  A    between atoms: O_8  and  C_9
REMARK    4  A    between atoms: C_9  and  C_10
REMARK    5  A    between atoms: C_14  and  C_15
REMARK                            x       y       z     vdW  Elec       q    Type
REMARK                         _______ _______ _______ _____ _____    ______ ____
ROOT
ATOM      1  C   UNL     1      46.191   7.307  12.407  0.00  0.00    +0.000 C 
ATOM      2  C   UNL     1      46.401   8.682  11.787  0.00  0.00    +0.000 C 
ATOM      3  C   UNL     1      45.592   8.547  13.034  0.00  0.00    +0.000 C 
ENDROOT
BRANCH   1   4
ATOM      4  C   UNL     1      45.319   6.300  11.677  0.00  0.00    +0.000 A 
ATOM      5  C   UNL     1      43.923   6.335  11.825  0.00  0.00    +0.000 A 
ATOM      6  C   UNL     1      43.092   5.502  11.076  0.00  0.00    +0.000 A 
ATOM      7  C   UNL     1      43.641   4.635  10.139  0.00  0.00    +0.000 A 
ATOM      8  C   UNL     1      45.029   4.563   9.936  0.00  0.00    +0.000 A 
ATOM      9  C   UNL     1      45.846   5.373  10.754  0.00  0.00    +0.000 A 
BRANCH   8  10
ATOM     10  C   UNL     1      45.615   3.735   8.867  0.00  0.00    +0.000 A 
ATOM     11  C   UNL     1      45.650   2.337   8.937  0.00  0.00    +0.000 A 
ATOM     12  N   UNL     1      46.144   1.545   7.954  0.00  0.00    +0.000 NA
ATOM     13  C   UNL     1      46.608   2.203   6.872  0.00  0.00    +0.000 A 
ATOM     14  C   UNL     1      46.579   3.583   6.779  0.00  0.00    +0.000 A 
ATOM     15  N   UNL     1      46.078   4.374   7.762  0.00  0.00    +0.000 NA
ENDBRANCH   8  10
ENDBRANCH   1   4
BRANCH   1  16
ATOM     16  O   UNL     1      47.447   6.799  12.917  0.00  0.00    +0.000 OA
BRANCH  16  20
ATOM     17  C   UNL     1      47.554   4.368  16.165  0.00  0.00    +0.000 A 
ATOM     18  N   UNL     1      46.731   3.960  15.165  0.00  0.00    +0.000 NA
ATOM     19  C   UNL     1      46.711   4.751  14.068  0.00  0.00    +0.000 A 
ATOM     20  C   UNL     1      47.452   5.904  13.939  0.00  0.00    +0.000 A 
ATOM     21  C   UNL     1      48.271   6.194  15.013  0.00  0.00    +0.000 A 
ATOM     22  N   UNL     1      48.346   5.455  16.137  0.00  0.00    +0.000 NA
BRANCH  17  24
ATOM     23  N   UNL     1      48.497   3.866  18.361  0.00  0.00    +0.000 N 
ATOM     24  C   UNL     1      47.531   3.547  17.434  0.00  0.00    +0.000 C 
ATOM     25  O   UNL     1      46.731   2.645  17.655  0.00  0.00    +0.000 OA
ATOM     26  H   UNL     1      48.538   3.343  19.223  0.00  0.00    +0.000 HD
ATOM     27  H   UNL     1      49.156   4.611  18.172  0.00  0.00    +0.000 HD
ENDBRANCH  17  24
ENDBRANCH  16  20
ENDBRANCH   1  16
TORSDOF 5
ENDMDL
MODEL 4
REMARK VINA RESULT:    -7.424      2.024      2.799
REMARK INTER + INTRA:         -10.179
REMARK INTER:                 -10.446
REMARK INTRA:                   0.267
REMARK UNBOUND:                -0.584
REMARK  Name = 
REMARK  5 active torsions:
REMARK  status: ('A' for Active; 'I' for Inactive)
REMARK    1  A    between atoms: C_2  and  C_4
REMARK    2  A    between atoms: C_7  and  O_8
REMARK    3  A    between atoms: O_8  and  C_9
REMARK    4  A    between atoms: C_9  and  C_10
REMARK    5  A    between atoms: C_14  and  C_15
REMARK                            x       y       z     vdW  Elec       q    Type
REMARK                         _______ _______ _______ _____ _____    ______ ____
ROOT
ATOM      1  C   UNL     1      44.212   4.482  11.699  0.00  0.00    +0.000 C 
ATOM      2  C   UNL     1      44.759   3.292  12.476  0.00  0.00    +0.000 C 
ATOM      3  C   UNL     1      43.464   3.911  12.885  0.00  0.00    +0.000 C 
ENDROOT
BRANCH   1   4
ATOM      4  C   UNL     1      44.932   5.815  11.797  0.00  0.00    +0.000 A 
ATOM      5  C   UNL     1      44.305   6.992  11.359  0.00  0.00    +0.000 A 
ATOM      6  C   UNL     1      44.894   8.242  11.547  0.00  0.00    +0.000 A 
ATOM      7  C   UNL     1      46.114   8.343  12.205  0.00  0.00    +0.000 A 
ATOM      8  C   UNL     1      46.784   7.203  12.678  0.00  0.00    +0.000 A 
ATOM      9  C   UNL     1      46.192   5.949  12.417  0.00  0.00    +0.000 A 
BRANCH   8  10
ATOM     10  C   UNL     1      48.017   7.305  13.479  0.00  0.00    +0.000 A 
ATOM     11  C   UNL     1      48.309   6.414  14.520  0.00  0.00    +0.000 A 
ATOM     12  N   UNL     1      49.452   6.454  15.248  0.00  0.00    +0.000 NA
ATOM     13  C   UNL     1      50.317   7.428  14.895  0.00  0.00    +0.000 A 
ATOM     14  C   UNL     1      50.052   8.314  13.868  0.00  0.00    +0.000 A 
ATOM     15  N   UNL     1      48.909   8.268  13.135  0.00  0.00    +0.000 NA
ENDBRANCH   8  10
ENDBRANCH   1   4
BRANCH   1  16
ATOM     16  O   UNL     1      43.832   4.068  10.365  0.00  0.00    +0.000 OA
BRANCH  16  20
ATOM     17  C   UNL     1      46.544   2.886   7.587  0.00  0.00    +0.000 A 
ATOM     18  N   UNL     1      46.395   4.230   7.715  0.00  0.00    +0.000 NA
ATOM     19  C   UNL     1      45.513   4.631   8.658  0.00  0.00    +0.000 A 
ATOM     20  C   UNL     1      44.788   3.768   9.449  0.00  0.00    +0.000 A 
ATOM     21  C   UNL     1      45.051   2.428   9.242  0.00  0.00    +0.000 A 
ATOM     22  N   UNL     1      45.916   1.952   8.324  0.00  0.00    +0.000 NA
BRANCH  17  24
ATOM     23  N   UNL     1      47.241   2.977   5.248  0.00  0.00    +0.000 N 
ATOM     24  C   UNL     1      47.461   2.411   6.483  0.00  0.00    +0.000 C 
ATOM     25  O   UNL     1      48.343   1.574   6.635  0.00  0.00    +0.000 OA
ATOM     26  H   UNL     1      47.815   2.690   4.470  0.00  0.00    +0.000 HD
ATOM     27  H   UNL     1      46.509   3.667   5.128  0.00  0.00    +0.000 HD
ENDBRANCH  17  24
ENDBRANCH  16  20
ENDBRANCH   1  16
TORSDOF 5
ENDMDL
MODEL 5
REMARK VINA RESULT:    -6.614      2.865      4.626
REMARK INTER + INTRA:          -9.132
REMARK INTER:                  -8.676
REMARK INTRA:                  -0.456
REMARK UNBOUND:                -0.584
REMARK  Name = 
REMARK  5 active torsions:
REMARK  status: ('A' for Active; 'I' for Inactive)
REMARK    1  A    between atoms: C_2  and  C_4
REMARK    2  A    between atoms: C_7  and  O_8
REMARK    3  A    between atoms: O_8  and  C_9
REMARK    4  A    between atoms: C_9  and  C_10
REMARK    5  A    between atoms: C_14  and  C_15
REMARK                            x       y       z     vdW  Elec       q    Type
REMARK                         _______ _______ _______ _____ _____    ______ ____
ROOT
ATOM      1  C   UNL     1      48.050   7.981  12.513  0.00  0.00    +0.000 C 
ATOM      2  C   UNL     1      48.831   9.026  11.729  0.00  0.00    +0.000 C 
ATOM      3  C   UNL     1      49.065   7.576  11.467  0.00  0.00    +0.000 C 
ENDROOT
BRANCH   1   4
ATOM      4  C   UNL     1      48.340   7.807  13.994  0.00  0.00    +0.000 A 
ATOM      5  C   UNL     1      48.457   8.930  14.829  0.00  0.00    +0.000 A 
ATOM      6  C   UNL     1      48.604   8.796  16.209  0.00  0.00    +0.000 A 
ATOM      7  C   UNL     1      48.607   7.532  16.787  0.00  0.00    +0.000 A 
ATOM      8  C   UNL     1      48.481   6.372  16.007  0.00  0.00    +0.000 A 
ATOM      9  C   UNL     1      48.397   6.538  14.608  0.00  0.00    +0.000 A 
BRANCH   8  10
ATOM     10  C   UNL     1      48.365   5.035  16.617  0.00  0.00    +0.000 A 
ATOM     11  C   UNL     1      47.130   4.400  16.801  0.00  0.00    +0.000 A 
ATOM     12  N   UNL     1      46.992   3.156  17.320  0.00  0.00    +0.000 NA
ATOM     13  C   UNL     1      48.149   2.547  17.652  0.00  0.00    +0.000 A 
ATOM     14  C   UNL     1      49.380   3.152  17.475  0.00  0.00    +0.000 A 
ATOM     15  N   UNL     1      49.516   4.396  16.948  0.00  0.00    +0.000 NA
ENDBRANCH   8  10
ENDBRANCH   1   4
BRANCH   1  16
ATOM     16  O   UNL     1      46.650   8.036  12.149  0.00  0.00    +0.000 OA
BRANCH  16  20
ATOM     17  C   UNL     1      44.701   4.527  11.554  0.00  0.00    +0.000 A 
ATOM     18  N   UNL     1      44.608   5.033  12.810  0.00  0.00    +0.000 NA
ATOM     19  C   UNL     1      45.232   6.217  13.009  0.00  0.00    +0.000 A 
ATOM     20  C   UNL     1      45.933   6.889  12.032  0.00  0.00    +0.000 A 
ATOM     21  C   UNL     1      45.928   6.284  10.790  0.00  0.00    +0.000 A 
ATOM     22  N   UNL     1      45.329   5.108  10.516  0.00  0.00    +0.000 NA
BRANCH  17  24
ATOM     23  N   UNL     1      43.783   2.457  12.470  0.00  0.00    +0.000 N 
ATOM     24  C   UNL     1      44.083   3.165  11.329  0.00  0.00    +0.000 C 
ATOM     25  O   UNL     1      43.861   2.686  10.224  0.00  0.00    +0.000 OA
ATOM     26  H   UNL     1      43.379   1.536  12.382  0.00  0.00    +0.000 HD
ATOM     27  H   UNL     1      43.971   2.858  13.381  0.00  0.00    +0.000 HD
ENDBRANCH  17  24
ENDBRANCH  16  20
ENDBRANCH   1  16
TORSDOF 5
ENDMDL
MODEL 6
REMARK VINA RESULT:    -5.973      3.123      4.914
REMARK INTER + INTRA:          -8.303
REMARK INTER:                  -8.025
REMARK INTRA:                  -0.278
REMARK UNBOUND:                -0.584
REMARK  Name = 
REMARK  5 active torsions:
REMARK  status: ('A' for Active; 'I' for Inactive)
REMARK    1  A    between atoms: C_2  and  C_4
REMARK    2  A    between atoms: C_7  and  O_8
REMARK    3  A    between atoms: O_8  and  C_9
REMARK    4  A    between atoms: C_9  and  C_10
REMARK    5  A    between atoms: C_14  and  C_15
REMARK                            x       y       z     vdW  Elec       q    Type
REMARK                         _______ _______ _______ _____ _____    ______ ____
ROOT
ATOM      1  C   UNL     1      47.872   7.458  12.996  0.00  0.00    +0.000 C 
ATOM      2  C   UNL     1      47.982   8.710  12.136  0.00  0.00    +0.000 C 
ATOM      3  C   UNL     1      48.265   7.374  11.536  0.00  0.00    +0.000 C 
ENDROOT
BRANCH   1   4
ATOM      4  C   UNL     1      48.895   7.232  14.095  0.00  0.00    +0.000 A 
ATOM      5  C   UNL     1      50.203   7.724  13.957  0.00  0.00    +0.000 A 
ATOM      6  C   UNL     1      51.125   7.636  14.999  0.00  0.00    +0.000 A 
ATOM      7  C   UNL     1      50.748   7.078  16.215  0.00  0.00    +0.000 A 
ATOM      8  C   UNL     1      49.451   6.580  16.418  0.00  0.00    +0.000 A 
ATOM      9  C   UNL     1      48.560   6.627  15.325  0.00  0.00    +0.000 A 
BRANCH   8  10
ATOM     10  C   UNL     1      49.004   6.093  17.736  0.00  0.00    +0.000 A 
ATOM     11  C   UNL     1      49.410   4.858  18.255  0.00  0.00    +0.000 A 
ATOM     12  N   UNL     1      49.051   4.400  19.480  0.00  0.00    +0.000 NA
ATOM     13  C   UNL     1      48.261   5.232  20.189  0.00  0.00    +0.000 A 
ATOM     14  C   UNL     1      47.853   6.458  19.699  0.00  0.00    +0.000 A 
ATOM     15  N   UNL     1      48.219   6.919  18.475  0.00  0.00    +0.000 NA
ENDBRANCH   8  10
ENDBRANCH   1   4
BRANCH   1  16
ATOM     16  O   UNL     1      46.491   7.233  13.365  0.00  0.00    +0.000 OA
BRANCH  16  20
ATOM     17  C   UNL     1      44.546   4.008  11.853  0.00  0.00    +0.000 A 
ATOM     18  N   UNL     1      45.387   3.744  12.886  0.00  0.00    +0.000 NA
ATOM     19  C   UNL     1      46.018   4.818  13.413  0.00  0.00    +0.000 A 
ATOM     20  C   UNL     1      45.853   6.107  12.955  0.00  0.00    +0.000 A 
ATOM     21  C   UNL     1      44.949   6.246  11.920  0.00  0.00    +0.000 A 
ATOM     22  N   UNL     1      44.283   5.226  11.345  0.00  0.00    +0.000 NA
BRANCH  17  24
ATOM     23  N   UNL     1      44.493   2.382  10.032  0.00  0.00    +0.000 N 
ATOM     24  C   UNL     1      43.894   2.815  11.193  0.00  0.00    +0.000 C 
ATOM     25  O   UNL     1      42.895   2.252  11.624  0.00  0.00    +0.000 OA
ATOM     26  H   UNL     1      44.095   1.596   9.540  0.00  0.00    +0.000 HD
ATOM     27  H   UNL     1      45.317   2.853   9.679  0.00  0.00    +0.000 HD
ENDBRANCH  17  24
ENDBRANCH  16  20
ENDBRANCH   1  16
TORSDOF 5
ENDMDL
