MODEL 1
REMARK VINA RESULT:    -8.901      0.000      0.000
REMARK INTER + INTRA:         -11.550
REMARK INTER:                 -10.982
REMARK INTRA:                  -0.567
REMARK UNBOUND:                -0.567
REMARK  Name = 
REMARK  4 active torsions:
REMARK  status: ('A' for Active; 'I' for Inactive)
REMARK    1  A    between atoms: C_2  and  C_4
REMARK    2  A    between atoms: N_8  and  C_9
REMARK    3  A    between atoms: C_9  and  C_10
REMARK    4  A    between atoms: C_14  and  C_15
REMARK                            x       y       z     vdW  Elec       q    Type
REMARK                         _______ _______ _______ _____ _____    ______ ____
ROOT
ATOM      1  C   UNL     1      43.466   3.667  11.198  0.00  0.00    +0.000 C 
ENDROOT
BRANCH   1   6
ATOM      2  C   UNL     1      46.584   2.479   7.251  0.00  0.00    +0.000 A 
ATOM      3  C   UNL     1      46.008   3.693   7.611  0.00  0.00    +0.000 A 
ATOM      4  C   UNL     1      45.189   3.747   8.737  0.00  0.00    +0.000 A 
ATOM      5  C   UNL     1      44.947   2.597   9.479  0.00  0.00    +0.000 A 
ATOM      6  N   UNL     1      44.228   2.578  10.640  0.00  0.00    +0.000 N 
ATOM      7  N   UNL     1      45.469   1.409   9.114  0.00  0.00    +0.000 NA
ATOM      8  C   UNL     1      46.266   1.368   8.012  0.00  0.00    +0.000 A 
ATOM      9  H   UNL     1      44.059   1.637  10.973  0.00  0.00    +0.000 HD
BRANCH   2  11
ATOM     10  N   UNL     1      47.387   3.270   5.102  0.00  0.00    +0.000 N 
ATOM     11  C   UNL     1      47.501   2.344   6.103  0.00  0.00    +0.000 C 
ATOM     12  O   UNL     1      48.357   1.470   6.063  0.00  0.00    +0.000 OA
ATOM     13  H   UNL     1      48.089   3.235   4.372  0.00  0.00    +0.000 HD
ATOM     14  H   UNL     1      46.877   4.135   5.213  0.00  0.00    +0.000 HD
ENDBRANCH   2  11
ENDBRANCH   1   6
BRANCH   1  15
ATOM     15  C   UNL     1      44.355   4.758  11.741  0.00  0.00    +0.000 A 
ATOM     16  C   UNL     1      44.312   6.052  11.210  0.00  0.00    +0.000 A 
ATOM     17  C   UNL     1      45.150   7.045  11.712  0.00  0.00    +0.000 A 
ATOM     18  C   UNL     1      46.035   6.755  12.753  0.00  0.00    +0.000 A 
ATOM     19  C   UNL     1      46.097   5.473  13.326  0.00  0.00    +0.000 A 
ATOM     20  C   UNL     1      45.252   4.485  12.789  0.00  0.00    +0.000 A 
BRANCH  19  21
ATOM     21  C   UNL     1      46.988   5.177  14.466  0.00  0.00    +0.000 A 
ATOM     22  C   UNL     1      48.007   6.055  14.853  0.00  0.00    +0.000 A 
ATOM     23  N   UNL     1      48.854   5.866  15.900  0.00  0.00    +0.000 NA
ATOM     24  C   UNL     1      48.667   4.738  16.620  0.00  0.00    +0.000 A 
ATOM     25  C   UNL     1      47.690   3.807  16.332  0.00  0.00    +0.000 A 
ATOM     26  F   UNL     1      47.548   2.710  17.087  0.00  0.00    +0.000 F 
ATOM     27  C   UNL     1      46.848   4.021  15.246  0.00  0.00    +0.000 A 
ENDBRANCH  19  21
ENDBRANCH   1  15
TORSDOF 4
ENDMDL
MODEL 2
REMARK VINA RESULT:    -8.604      3.183      4.579
REMARK INTER + INTRA:         -11.183
REMARK INTER:                 -10.559
REMARK INTRA:                  -0.624
REMARK UNBOUND:                -0.567
REMARK  Name = 
REMARK  4 active torsions:
REMARK  status: ('A' for Active; 'I' for Inactive)
REMARK    1  A    between atoms: C_2  and  C_4
REMARK    2  A    between atoms: N_8  and  C_9
REMARK    3  A    between atoms: C_9  and  C_10
REMARK    4  A    between atoms: C_14  and  C_15
REMARK                            x       y       z     vdW  Elec       q    Type
REMARK                         _______ _______ _______ _____ _____    ______ ____
ROOT
ATOM      1  C   UNL     1      43.481   3.727  11.164  0.00  0.00    +0.000 C 
ENDROOT
BRANCH   1   6
ATOM      2  C   UNL     1      46.595   2.459   7.238  0.00  0.00    +0.000 A 
ATOM      3  C   UNL     1      46.061   3.690   7.603  0.00  0.00    +0.000 A 
ATOM      4  C   UNL     1      45.233   3.765   8.722  0.00  0.00    +0.000 A 
ATOM      5  C   UNL     1      44.939   2.618   9.450  0.00  0.00    +0.000 A 
ATOM      6  N   UNL     1      44.207   2.615  10.603  0.00  0.00    +0.000 N 
ATOM      7  N   UNL     1      45.420   1.414   9.078  0.00  0.00    +0.000 NA
ATOM      8  C   UNL     1      46.227   1.354   7.985  0.00  0.00    +0.000 A 
ATOM      9  H   UNL     1      43.999   1.678  10.925  0.00  0.00    +0.000 HD
BRANCH   2  11
ATOM     10  N   UNL     1      47.429   3.222   5.090  0.00  0.00    +0.000 N 
ATOM     11  C   UNL     1      47.518   2.300   6.098  0.00  0.00    +0.000 C 
ATOM     12  O   UNL     1      48.358   1.411   6.071  0.00  0.00    +0.000 OA
ATOM     13  H   UNL     1      48.136   3.169   4.366  0.00  0.00    +0.000 HD
ATOM     14  H   UNL     1      46.934   4.097   5.192  0.00  0.00    +0.000 HD
ENDBRANCH   2  11
ENDBRANCH   1   6
BRANCH   1  15
ATOM     15  C   UNL     1      44.404   4.765  11.753  0.00  0.00    +0.000 A 
ATOM     16  C   UNL     1      45.458   4.393  12.595  0.00  0.00    +0.000 A 
ATOM     17  C   UNL     1      46.294   5.363  13.144  0.00  0.00    +0.000 A 
ATOM     18  C   UNL     1      46.086   6.714  12.852  0.00  0.00    +0.000 A 
ATOM     19  C   UNL     1      45.049   7.127  11.998  0.00  0.00    +0.000 A 
ATOM     20  C   UNL     1      44.210   6.128  11.470  0.00  0.00    +0.000 A 
BRANCH  19  21
ATOM     21  C   UNL     1      44.862   8.547  11.638  0.00  0.00    +0.000 A 
ATOM     22  C   UNL     1      45.763   9.536  12.049  0.00  0.00    +0.000 A 
ATOM     23  N   UNL     1      45.673  10.858  11.745  0.00  0.00    +0.000 NA
ATOM     24  C   UNL     1      44.629  11.221  10.968  0.00  0.00    +0.000 A 
ATOM     25  C   UNL     1      43.685  10.328  10.501  0.00  0.00    +0.000 A 
ATOM     26  F   UNL     1      42.675  10.745   9.728  0.00  0.00    +0.000 F 
ATOM     27  C   UNL     1      43.795   8.985  10.841  0.00  0.00    +0.000 A 
ENDBRANCH  19  21
ENDBRANCH   1  15
TORSDOF 4
ENDMDL
MODEL 3
REMARK VINA RESULT:    -7.947      3.576      7.203
REMARK INTER + INTRA:         -10.373
REMARK INTER:                  -9.613
REMARK INTRA:                  -0.760
REMARK UNBOUND:                -0.567
REMARK  Name = 
REMARK  4 active torsions:
REMARK  status: ('A' for Active; 'I' for Inactive)
REMARK    1  A    between atoms: C_2  and  C_4
REMARK    2  A    between atoms: N_8  and  C_9
REMARK    3  A    between atoms: C_9  and  C_10
REMARK    4  A    between atoms: C_14  and  C_15
REMARK                            x       y       z     vdW  Elec       q    Type
REMARK                         _______ _______ _______ _____ _____    ______ ____
ROOT
ATOM      1  C   UNL     1      44.505   6.286  12.477  0.00  0.00    +0.000 C 
ENDROOT
BRANCH   1   6
ATOM      2  C   UNL     1      49.488   7.655  12.633  0.00  0.00    +0.000 A 
ATOM      3  C   UNL     1      48.542   7.806  11.624  0.00  0.00    +0.000 A 
ATOM      4  C   UNL     1      47.245   7.341  11.835  0.00  0.00    +0.000 A 
ATOM      5  C   UNL     1      46.912   6.724  13.035  0.00  0.00    +0.000 A 
ATOM      6  N   UNL     1      45.648   6.316  13.356  0.00  0.00    +0.000 N 
ATOM      7  N   UNL     1      47.833   6.537  14.002  0.00  0.00    +0.000 NA
ATOM      8  C   UNL     1      49.095   6.995  13.785  0.00  0.00    +0.000 A 
ATOM      9  H   UNL     1      45.622   5.784  14.217  0.00  0.00    +0.000 HD
BRANCH   2  11
ATOM     10  N   UNL     1      51.671   8.052  13.614  0.00  0.00    +0.000 N 
ATOM     11  C   UNL     1      50.867   8.161  12.512  0.00  0.00    +0.000 C 
ATOM     12  O   UNL     1      51.294   8.620  11.460  0.00  0.00    +0.000 OA
ATOM     13  H   UNL     1      52.645   8.302  13.490  0.00  0.00    +0.000 HD
ATOM     14  H   UNL     1      51.441   7.462  14.402  0.00  0.00    +0.000 HD
ENDBRANCH   2  11
ENDBRANCH   1   6
BRANCH   1  15
ATOM     15  C   UNL     1      44.314   4.929  11.845  0.00  0.00    +0.000 A 
ATOM     16  C   UNL     1      43.455   3.985  12.418  0.00  0.00    +0.000 A 
ATOM     17  C   UNL     1      43.300   2.731  11.831  0.00  0.00    +0.000 A 
ATOM     18  C   UNL     1      43.998   2.412  10.663  0.00  0.00    +0.000 A 
ATOM     19  C   UNL     1      44.857   3.339  10.048  0.00  0.00    +0.000 A 
ATOM     20  C   UNL     1      45.008   4.592  10.671  0.00  0.00    +0.000 A 
BRANCH  19  21
ATOM     21  C   UNL     1      45.551   3.029   8.782  0.00  0.00    +0.000 A 
ATOM     22  C   UNL     1      45.868   4.025   7.851  0.00  0.00    +0.000 A 
ATOM     23  N   UNL     1      46.521   3.826   6.676  0.00  0.00    +0.000 NA
ATOM     24  C   UNL     1      46.898   2.556   6.413  0.00  0.00    +0.000 A 
ATOM     25  C   UNL     1      46.643   1.497   7.261  0.00  0.00    +0.000 A 
ATOM     26  F   UNL     1      47.048   0.260   6.950  0.00  0.00    +0.000 F 
ATOM     27  C   UNL     1      45.961   1.730   8.449  0.00  0.00    +0.000 A 
ENDBRANCH  19  21
ENDBRANCH   1  15
TORSDOF 4
ENDMDL
MODEL 4
REMARK VINA RESULT:    -7.632      3.850      8.144
REMARK INTER + INTRA:          -9.984
REMARK INTER:                  -9.529
REMARK INTRA:                  -0.455
REMARK UNBOUND:                -0.567
REMARK  Name = 
REMARK  4 active torsions:
REMARK  status: ('A' for Active; 'I' for Inactive)
REMARK    1  A    between atoms: C_2  and  C_4
REMARK    2  A    between atoms: N_8  and  C_9
REMARK    3  A    between atoms: C_9  and  C_10
REMARK    4  A    between atoms: C_14  and  C_15
REMARK                            x       y       z     vdW  Elec       q    Type
REMARK                         _______ _______ _______ _____ _____    ______ ____
ROOT
ATOM      1  C   UNL     1      45.991   5.596  13.808  0.00  0.00    +0.000 C 
ENDROOT
BRANCH   1   6
ATOM      2  C   UNL     1      49.397   4.189  17.433  0.00  0.00    +0.000 A 
ATOM      3  C   UNL     1      49.156   5.432  16.856  0.00  0.00    +0.000 A 
ATOM      4  C   UNL     1      48.166   5.546  15.881  0.00  0.00    +0.000 A 
ATOM      5  C   UNL     1      47.442   4.427  15.487  0.00  0.00    +0.000 A 
ATOM      6  N   UNL     1      46.402   4.465  14.603  0.00  0.00    +0.000 N 
ATOM      7  N   UNL     1      47.698   3.212  16.013  0.00  0.00    +0.000 NA
ATOM      8  C   UNL     1      48.666   3.112  16.963  0.00  0.00    +0.000 A 
ATOM      9  H   UNL     1      46.077   3.541  14.351  0.00  0.00    +0.000 HD
BRANCH   2  11
ATOM     10  N   UNL     1      51.397   3.094  18.263  0.00  0.00    +0.000 N 
ATOM     11  C   UNL     1      50.391   3.990  18.504  0.00  0.00    +0.000 C 
ATOM     12  O   UNL     1      50.348   4.628  19.548  0.00  0.00    +0.000 OA
ATOM     13  H   UNL     1      52.132   3.043  18.958  0.00  0.00    +0.000 HD
ATOM     14  H   UNL     1      51.606   2.744  17.339  0.00  0.00    +0.000 HD
ENDBRANCH   2  11
ENDBRANCH   1   6
BRANCH   1  15
ATOM     15  C   UNL     1      45.072   5.190  12.682  0.00  0.00    +0.000 A 
ATOM     16  C   UNL     1      43.694   5.424  12.759  0.00  0.00    +0.000 A 
ATOM     17  C   UNL     1      42.857   5.031  11.718  0.00  0.00    +0.000 A 
ATOM     18  C   UNL     1      43.389   4.404  10.589  0.00  0.00    +0.000 A 
ATOM     19  C   UNL     1      44.768   4.165  10.466  0.00  0.00    +0.000 A 
ATOM     20  C   UNL     1      45.590   4.558  11.538  0.00  0.00    +0.000 A 
BRANCH  19  21
ATOM     21  C   UNL     1      45.343   3.557   9.249  0.00  0.00    +0.000 A 
ATOM     22  C   UNL     1      45.751   4.334   8.158  0.00  0.00    +0.000 A 
ATOM     23  N   UNL     1      46.306   3.855   7.014  0.00  0.00    +0.000 NA
ATOM     24  C   UNL     1      46.483   2.517   6.953  0.00  0.00    +0.000 A 
ATOM     25  C   UNL     1      46.123   1.657   7.971  0.00  0.00    +0.000 A 
ATOM     26  F   UNL     1      46.330   0.339   7.857  0.00  0.00    +0.000 F 
ATOM     27  C   UNL     1      45.545   2.175   9.124  0.00  0.00    +0.000 A 
ENDBRANCH  19  21
ENDBRANCH   1  15
TORSDOF 4
ENDMDL
MODEL 5
REMARK VINA RESULT:    -7.063      4.213      8.677
REMARK INTER + INTRA:          -9.282
REMARK INTER:                  -8.787
REMARK INTRA:                  -0.495
REMARK UNBOUND:                -0.567
REMARK  Name = 
REMARK  4 active torsions:
REMARK  status: ('A' for Active; 'I' for Inactive)
REMARK    1  A    between atoms: C_2  and  C_4
REMARK    2  A    between atoms: N_8  and  C_9
REMARK    3  A    between atoms: C_9  and  C_10
REMARK    4  A    between atoms: C_14  and  C_15
REMARK                            x       y       z     vdW  Elec       q    Type
REMARK                         _______ _______ _______ _____ _____    ______ ____
ROOT
ATOM      1  C   UNL     1      47.897   7.242  14.056  0.00  0.00    +0.000 C 
ENDROOT
BRANCH   1   6
ATOM      2  C   UNL     1      49.138   5.115  18.602  0.00  0.00    +0.000 A 
ATOM      3  C   UNL     1      49.093   6.450  18.213  0.00  0.00    +0.000 A 
ATOM      4  C   UNL     1      48.723   6.764  16.906  0.00  0.00    +0.000 A 
ATOM      5  C   UNL     1      48.417   5.751  16.006  0.00  0.00    +0.000 A 
ATOM      6  N   UNL     1      47.967   5.972  14.735  0.00  0.00    +0.000 N 
ATOM      7  N   UNL     1      48.498   4.453  16.363  0.00  0.00    +0.000 NA
ATOM      8  C   UNL     1      48.860   4.159  17.641  0.00  0.00    +0.000 A 
ATOM      9  H   UNL     1      47.911   5.119  14.192  0.00  0.00    +0.000 HD
BRANCH   2  11
ATOM     10  N   UNL     1      48.549   3.934  20.638  0.00  0.00    +0.000 N 
ATOM     11  C   UNL     1      49.471   4.699  19.976  0.00  0.00    +0.000 C 
ATOM     12  O   UNL     1      50.544   4.984  20.493  0.00  0.00    +0.000 OA
ATOM     13  H   UNL     1      48.830   3.564  21.538  0.00  0.00    +0.000 HD
ATOM     14  H   UNL     1      47.781   3.476  20.167  0.00  0.00    +0.000 HD
ENDBRANCH   2  11
ENDBRANCH   1   6
BRANCH   1  15
ATOM     15  C   UNL     1      46.766   7.287  13.059  0.00  0.00    +0.000 A 
ATOM     16  C   UNL     1      45.987   8.440  12.907  0.00  0.00    +0.000 A 
ATOM     17  C   UNL     1      44.937   8.461  11.992  0.00  0.00    +0.000 A 
ATOM     18  C   UNL     1      44.659   7.333  11.217  0.00  0.00    +0.000 A 
ATOM     19  C   UNL     1      45.428   6.161  11.327  0.00  0.00    +0.000 A 
ATOM     20  C   UNL     1      46.472   6.161  12.270  0.00  0.00    +0.000 A 
BRANCH  19  21
ATOM     21  C   UNL     1      45.176   4.986  10.468  0.00  0.00    +0.000 A 
ATOM     22  C   UNL     1      44.466   3.873  10.931  0.00  0.00    +0.000 A 
ATOM     23  N   UNL     1      44.176   2.764  10.200  0.00  0.00    +0.000 NA
ATOM     24  C   UNL     1      44.605   2.767   8.919  0.00  0.00    +0.000 A 
ATOM     25  C   UNL     1      45.309   3.813   8.357  0.00  0.00    +0.000 A 
ATOM     26  F   UNL     1      45.703   3.762   7.079  0.00  0.00    +0.000 F 
ATOM     27  C   UNL     1      45.603   4.928   9.134  0.00  0.00    +0.000 A 
ENDBRANCH  19  21
ENDBRANCH   1  15
TORSDOF 4
ENDMDL
MODEL 6
REMARK VINA RESULT:    -6.997      3.720      7.866
REMARK INTER + INTRA:          -9.201
REMARK INTER:                  -9.138
REMARK INTRA:                  -0.063
REMARK UNBOUND:                -0.567
REMARK  Name = 
REMARK  4 active torsions:
REMARK  status: ('A' for Active; 'I' for Inactive)
REMARK    1  A    between atoms: C_2  and  C_4
REMARK    2  A    between atoms: N_8  and  C_9
REMARK    3  A    between atoms: C_9  and  C_10
REMARK    4  A    between atoms: C_14  and  C_15
REMARK                            x       y       z     vdW  Elec       q    Type
REMARK                         _______ _______ _______ _____ _____    ______ ____
ROOT
ATOM      1  C   UNL     1      48.945   7.838  12.726  0.00  0.00    +0.000 C 
ENDROOT
BRANCH   1   6
ATOM      2  C   UNL     1      47.801   4.681  16.656  0.00  0.00    +0.000 A 
ATOM      3  C   UNL     1      47.509   4.576  15.300  0.00  0.00    +0.000 A 
ATOM      4  C   UNL     1      47.935   5.581  14.434  0.00  0.00    +0.000 A 
ATOM      5  C   UNL     1      48.632   6.677  14.928  0.00  0.00    +0.000 A 
ATOM      6  N   UNL     1      49.157   7.663  14.141  0.00  0.00    +0.000 N 
ATOM      7  N   UNL     1      48.883   6.807  16.247  0.00  0.00    +0.000 NA
ATOM      8  C   UNL     1      48.462   5.820  17.082  0.00  0.00    +0.000 A 
ATOM      9  H   UNL     1      49.525   8.434  14.684  0.00  0.00    +0.000 HD
BRANCH   2  11
ATOM     10  N   UNL     1      48.156   3.584  18.791  0.00  0.00    +0.000 N 
ATOM     11  C   UNL     1      47.429   3.640  17.633  0.00  0.00    +0.000 C 
ATOM     12  O   UNL     1      46.485   2.886  17.440  0.00  0.00    +0.000 OA
ATOM     13  H   UNL     1      47.827   2.939  19.500  0.00  0.00    +0.000 HD
ATOM     14  H   UNL     1      48.764   4.333  19.091  0.00  0.00    +0.000 HD
ENDBRANCH   2  11
ENDBRANCH   1   6
BRANCH   1  15
ATOM     15  C   UNL     1      47.491   7.688  12.351  0.00  0.00    +0.000 A 
ATOM     16  C   UNL     1      46.551   8.659  12.713  0.00  0.00    +0.000 A 
ATOM     17  C   UNL     1      45.211   8.499  12.372  0.00  0.00    +0.000 A 
ATOM     18  C   UNL     1      44.797   7.369  11.661  0.00  0.00    +0.000 A 
ATOM     19  C   UNL     1      45.713   6.379  11.264  0.00  0.00    +0.000 A 
ATOM     20  C   UNL     1      47.058   6.557  11.636  0.00  0.00    +0.000 A 
BRANCH  19  21
ATOM     21  C   UNL     1      45.292   5.213  10.461  0.00  0.00    +0.000 A 
ATOM     22  C   UNL     1      44.424   4.241  10.971  0.00  0.00    +0.000 A 
ATOM     23  N   UNL     1      43.975   3.153  10.293  0.00  0.00    +0.000 NA
ATOM     24  C   UNL     1      44.402   3.028   9.017  0.00  0.00    +0.000 A 
ATOM     25  C   UNL     1      45.254   3.930   8.411  0.00  0.00    +0.000 A 
ATOM     26  F   UNL     1      45.639   3.758   7.141  0.00  0.00    +0.000 F 
ATOM     27  C   UNL     1      45.708   5.026   9.136  0.00  0.00    +0.000 A 
ENDBRANCH  19  21
ENDBRANCH   1  15
TORSDOF 4
ENDMDL
MODEL 7
REMARK VINA RESULT:    -6.979      4.277      8.448
REMARK INTER + INTRA:          -9.178
REMARK INTER:                  -8.490
REMARK INTRA:                  -0.689
REMARK UNBOUND:                -0.567
REMARK  Name = 
REMARK  4 active torsions:
REMARK  status: ('A' for Active; 'I' for Inactive)
REMARK    1  A    between atoms: C_2  and  C_4
REMARK    2  A    between atoms: N_8  and  C_9
REMARK    3  A    between atoms: C_9  and  C_10
REMARK    4  A    between atoms: C_14  and  C_15
REMARK                            x       y       z     vdW  Elec       q    Type
REMARK                         _______ _______ _______ _____ _____    ______ ____
ROOT
ATOM      1  C   UNL     1      47.446   4.048  16.876  0.00  0.00    +0.000 C 
ENDROOT
BRANCH   1   6
ATOM      2  C   UNL     1      52.237   2.420  17.935  0.00  0.00    +0.000 A 
ATOM      3  C   UNL     1      51.630   3.649  18.170  0.00  0.00    +0.000 A 
ATOM      4  C   UNL     1      50.305   3.837  17.779  0.00  0.00    +0.000 A 
ATOM      5  C   UNL     1      49.610   2.809  17.153  0.00  0.00    +0.000 A 
ATOM      6  N   UNL     1      48.289   2.880  16.813  0.00  0.00    +0.000 N 
ATOM      7  N   UNL     1      50.204   1.629  16.884  0.00  0.00    +0.000 NA
ATOM      8  C   UNL     1      51.497   1.457  17.270  0.00  0.00    +0.000 A 
ATOM      9  H   UNL     1      47.990   2.085  16.262  0.00  0.00    +0.000 HD
BRANCH   2  11
ATOM     10  N   UNL     1      54.565   3.077  18.116  0.00  0.00    +0.000 N 
ATOM     11  C   UNL     1      53.617   2.121  18.359  0.00  0.00    +0.000 C 
ATOM     12  O   UNL     1      53.900   1.084  18.944  0.00  0.00    +0.000 OA
ATOM     13  H   UNL     1      55.486   2.911  18.505  0.00  0.00    +0.000 HD
ATOM     14  H   UNL     1      54.331   4.029  17.870  0.00  0.00    +0.000 HD
ENDBRANCH   2  11
ENDBRANCH   1   6
BRANCH   1  15
ATOM     15  C   UNL     1      47.440   4.811  15.575  0.00  0.00    +0.000 A 
ATOM     16  C   UNL     1      48.300   5.897  15.375  0.00  0.00    +0.000 A 
ATOM     17  C   UNL     1      48.273   6.600  14.173  0.00  0.00    +0.000 A 
ATOM     18  C   UNL     1      47.390   6.223  13.159  0.00  0.00    +0.000 A 
ATOM     19  C   UNL     1      46.522   5.128  13.314  0.00  0.00    +0.000 A 
ATOM     20  C   UNL     1      46.558   4.445  14.543  0.00  0.00    +0.000 A 
BRANCH  19  21
ATOM     21  C   UNL     1      45.629   4.687  12.223  0.00  0.00    +0.000 A 
ATOM     22  C   UNL     1      45.636   5.307  10.968  0.00  0.00    +0.000 A 
ATOM     23  N   UNL     1      44.862   4.950   9.910  0.00  0.00    +0.000 NA
ATOM     24  C   UNL     1      44.038   3.897  10.103  0.00  0.00    +0.000 A 
ATOM     25  C   UNL     1      43.954   3.209  11.296  0.00  0.00    +0.000 A 
ATOM     26  F   UNL     1      43.122   2.168  11.427  0.00  0.00    +0.000 F 
ATOM     27  C   UNL     1      44.747   3.607  12.366  0.00  0.00    +0.000 A 
ENDBRANCH  19  21
ENDBRANCH   1  15
TORSDOF 4
ENDMDL
MODEL 8
REMARK VINA RESULT:    -6.899      3.048      4.008
REMARK INTER + INTRA:          -9.080
REMARK INTER:                  -8.584
REMARK INTRA:                  -0.496
REMARK UNBOUND:                -0.567
REMARK  Name = 
REMARK  4 active torsions:
REMARK  status: ('A' for Active; 'I' for Inactive)
REMARK    1  A    between atoms: C_2  and  C_4
REMARK    2  A    between atoms: N_8  and  C_9
REMARK    3  A    between atoms: C_9  and  C_10
REMARK    4  A    between atoms: C_14  and  C_15
REMARK                            x       y       z     vdW  Elec       q    Type
REMARK                         _______ _______ _______ _____ _____    ______ ____
ROOT
ATOM      1  C   UNL     1      43.364   5.128  11.783  0.00  0.00    +0.000 C 
ENDROOT
BRANCH   1   6
ATOM      2  C   UNL     1      45.908   3.033   7.801  0.00  0.00    +0.000 A 
ATOM      3  C   UNL     1      46.044   4.280   8.402  0.00  0.00    +0.000 A 
ATOM      4  C   UNL     1      45.220   4.608   9.478  0.00  0.00    +0.000 A 
ATOM      5  C   UNL     1      44.269   3.701   9.929  0.00  0.00    +0.000 A 
ATOM      6  N   UNL     1      43.480   3.907  11.025  0.00  0.00    +0.000 N 
ATOM      7  N   UNL     1      44.104   2.506   9.326  0.00  0.00    +0.000 NA
ATOM      8  C   UNL     1      44.913   2.197   8.278  0.00  0.00    +0.000 A 
ATOM      9  H   UNL     1      42.771   3.193  11.129  0.00  0.00    +0.000 HD
BRANCH   2  11
ATOM     10  N   UNL     1      47.172   3.538   5.792  0.00  0.00    +0.000 N 
ATOM     11  C   UNL     1      46.771   2.587   6.692  0.00  0.00    +0.000 C 
ATOM     12  O   UNL     1      47.153   1.428   6.599  0.00  0.00    +0.000 OA
ATOM     13  H   UNL     1      47.849   3.246   5.097  0.00  0.00    +0.000 HD
ATOM     14  H   UNL     1      47.088   4.529   5.971  0.00  0.00    +0.000 HD
ENDBRANCH   2  11
ENDBRANCH   1   6
BRANCH   1  15
ATOM     15  C   UNL     1      44.659   5.495  12.464  0.00  0.00    +0.000 A 
ATOM     16  C   UNL     1      45.375   4.548  13.205  0.00  0.00    +0.000 A 
ATOM     17  C   UNL     1      46.562   4.906  13.840  0.00  0.00    +0.000 A 
ATOM     18  C   UNL     1      47.047   6.212  13.737  0.00  0.00    +0.000 A 
ATOM     19  C   UNL     1      46.366   7.188  12.989  0.00  0.00    +0.000 A 
ATOM     20  C   UNL     1      45.162   6.805  12.371  0.00  0.00    +0.000 A 
BRANCH  19  21
ATOM     21  C   UNL     1      46.905   8.554  12.827  0.00  0.00    +0.000 A 
ATOM     22  C   UNL     1      47.927   9.045  13.647  0.00  0.00    +0.000 A 
ATOM     23  N   UNL     1      48.489  10.279  13.550  0.00  0.00    +0.000 NA
ATOM     24  C   UNL     1      48.017  11.073  12.563  0.00  0.00    +0.000 A 
ATOM     25  C   UNL     1      47.016  10.688  11.694  0.00  0.00    +0.000 A 
ATOM     26  F   UNL     1      46.593  11.516  10.731  0.00  0.00    +0.000 F 
ATOM     27  C   UNL     1      46.450   9.426  11.828  0.00  0.00    +0.000 A 
ENDBRANCH  19  21
ENDBRANCH   1  15
TORSDOF 4
ENDMDL
MODEL 9
REMARK VINA RESULT:    -6.806      2.829      4.858
REMARK INTER + INTRA:          -8.965
REMARK INTER:                  -8.219
REMARK INTRA:                  -0.746
REMARK UNBOUND:                -0.567
REMARK  Name = 
REMARK  4 active torsions:
REMARK  status: ('A' for Active; 'I' for Inactive)
REMARK    1  A    between atoms: C_2  and  C_4
REMARK    2  A    between atoms: N_8  and  C_9
REMARK    3  A    between atoms: C_9  and  C_10
REMARK    4  A    between atoms: C_14  and  C_15
REMARK                            x       y       z     vdW  Elec       q    Type
REMARK                         _______ _______ _______ _____ _____    ______ ____
ROOT
ATOM      1  C   UNL     1      47.272   8.691  13.320  0.00  0.00    +0.000 C 
ENDROOT
BRANCH   1   6
ATOM      2  C   UNL     1      44.666   5.033  10.761  0.00  0.00    +0.000 A 
ATOM      3  C   UNL     1      45.862   5.672  10.451  0.00  0.00    +0.000 A 
ATOM      4  C   UNL     1      46.359   6.641  11.321  0.00  0.00    +0.000 A 
ATOM      5  C   UNL     1      45.656   6.968  12.475  0.00  0.00    +0.000 A 
ATOM      6  N   UNL     1      46.110   7.843  13.420  0.00  0.00    +0.000 N 
ATOM      7  N   UNL     1      44.475   6.382  12.761  0.00  0.00    +0.000 NA
ATOM      8  C   UNL     1      44.001   5.438  11.905  0.00  0.00    +0.000 A 
ATOM      9  H   UNL     1      45.413   8.043  14.126  0.00  0.00    +0.000 HD
BRANCH   2  11
ATOM     10  N   UNL     1      44.114   4.156   8.567  0.00  0.00    +0.000 N 
ATOM     11  C   UNL     1      44.096   3.963   9.921  0.00  0.00    +0.000 C 
ATOM     12  O   UNL     1      43.664   2.925  10.407  0.00  0.00    +0.000 OA
ATOM     13  H   UNL     1      43.820   3.373   7.994  0.00  0.00    +0.000 HD
ATOM     14  H   UNL     1      44.678   4.868   8.124  0.00  0.00    +0.000 HD
ENDBRANCH   2  11
ENDBRANCH   1   6
BRANCH   1  15
ATOM     15  C   UNL     1      48.436   8.151  14.113  0.00  0.00    +0.000 A 
ATOM     16  C   UNL     1      49.717   8.693  13.968  0.00  0.00    +0.000 A 
ATOM     17  C   UNL     1      50.785   8.175  14.697  0.00  0.00    +0.000 A 
ATOM     18  C   UNL     1      50.580   7.112  15.581  0.00  0.00    +0.000 A 
ATOM     19  C   UNL     1      49.305   6.550  15.768  0.00  0.00    +0.000 A 
ATOM     20  C   UNL     1      48.248   7.082  15.007  0.00  0.00    +0.000 A 
BRANCH  19  21
ATOM     21  C   UNL     1      49.072   5.467  16.745  0.00  0.00    +0.000 A 
ATOM     22  C   UNL     1      49.910   5.277  17.849  0.00  0.00    +0.000 A 
ATOM     23  N   UNL     1      49.753   4.320  18.801  0.00  0.00    +0.000 NA
ATOM     24  C   UNL     1      48.684   3.507  18.657  0.00  0.00    +0.000 A 
ATOM     25  C   UNL     1      47.790   3.608  17.611  0.00  0.00    +0.000 A 
ATOM     26  F   UNL     1      46.744   2.778  17.524  0.00  0.00    +0.000 F 
ATOM     27  C   UNL     1      47.985   4.588  16.644  0.00  0.00    +0.000 A 
ENDBRANCH  19  21
ENDBRANCH   1  15
TORSDOF 4
ENDMDL
