MODEL 1
REMARK VINA RESULT:    -6.990      0.000      0.000
REMARK INTER + INTRA:         -10.020
REMARK INTER:                  -9.442
REMARK INTRA:                  -0.578
REMARK UNBOUND:                -0.578
REMARK  Name = 
REMARK  10 active torsions:
REMARK  status: ('A' for Active; 'I' for Inactive)
REMARK    1  A    between atoms: C_1  and  C_2
REMARK    2  A    between atoms: C_2  and  C_3
REMARK    3  A    between atoms: C_2  and  N_4
REMARK    4  A    between atoms: C_5  and  C_7
REMARK    5  A    between atoms: C_10  and  O_11
REMARK    6  A    between atoms: O_11  and  C_12
REMARK    7  A    between atoms: C_12  and  C_13
REMARK    8  A    between atoms: C_13  and  C_14
REMARK    9  A    between atoms: C_13  and  C_15
REMARK   10  A    between atoms: C_13  and  C_16
REMARK                            x       y       z     vdW  Elec       q    Type
REMARK                         _______ _______ _______ _____ _____    ______ ____
ROOT
ATOM      1  C   UNL     1      47.157   5.596  14.072  0.00  0.00    +0.000 A 
ATOM      2  C   UNL     1      47.532   6.405  12.999  0.00  0.00    +0.000 A 
ATOM      3  C   UNL     1      46.828   6.342  11.794  0.00  0.00    +0.000 A 
ATOM      4  C   UNL     1      45.744   5.473  11.654  0.00  0.00    +0.000 A 
ATOM      5  C   UNL     1      45.373   4.660  12.728  0.00  0.00    +0.000 A 
ATOM      6  C   UNL     1      46.078   4.717  13.933  0.00  0.00    +0.000 A 
ENDROOT
BRANCH   1   8
ATOM      7  N   UNL     1      47.354   4.914  16.410  0.00  0.00    +0.000 N 
ATOM      8  C   UNL     1      47.936   5.576  15.340  0.00  0.00    +0.000 C 
ATOM      9  O   UNL     1      49.012   6.141  15.394  0.00  0.00    +0.000 OA
ATOM     10  H   UNL     1      46.500   4.397  16.276  0.00  0.00    +0.000 HD
BRANCH   7  12
ATOM     11  C   UNL     1      47.231   5.604  18.755  0.00  0.00    +0.000 C 
ATOM     12  C   UNL     1      48.020   4.830  17.704  0.00  0.00    +0.000 C 
ATOM     13  C   UNL     1      48.205   3.381  18.154  0.00  0.00    +0.000 C 
ENDBRANCH   7  12
ENDBRANCH   1   8
BRANCH   4  14
ATOM     14  O   UNL     1      44.984   5.324  10.524  0.00  0.00    +0.000 OA
BRANCH  14  15
ATOM     15  C   UNL     1      45.677   4.893   9.349  0.00  0.00    +0.000 C 
BRANCH  15  16
ATOM     16  C   UNL     1      45.086   3.568   8.785  0.00  0.00    +0.000 C 
ATOM     17  C   UNL     1      44.557   2.726   9.969  0.00  0.00    +0.000 C 
ATOM     18  C   UNL     1      43.900   3.929   7.861  0.00  0.00    +0.000 C 
BRANCH  16  19
ATOM     19  C   UNL     1      46.132   2.730   8.021  0.00  0.00    +0.000 A 
ATOM     20  C   UNL     1      46.209   1.332   8.112  0.00  0.00    +0.000 A 
ATOM     21  C   UNL     1      47.146   0.644   7.349  0.00  0.00    +0.000 A 
ATOM     22  N   UNL     1      48.016   1.236   6.510  0.00  0.00    +0.000 NA
ATOM     23  C   UNL     1      47.944   2.579   6.428  0.00  0.00    +0.000 A 
ATOM     24  C   UNL     1      47.041   3.350   7.147  0.00  0.00    +0.000 A 
ENDBRANCH  16  19
ENDBRANCH  15  16
ENDBRANCH  14  15
ENDBRANCH   4  14
TORSDOF 6
ENDMDL
MODEL 2
REMARK VINA RESULT:    -6.545      3.134      4.647
REMARK INTER + INTRA:          -9.418
REMARK INTER:                  -8.296
REMARK INTRA:                  -1.122
REMARK UNBOUND:                -0.578
REMARK  Name = 
REMARK  10 active torsions:
REMARK  status: ('A' for Active; 'I' for Inactive)
REMARK    1  A    between atoms: C_1  and  C_2
REMARK    2  A    between atoms: C_2  and  C_3
REMARK    3  A    between atoms: C_2  and  N_4
REMARK    4  A    between atoms: C_5  and  C_7
REMARK    5  A    between atoms: C_10  and  O_11
REMARK    6  A    between atoms: O_11  and  C_12
REMARK    7  A    between atoms: C_12  and  C_13
REMARK    8  A    between atoms: C_13  and  C_14
REMARK    9  A    between atoms: C_13  and  C_15
REMARK   10  A    between atoms: C_13  and  C_16
REMARK                            x       y       z     vdW  Elec       q    Type
REMARK                         _______ _______ _______ _____ _____    ______ ____
ROOT
ATOM      1  C   UNL     1      48.279   7.881  12.324  0.00  0.00    +0.000 A 
ATOM      2  C   UNL     1      47.029   8.475  12.141  0.00  0.00    +0.000 A 
ATOM      3  C   UNL     1      45.865   7.764  12.443  0.00  0.00    +0.000 A 
ATOM      4  C   UNL     1      45.940   6.459  12.932  0.00  0.00    +0.000 A 
ATOM      5  C   UNL     1      47.192   5.864  13.109  0.00  0.00    +0.000 A 
ATOM      6  C   UNL     1      48.359   6.570  12.804  0.00  0.00    +0.000 A 
ENDROOT
BRANCH   1   8
ATOM      7  N   UNL     1      50.715   7.884  12.147  0.00  0.00    +0.000 N 
ATOM      8  C   UNL     1      49.534   8.577  11.933  0.00  0.00    +0.000 C 
ATOM      9  O   UNL     1      49.481   9.703  11.473  0.00  0.00    +0.000 OA
ATOM     10  H   UNL     1      50.685   6.924  12.454  0.00  0.00    +0.000 HD
BRANCH   7  12
ATOM     11  C   UNL     1      52.929   8.449  13.024  0.00  0.00    +0.000 C 
ATOM     12  C   UNL     1      52.009   8.463  11.808  0.00  0.00    +0.000 C 
ATOM     13  C   UNL     1      52.673   7.727  10.645  0.00  0.00    +0.000 C 
ENDBRANCH   7  12
ENDBRANCH   1   8
BRANCH   4  14
ATOM     14  O   UNL     1      44.871   5.667  13.258  0.00  0.00    +0.000 OA
BRANCH  14  15
ATOM     15  C   UNL     1      44.932   4.309  12.813  0.00  0.00    +0.000 C 
BRANCH  15  16
ATOM     16  C   UNL     1      43.931   4.038  11.651  0.00  0.00    +0.000 C 
ATOM     17  C   UNL     1      43.305   2.641  11.862  0.00  0.00    +0.000 C 
ATOM     18  C   UNL     1      42.812   5.103  11.728  0.00  0.00    +0.000 C 
BRANCH  16  19
ATOM     19  C   UNL     1      44.609   4.065  10.265  0.00  0.00    +0.000 A 
ATOM     20  C   UNL     1      45.406   5.131   9.822  0.00  0.00    +0.000 A 
ATOM     21  C   UNL     1      46.027   5.055   8.581  0.00  0.00    +0.000 A 
ATOM     22  N   UNL     1      45.913   4.007   7.744  0.00  0.00    +0.000 NA
ATOM     23  C   UNL     1      45.143   2.987   8.169  0.00  0.00    +0.000 A 
ATOM     24  C   UNL     1      44.486   2.971   9.392  0.00  0.00    +0.000 A 
ENDBRANCH  16  19
ENDBRANCH  15  16
ENDBRANCH  14  15
ENDBRANCH   4  14
TORSDOF 6
ENDMDL
MODEL 3
REMARK VINA RESULT:    -6.230      1.955      3.097
REMARK INTER + INTRA:          -8.994
REMARK INTER:                  -8.293
REMARK INTRA:                  -0.700
REMARK UNBOUND:                -0.578
REMARK  Name = 
REMARK  10 active torsions:
REMARK  status: ('A' for Active; 'I' for Inactive)
REMARK    1  A    between atoms: C_1  and  C_2
REMARK    2  A    between atoms: C_2  and  C_3
REMARK    3  A    between atoms: C_2  and  N_4
REMARK    4  A    between atoms: C_5  and  C_7
REMARK    5  A    between atoms: C_10  and  O_11
REMARK    6  A    between atoms: O_11  and  C_12
REMARK    7  A    between atoms: C_12  and  C_13
REMARK    8  A    between atoms: C_13  and  C_14
REMARK    9  A    between atoms: C_13  and  C_15
REMARK   10  A    between atoms: C_13  and  C_16
REMARK                            x       y       z     vdW  Elec       q    Type
REMARK                         _______ _______ _______ _____ _____    ______ ____
ROOT
ATOM      1  C   UNL     1      48.260   5.426  16.238  0.00  0.00    +0.000 A 
ATOM      2  C   UNL     1      47.437   4.332  15.965  0.00  0.00    +0.000 A 
ATOM      3  C   UNL     1      46.811   4.219  14.721  0.00  0.00    +0.000 A 
ATOM      4  C   UNL     1      47.004   5.194  13.742  0.00  0.00    +0.000 A 
ATOM      5  C   UNL     1      47.824   6.292  14.018  0.00  0.00    +0.000 A 
ATOM      6  C   UNL     1      48.448   6.411  15.262  0.00  0.00    +0.000 A 
ENDROOT
BRANCH   1   8
ATOM      7  N   UNL     1      47.999   5.715  18.649  0.00  0.00    +0.000 N 
ATOM      8  C   UNL     1      48.874   5.622  17.578  0.00  0.00    +0.000 C 
ATOM      9  O   UNL     1      50.083   5.711  17.679  0.00  0.00    +0.000 OA
ATOM     10  H   UNL     1      47.014   5.551  18.509  0.00  0.00    +0.000 HD
BRANCH   7  12
ATOM     11  C   UNL     1      47.460   6.696  20.826  0.00  0.00    +0.000 C 
ATOM     12  C   UNL     1      48.482   5.911  20.011  0.00  0.00    +0.000 C 
ATOM     13  C   UNL     1      48.788   4.582  20.701  0.00  0.00    +0.000 C 
ENDBRANCH   7  12
ENDBRANCH   1   8
BRANCH   4  14
ATOM     14  O   UNL     1      46.442   5.191  12.492  0.00  0.00    +0.000 OA
BRANCH  14  15
ATOM     15  C   UNL     1      45.205   5.896  12.354  0.00  0.00    +0.000 C 
BRANCH  15  16
ATOM     16  C   UNL     1      44.093   4.994  11.743  0.00  0.00    +0.000 C 
ATOM     17  C   UNL     1      43.633   3.987  12.822  0.00  0.00    +0.000 C 
ATOM     18  C   UNL     1      42.898   5.900  11.365  0.00  0.00    +0.000 C 
BRANCH  16  19
ATOM     19  C   UNL     1      44.582   4.200  10.513  0.00  0.00    +0.000 A 
ATOM     20  C   UNL     1      44.357   2.825  10.350  0.00  0.00    +0.000 A 
ATOM     21  C   UNL     1      44.782   2.193   9.187  0.00  0.00    +0.000 A 
ATOM     22  N   UNL     1      45.418   2.818   8.179  0.00  0.00    +0.000 NA
ATOM     23  C   UNL     1      45.638   4.137   8.340  0.00  0.00    +0.000 A 
ATOM     24  C   UNL     1      45.248   4.854   9.463  0.00  0.00    +0.000 A 
ENDBRANCH  16  19
ENDBRANCH  15  16
ENDBRANCH  14  15
ENDBRANCH   4  14
TORSDOF 6
ENDMDL
MODEL 4
REMARK VINA RESULT:    -6.096      3.210      4.349
REMARK INTER + INTRA:          -8.812
REMARK INTER:                  -7.841
REMARK INTRA:                  -0.971
REMARK UNBOUND:                -0.578
REMARK  Name = 
REMARK  10 active torsions:
REMARK  status: ('A' for Active; 'I' for Inactive)
REMARK    1  A    between atoms: C_1  and  C_2
REMARK    2  A    between atoms: C_2  and  C_3
REMARK    3  A    between atoms: C_2  and  N_4
REMARK    4  A    between atoms: C_5  and  C_7
REMARK    5  A    between atoms: C_10  and  O_11
REMARK    6  A    between atoms: O_11  and  C_12
REMARK    7  A    between atoms: C_12  and  C_13
REMARK    8  A    between atoms: C_13  and  C_14
REMARK    9  A    between atoms: C_13  and  C_15
REMARK   10  A    between atoms: C_13  and  C_16
REMARK                            x       y       z     vdW  Elec       q    Type
REMARK                         _______ _______ _______ _____ _____    ______ ____
ROOT
ATOM      1  C   UNL     1      49.215   7.488  12.606  0.00  0.00    +0.000 A 
ATOM      2  C   UNL     1      48.934   6.887  13.833  0.00  0.00    +0.000 A 
ATOM      3  C   UNL     1      47.710   6.241  14.033  0.00  0.00    +0.000 A 
ATOM      4  C   UNL     1      46.764   6.189  13.009  0.00  0.00    +0.000 A 
ATOM      5  C   UNL     1      47.045   6.796  11.782  0.00  0.00    +0.000 A 
ATOM      6  C   UNL     1      48.265   7.447  11.580  0.00  0.00    +0.000 A 
ENDROOT
BRANCH   1   8
ATOM      7  N   UNL     1      51.484   8.058  13.311  0.00  0.00    +0.000 N 
ATOM      8  C   UNL     1      50.470   8.256  12.387  0.00  0.00    +0.000 C 
ATOM      9  O   UNL     1      50.550   9.022  11.444  0.00  0.00    +0.000 OA
ATOM     10  H   UNL     1      51.384   7.349  14.020  0.00  0.00    +0.000 HD
BRANCH   7  12
ATOM     11  C   UNL     1      53.289   9.105  14.590  0.00  0.00    +0.000 C 
ATOM     12  C   UNL     1      52.759   8.757  13.203  0.00  0.00    +0.000 C 
ATOM     13  C   UNL     1      53.795   7.932  12.441  0.00  0.00    +0.000 C 
ENDBRANCH   7  12
ENDBRANCH   1   8
BRANCH   4  14
ATOM     14  O   UNL     1      45.535   5.589  13.089  0.00  0.00    +0.000 OA
BRANCH  14  15
ATOM     15  C   UNL     1      45.464   4.230  12.647  0.00  0.00    +0.000 C 
BRANCH  15  16
ATOM     16  C   UNL     1      44.374   4.037  11.552  0.00  0.00    +0.000 C 
ATOM     17  C   UNL     1      43.444   2.883  11.987  0.00  0.00    +0.000 C 
ATOM     18  C   UNL     1      43.547   5.340  11.467  0.00  0.00    +0.000 C 
BRANCH  16  19
ATOM     19  C   UNL     1      44.974   3.686  10.174  0.00  0.00    +0.000 A 
ATOM     20  C   UNL     1      45.079   2.371   9.697  0.00  0.00    +0.000 A 
ATOM     21  C   UNL     1      45.581   2.142   8.421  0.00  0.00    +0.000 A 
ATOM     22  N   UNL     1      45.994   3.114   7.587  0.00  0.00    +0.000 NA
ATOM     23  C   UNL     1      45.898   4.375   8.049  0.00  0.00    +0.000 A 
ATOM     24  C   UNL     1      45.407   4.703   9.306  0.00  0.00    +0.000 A 
ENDBRANCH  16  19
ENDBRANCH  15  16
ENDBRANCH  14  15
ENDBRANCH   4  14
TORSDOF 6
ENDMDL
MODEL 5
REMARK VINA RESULT:    -5.977      2.239      2.828
REMARK INTER + INTRA:          -8.652
REMARK INTER:                  -7.925
REMARK INTRA:                  -0.727
REMARK UNBOUND:                -0.578
REMARK  Name = 
REMARK  10 active torsions:
REMARK  status: ('A' for Active; 'I' for Inactive)
REMARK    1  A    between atoms: C_1  and  C_2
REMARK    2  A    between atoms: C_2  and  C_3
REMARK    3  A    between atoms: C_2  and  N_4
REMARK    4  A    between atoms: C_5  and  C_7
REMARK    5  A    between atoms: C_10  and  O_11
REMARK    6  A    between atoms: O_11  and  C_12
REMARK    7  A    between atoms: C_12  and  C_13
REMARK    8  A    between atoms: C_13  and  C_14
REMARK    9  A    between atoms: C_13  and  C_15
REMARK   10  A    between atoms: C_13  and  C_16
REMARK                            x       y       z     vdW  Elec       q    Type
REMARK                         _______ _______ _______ _____ _____    ______ ____
ROOT
ATOM      1  C   UNL     1      49.003   7.105  13.901  0.00  0.00    +0.000 A 
ATOM      2  C   UNL     1      48.945   7.499  12.563  0.00  0.00    +0.000 A 
ATOM      3  C   UNL     1      47.878   7.090  11.758  0.00  0.00    +0.000 A 
ATOM      4  C   UNL     1      46.862   6.290  12.284  0.00  0.00    +0.000 A 
ATOM      5  C   UNL     1      46.924   5.892  13.622  0.00  0.00    +0.000 A 
ATOM      6  C   UNL     1      47.992   6.295  14.429  0.00  0.00    +0.000 A 
ENDROOT
BRANCH   1   8
ATOM      7  N   UNL     1      50.297   6.727  15.938  0.00  0.00    +0.000 N 
ATOM      8  C   UNL     1      50.165   7.451  14.763  0.00  0.00    +0.000 C 
ATOM      9  O   UNL     1      50.921   8.343  14.425  0.00  0.00    +0.000 OA
ATOM     10  H   UNL     1      49.685   5.947  16.119  0.00  0.00    +0.000 HD
BRANCH   7  12
ATOM     11  C   UNL     1      50.887   6.947  18.303  0.00  0.00    +0.000 C 
ATOM     12  C   UNL     1      51.394   6.978  16.865  0.00  0.00    +0.000 C 
ATOM     13  C   UNL     1      52.526   5.967  16.691  0.00  0.00    +0.000 C 
ENDBRANCH   7  12
ENDBRANCH   1   8
BRANCH   4  14
ATOM     14  O   UNL     1      45.774   5.828  11.592  0.00  0.00    +0.000 OA
BRANCH  14  15
ATOM     15  C   UNL     1      45.378   4.480  11.865  0.00  0.00    +0.000 C 
BRANCH  15  16
ATOM     16  C   UNL     1      44.384   3.944  10.793  0.00  0.00    +0.000 C 
ATOM     17  C   UNL     1      43.593   2.766  11.406  0.00  0.00    +0.000 C 
ATOM     18  C   UNL     1      43.397   5.082  10.446  0.00  0.00    +0.000 C 
BRANCH  16  19
ATOM     19  C   UNL     1      45.099   3.440   9.521  0.00  0.00    +0.000 A 
ATOM     20  C   UNL     1      45.639   4.302   8.554  0.00  0.00    +0.000 A 
ATOM     21  C   UNL     1      46.316   3.770   7.463  0.00  0.00    +0.000 A 
ATOM     22  N   UNL     1      46.492   2.453   7.253  0.00  0.00    +0.000 NA
ATOM     23  C   UNL     1      45.968   1.628   8.180  0.00  0.00    +0.000 A 
ATOM     24  C   UNL     1      45.279   2.064   9.303  0.00  0.00    +0.000 A 
ENDBRANCH  16  19
ENDBRANCH  15  16
ENDBRANCH  14  15
ENDBRANCH   4  14
TORSDOF 6
ENDMDL
MODEL 6
REMARK VINA RESULT:    -5.910      2.372      8.514
REMARK INTER + INTRA:          -8.561
REMARK INTER:                  -7.823
REMARK INTRA:                  -0.738
REMARK UNBOUND:                -0.578
REMARK  Name = 
REMARK  10 active torsions:
REMARK  status: ('A' for Active; 'I' for Inactive)
REMARK    1  A    between atoms: C_1  and  C_2
REMARK    2  A    between atoms: C_2  and  C_3
REMARK    3  A    between atoms: C_2  and  N_4
REMARK    4  A    between atoms: C_5  and  C_7
REMARK    5  A    between atoms: C_10  and  O_11
REMARK    6  A    between atoms: O_11  and  C_12
REMARK    7  A    between atoms: C_12  and  C_13
REMARK    8  A    between atoms: C_13  and  C_14
REMARK    9  A    between atoms: C_13  and  C_15
REMARK   10  A    between atoms: C_13  and  C_16
REMARK                            x       y       z     vdW  Elec       q    Type
REMARK                         _______ _______ _______ _____ _____    ______ ____
ROOT
ATOM      1  C   UNL     1      45.954   4.890  12.186  0.00  0.00    +0.000 A 
ATOM      2  C   UNL     1      46.617   6.117  12.213  0.00  0.00    +0.000 A 
ATOM      3  C   UNL     1      47.417   6.457  13.308  0.00  0.00    +0.000 A 
ATOM      4  C   UNL     1      47.563   5.572  14.378  0.00  0.00    +0.000 A 
ATOM      5  C   UNL     1      46.894   4.345  14.351  0.00  0.00    +0.000 A 
ATOM      6  C   UNL     1      46.089   4.005  13.261  0.00  0.00    +0.000 A 
ENDROOT
BRANCH   1   8
ATOM      7  N   UNL     1      45.573   3.813  10.027  0.00  0.00    +0.000 N 
ATOM      8  C   UNL     1      45.028   4.532  11.078  0.00  0.00    +0.000 C 
ATOM      9  O   UNL     1      43.865   4.891  11.126  0.00  0.00    +0.000 OA
ATOM     10  H   UNL     1      46.521   3.476  10.087  0.00  0.00    +0.000 HD
BRANCH   7  12
ATOM     11  C   UNL     1      45.534   3.635   7.586  0.00  0.00    +0.000 C 
ATOM     12  C   UNL     1      44.765   3.407   8.883  0.00  0.00    +0.000 C 
ATOM     13  C   UNL     1      44.335   1.944   8.982  0.00  0.00    +0.000 C 
ENDBRANCH   7  12
ENDBRANCH   1   8
BRANCH   4  14
ATOM     14  O   UNL     1      48.315   5.797  15.500  0.00  0.00    +0.000 OA
BRANCH  14  15
ATOM     15  C   UNL     1      48.090   4.909  16.600  0.00  0.00    +0.000 C 
BRANCH  15  16
ATOM     16  C   UNL     1      49.181   5.066  17.700  0.00  0.00    +0.000 C 
ATOM     17  C   UNL     1      49.944   6.386  17.445  0.00  0.00    +0.000 C 
ATOM     18  C   UNL     1      48.469   5.158  19.069  0.00  0.00    +0.000 C 
BRANCH  16  19
ATOM     19  C   UNL     1      50.200   3.907  17.696  0.00  0.00    +0.000 A 
ATOM     20  C   UNL     1      49.874   2.603  17.291  0.00  0.00    +0.000 A 
ATOM     21  C   UNL     1      50.862   1.626  17.264  0.00  0.00    +0.000 A 
ATOM     22  N   UNL     1      52.144   1.840  17.614  0.00  0.00    +0.000 NA
ATOM     23  C   UNL     1      52.453   3.090  18.008  0.00  0.00    +0.000 A 
ATOM     24  C   UNL     1      51.537   4.131  18.064  0.00  0.00    +0.000 A 
ENDBRANCH  16  19
ENDBRANCH  15  16
ENDBRANCH  14  15
ENDBRANCH   4  14
TORSDOF 6
ENDMDL
MODEL 7
REMARK VINA RESULT:    -5.857      3.123      7.863
REMARK INTER + INTRA:          -8.490
REMARK INTER:                  -7.528
REMARK INTRA:                  -0.962
REMARK UNBOUND:                -0.578
REMARK  Name = 
REMARK  10 active torsions:
REMARK  status: ('A' for Active; 'I' for Inactive)
REMARK    1  A    between atoms: C_1  and  C_2
REMARK    2  A    between atoms: C_2  and  C_3
REMARK    3  A    between atoms: C_2  and  N_4
REMARK    4  A    between atoms: C_5  and  C_7
REMARK    5  A    between atoms: C_10  and  O_11
REMARK    6  A    between atoms: O_11  and  C_12
REMARK    7  A    between atoms: C_12  and  C_13
REMARK    8  A    between atoms: C_13  and  C_14
REMARK    9  A    between atoms: C_13  and  C_15
REMARK   10  A    between atoms: C_13  and  C_16
REMARK                            x       y       z     vdW  Elec       q    Type
REMARK                         _______ _______ _______ _____ _____    ______ ____
ROOT
ATOM      1  C   UNL     1      45.173   4.155   9.809  0.00  0.00    +0.000 A 
ATOM      2  C   UNL     1      44.529   3.934  11.028  0.00  0.00    +0.000 A 
ATOM      3  C   UNL     1      44.621   4.882  12.050  0.00  0.00    +0.000 A 
ATOM      4  C   UNL     1      45.352   6.056  11.862  0.00  0.00    +0.000 A 
ATOM      5  C   UNL     1      46.000   6.274  10.642  0.00  0.00    +0.000 A 
ATOM      6  C   UNL     1      45.915   5.326   9.619  0.00  0.00    +0.000 A 
ENDROOT
BRANCH   1   8
ATOM      7  N   UNL     1      46.174   3.228   7.783  0.00  0.00    +0.000 N 
ATOM      8  C   UNL     1      45.168   3.130   8.731  0.00  0.00    +0.000 C 
ATOM      9  O   UNL     1      44.294   2.283   8.710  0.00  0.00    +0.000 OA
ATOM     10  H   UNL     1      46.913   3.902   7.903  0.00  0.00    +0.000 HD
BRANCH   7  12
ATOM     11  C   UNL     1      46.959   2.936   5.483  0.00  0.00    +0.000 C 
ATOM     12  C   UNL     1      46.270   2.283   6.676  0.00  0.00    +0.000 C 
ATOM     13  C   UNL     1      47.018   1.013   7.078  0.00  0.00    +0.000 C 
ENDBRANCH   7  12
ENDBRANCH   1   8
BRANCH   4  14
ATOM     14  O   UNL     1      45.514   7.052  12.789  0.00  0.00    +0.000 OA
BRANCH  14  15
ATOM     15  C   UNL     1      46.815   7.165  13.374  0.00  0.00    +0.000 C 
BRANCH  15  16
ATOM     16  C   UNL     1      47.375   8.613  13.256  0.00  0.00    +0.000 C 
ATOM     17  C   UNL     1      46.301   9.499  12.586  0.00  0.00    +0.000 C 
ATOM     18  C   UNL     1      47.637   9.141  14.685  0.00  0.00    +0.000 C 
BRANCH  16  19
ATOM     19  C   UNL     1      48.663   8.683  12.408  0.00  0.00    +0.000 A 
ATOM     20  C   UNL     1      49.255   9.893  12.014  0.00  0.00    +0.000 A 
ATOM     21  C   UNL     1      50.446   9.872  11.297  0.00  0.00    +0.000 A 
ATOM     22  N   UNL     1      51.089   8.747  10.935  0.00  0.00    +0.000 NA
ATOM     23  C   UNL     1      50.515   7.587  11.310  0.00  0.00    +0.000 A 
ATOM     24  C   UNL     1      49.331   7.507  12.029  0.00  0.00    +0.000 A 
ENDBRANCH  16  19
ENDBRANCH  15  16
ENDBRANCH  14  15
ENDBRANCH   4  14
TORSDOF 6
ENDMDL
MODEL 8
REMARK VINA RESULT:    -5.798      2.397      3.269
REMARK INTER + INTRA:          -8.409
REMARK INTER:                  -7.746
REMARK INTRA:                  -0.663
REMARK UNBOUND:                -0.578
REMARK  Name = 
REMARK  10 active torsions:
REMARK  status: ('A' for Active; 'I' for Inactive)
REMARK    1  A    between atoms: C_1  and  C_2
REMARK    2  A    between atoms: C_2  and  C_3
REMARK    3  A    between atoms: C_2  and  N_4
REMARK    4  A    between atoms: C_5  and  C_7
REMARK    5  A    between atoms: C_10  and  O_11
REMARK    6  A    between atoms: O_11  and  C_12
REMARK    7  A    between atoms: C_12  and  C_13
REMARK    8  A    between atoms: C_13  and  C_14
REMARK    9  A    between atoms: C_13  and  C_15
REMARK   10  A    between atoms: C_13  and  C_16
REMARK                            x       y       z     vdW  Elec       q    Type
REMARK                         _______ _______ _______ _____ _____    ______ ____
ROOT
ATOM      1  C   UNL     1      48.655   5.900  16.182  0.00  0.00    +0.000 A 
ATOM      2  C   UNL     1      48.519   6.596  14.980  0.00  0.00    +0.000 A 
ATOM      3  C   UNL     1      47.658   6.120  13.987  0.00  0.00    +0.000 A 
ATOM      4  C   UNL     1      46.925   4.950  14.190  0.00  0.00    +0.000 A 
ATOM      5  C   UNL     1      47.066   4.250  15.392  0.00  0.00    +0.000 A 
ATOM      6  C   UNL     1      47.930   4.720  16.384  0.00  0.00    +0.000 A 
ENDROOT
BRANCH   1   8
ATOM      7  N   UNL     1      50.731   5.517  17.410  0.00  0.00    +0.000 N 
ATOM      8  C   UNL     1      49.625   6.330  17.224  0.00  0.00    +0.000 C 
ATOM      9  O   UNL     1      49.406   7.338  17.870  0.00  0.00    +0.000 OA
ATOM     10  H   UNL     1      50.895   4.742  16.787  0.00  0.00    +0.000 HD
BRANCH   7  12
ATOM     11  C   UNL     1      52.134   4.580  19.183  0.00  0.00    +0.000 C 
ATOM     12  C   UNL     1      51.749   5.833  18.405  0.00  0.00    +0.000 C 
ATOM     13  C   UNL     1      52.992   6.453  17.767  0.00  0.00    +0.000 C 
ENDBRANCH   7  12
ENDBRANCH   1   8
BRANCH   4  14
ATOM     14  O   UNL     1      46.056   4.388  13.292  0.00  0.00    +0.000 OA
BRANCH  14  15
ATOM     15  C   UNL     1      45.423   5.289  12.378  0.00  0.00    +0.000 C 
BRANCH  15  16
ATOM     16  C   UNL     1      44.315   4.579  11.545  0.00  0.00    +0.000 C 
ATOM     17  C   UNL     1      43.680   3.474  12.419  0.00  0.00    +0.000 C 
ATOM     18  C   UNL     1      43.232   5.627  11.201  0.00  0.00    +0.000 C 
BRANCH  16  19
ATOM     19  C   UNL     1      44.866   3.927  10.259  0.00  0.00    +0.000 A 
ATOM     20  C   UNL     1      44.782   2.550  10.003  0.00  0.00    +0.000 A 
ATOM     21  C   UNL     1      45.254   2.047   8.795  0.00  0.00    +0.000 A 
ATOM     22  N   UNL     1      45.807   2.802   7.829  0.00  0.00    +0.000 NA
ATOM     23  C   UNL     1      45.892   4.122   8.080  0.00  0.00    +0.000 A 
ATOM     24  C   UNL     1      45.446   4.717   9.253  0.00  0.00    +0.000 A 
ENDBRANCH  16  19
ENDBRANCH  15  16
ENDBRANCH  14  15
ENDBRANCH   4  14
TORSDOF 6
ENDMDL
MODEL 9
REMARK VINA RESULT:    -5.764      2.224      8.174
REMARK INTER + INTRA:          -8.364
REMARK INTER:                  -7.330
REMARK INTRA:                  -1.034
REMARK UNBOUND:                -0.578
REMARK  Name = 
REMARK  10 active torsions:
REMARK  status: ('A' for Active; 'I' for Inactive)
REMARK    1  A    between atoms: C_1  and  C_2
REMARK    2  A    between atoms: C_2  and  C_3
REMARK    3  A    between atoms: C_2  and  N_4
REMARK    4  A    between atoms: C_5  and  C_7
REMARK    5  A    between atoms: C_10  and  O_11
REMARK    6  A    between atoms: O_11  and  C_12
REMARK    7  A    between atoms: C_12  and  C_13
REMARK    8  A    between atoms: C_13  and  C_14
REMARK    9  A    between atoms: C_13  and  C_15
REMARK   10  A    between atoms: C_13  and  C_16
REMARK                            x       y       z     vdW  Elec       q    Type
REMARK                         _______ _______ _______ _____ _____    ______ ____
ROOT
ATOM      1  C   UNL     1      45.805   6.364  11.949  0.00  0.00    +0.000 A 
ATOM      2  C   UNL     1      45.572   7.685  12.333  0.00  0.00    +0.000 A 
ATOM      3  C   UNL     1      46.428   8.311  13.244  0.00  0.00    +0.000 A 
ATOM      4  C   UNL     1      47.522   7.624  13.773  0.00  0.00    +0.000 A 
ATOM      5  C   UNL     1      47.751   6.299  13.391  0.00  0.00    +0.000 A 
ATOM      6  C   UNL     1      46.894   5.668  12.484  0.00  0.00    +0.000 A 
ENDROOT
BRANCH   1   8
ATOM      7  N   UNL     1      45.436   4.734  10.167  0.00  0.00    +0.000 N 
ATOM      8  C   UNL     1      44.868   5.640  11.049  0.00  0.00    +0.000 C 
ATOM      9  O   UNL     1      43.675   5.878  11.104  0.00  0.00    +0.000 OA
ATOM     10  H   UNL     1      46.420   4.524  10.228  0.00  0.00    +0.000 HD
BRANCH   7  12
ATOM     11  C   UNL     1      45.345   3.816   7.900  0.00  0.00    +0.000 C 
ATOM     12  C   UNL     1      44.620   3.967   9.233  0.00  0.00    +0.000 C 
ATOM     13  C   UNL     1      44.263   2.590   9.791  0.00  0.00    +0.000 C 
ENDBRANCH   7  12
ENDBRANCH   1   8
BRANCH   4  14
ATOM     14  O   UNL     1      48.423   8.131  14.671  0.00  0.00    +0.000 OA
BRANCH  14  15
ATOM     15  C   UNL     1      49.541   7.295  14.985  0.00  0.00    +0.000 C 
BRANCH  15  16
ATOM     16  C   UNL     1      49.639   7.015  16.514  0.00  0.00    +0.000 C 
ATOM     17  C   UNL     1      51.090   7.288  16.968  0.00  0.00    +0.000 C 
ATOM     18  C   UNL     1      48.695   8.002  17.241  0.00  0.00    +0.000 C 
BRANCH  16  19
ATOM     19  C   UNL     1      49.280   5.558  16.875  0.00  0.00    +0.000 A 
ATOM     20  C   UNL     1      47.990   5.027  16.724  0.00  0.00    +0.000 A 
ATOM     21  C   UNL     1      47.761   3.688  17.020  0.00  0.00    +0.000 A 
ATOM     22  N   UNL     1      48.708   2.840  17.460  0.00  0.00    +0.000 NA
ATOM     23  C   UNL     1      49.944   3.354  17.610  0.00  0.00    +0.000 A 
ATOM     24  C   UNL     1      50.270   4.675  17.337  0.00  0.00    +0.000 A 
ENDBRANCH  16  19
ENDBRANCH  15  16
ENDBRANCH  14  15
ENDBRANCH   4  14
TORSDOF 6
ENDMDL
