MODEL 1
REMARK VINA RESULT:    -6.630      0.000      0.000
REMARK INTER + INTRA:          -7.726
REMARK INTER:                  -7.405
REMARK INTRA:                  -0.321
REMARK UNBOUND:                -0.321
REMARK  Name = 
REMARK  2 active torsions:
REMARK  status: ('A' for Active; 'I' for Inactive)
REMARK    1  A    between atoms: C_7  and  C_8
REMARK    2  A    between atoms: C_8  and  N_9
REMARK                            x       y       z     vdW  Elec       q    Type
REMARK                         _______ _______ _______ _____ _____    ______ ____
ROOT
ATOM      1  N   UNL     1      47.250   7.783  13.673  0.00  0.00    +0.000 NA
ATOM      2  C   UNL     1      46.101   7.879  13.102  0.00  0.00    +0.000 C 
ATOM      3  N   UNL     1      45.287   8.926  13.360  0.00  0.00    +0.000 N 
ATOM      4  N   UNL     1      45.588   6.941  12.251  0.00  0.00    +0.000 N 
ATOM      5  C   UNL     1      44.669   7.279  11.161  0.00  0.00    +0.000 C 
ATOM      6  C   UNL     1      43.607   6.191  11.078  0.00  0.00    +0.000 C 
ATOM      7  C   UNL     1      44.234   4.814  10.797  0.00  0.00    +0.000 C 
ATOM      8  C   UNL     1      45.318   4.528  11.852  0.00  0.00    +0.000 C 
ATOM      9  C   UNL     1      46.315   5.681  12.038  0.00  0.00    +0.000 C 
ATOM     10  H   UNL     1      47.411   8.605  14.255  0.00  0.00    +0.000 HD
ATOM     11  H   UNL     1      45.535   9.470  14.176  0.00  0.00    +0.000 HD
ATOM     12  H   UNL     1      44.312   8.653  13.400  0.00  0.00    +0.000 HD
ENDROOT
BRANCH   7  13
ATOM     13  C   UNL     1      44.793   4.677   9.362  0.00  0.00    +0.000 C 
BRANCH  13  14
ATOM     14  N   UNL     1      45.152   3.309   9.001  0.00  0.00    +0.000 N 
ATOM     15  C   UNL     1      44.507   2.200   9.486  0.00  0.00    +0.000 A 
ATOM     16  C   UNL     1      45.029   1.091   8.865  0.00  0.00    +0.000 A 
ATOM     17  C   UNL     1      46.066   1.532   7.998  0.00  0.00    +0.000 A 
ATOM     18  C   UNL     1      46.944   0.874   7.127  0.00  0.00    +0.000 A 
ATOM     19  N   UNL     1      47.879   1.565   6.434  0.00  0.00    +0.000 NA
ATOM     20  C   UNL     1      47.954   2.901   6.606  0.00  0.00    +0.000 A 
ATOM     21  C   UNL     1      47.125   3.647   7.430  0.00  0.00    +0.000 A 
ATOM     22  C   UNL     1      46.153   2.924   8.129  0.00  0.00    +0.000 A 
ENDBRANCH  13  14
ENDBRANCH   7  13
TORSDOF 2
ENDMDL
MODEL 2
REMARK VINA RESULT:    -6.480      1.820      3.039
REMARK INTER + INTRA:          -7.558
REMARK INTER:                  -7.106
REMARK INTRA:                  -0.452
REMARK UNBOUND:                -0.321
REMARK  Name = 
REMARK  2 active torsions:
REMARK  status: ('A' for Active; 'I' for Inactive)
REMARK    1  A    between atoms: C_7  and  C_8
REMARK    2  A    between atoms: C_8  and  N_9
REMARK                            x       y       z     vdW  Elec       q    Type
REMARK                         _______ _______ _______ _____ _____    ______ ____
ROOT
ATOM      1  N   UNL     1      50.211   7.328  12.531  0.00  0.00    +0.000 NA
ATOM      2  C   UNL     1      49.207   8.118  12.689  0.00  0.00    +0.000 C 
ATOM      3  N   UNL     1      49.393   9.411  13.032  0.00  0.00    +0.000 N 
ATOM      4  N   UNL     1      47.902   7.728  12.583  0.00  0.00    +0.000 N 
ATOM      5  C   UNL     1      46.839   8.633  12.138  0.00  0.00    +0.000 C 
ATOM      6  C   UNL     1      45.598   8.360  12.977  0.00  0.00    +0.000 C 
ATOM      7  C   UNL     1      45.118   6.906  12.816  0.00  0.00    +0.000 C 
ATOM      8  C   UNL     1      46.287   5.952  13.128  0.00  0.00    +0.000 C 
ATOM      9  C   UNL     1      47.584   6.306  12.385  0.00  0.00    +0.000 C 
ATOM     10  H   UNL     1      51.078   7.851  12.656  0.00  0.00    +0.000 HD
ATOM     11  H   UNL     1      50.319   9.635  13.373  0.00  0.00    +0.000 HD
ATOM     12  H   UNL     1      48.688   9.742  13.680  0.00  0.00    +0.000 HD
ENDROOT
BRANCH   7  13
ATOM     13  C   UNL     1      44.506   6.614  11.428  0.00  0.00    +0.000 C 
BRANCH  13  14
ATOM     14  N   UNL     1      44.299   5.193  11.166  0.00  0.00    +0.000 N 
ATOM     15  C   UNL     1      43.549   4.372  11.970  0.00  0.00    +0.000 A 
ATOM     16  C   UNL     1      43.481   3.134  11.378  0.00  0.00    +0.000 A 
ATOM     17  C   UNL     1      44.256   3.182  10.187  0.00  0.00    +0.000 A 
ATOM     18  C   UNL     1      44.558   2.246   9.191  0.00  0.00    +0.000 A 
ATOM     19  N   UNL     1      45.374   2.570   8.160  0.00  0.00    +0.000 NA
ATOM     20  C   UNL     1      45.898   3.813   8.117  0.00  0.00    +0.000 A 
ATOM     21  C   UNL     1      45.650   4.816   9.043  0.00  0.00    +0.000 A 
ATOM     22  C   UNL     1      44.793   4.473  10.094  0.00  0.00    +0.000 A 
ENDBRANCH  13  14
ENDBRANCH   7  13
TORSDOF 2
ENDMDL
MODEL 3
REMARK VINA RESULT:    -6.207      1.192      6.570
REMARK INTER + INTRA:          -7.253
REMARK INTER:                  -6.823
REMARK INTRA:                  -0.430
REMARK UNBOUND:                -0.321
REMARK  Name = 
REMARK  2 active torsions:
REMARK  status: ('A' for Active; 'I' for Inactive)
REMARK    1  A    between atoms: C_7  and  C_8
REMARK    2  A    between atoms: C_8  and  N_9
REMARK                            x       y       z     vdW  Elec       q    Type
REMARK                         _______ _______ _______ _____ _____    ______ ____
ROOT
ATOM      1  N   UNL     1      48.140   2.883   6.091  0.00  0.00    +0.000 NA
ATOM      2  C   UNL     1      47.308   2.108   6.693  0.00  0.00    +0.000 C 
ATOM      3  N   UNL     1      47.207   0.804   6.353  0.00  0.00    +0.000 N 
ATOM      4  N   UNL     1      46.438   2.523   7.662  0.00  0.00    +0.000 N 
ATOM      5  C   UNL     1      45.980   1.646   8.743  0.00  0.00    +0.000 C 
ATOM      6  C   UNL     1      44.504   1.923   8.989  0.00  0.00    +0.000 C 
ATOM      7  C   UNL     1      44.265   3.388   9.396  0.00  0.00    +0.000 C 
ATOM      8  C   UNL     1      44.891   4.314   8.337  0.00  0.00    +0.000 C 
ATOM      9  C   UNL     1      46.342   3.954   7.985  0.00  0.00    +0.000 C 
ATOM     10  H   UNL     1      48.681   2.343   5.416  0.00  0.00    +0.000 HD
ATOM     11  H   UNL     1      47.641   0.557   5.473  0.00  0.00    +0.000 HD
ATOM     12  H   UNL     1      46.251   0.472   6.382  0.00  0.00    +0.000 HD
ENDROOT
BRANCH   7  13
ATOM     13  C   UNL     1      44.783   3.721  10.814  0.00  0.00    +0.000 C 
BRANCH  13  14
ATOM     14  N   UNL     1      44.541   5.102  11.216  0.00  0.00    +0.000 N 
ATOM     15  C   UNL     1      43.337   5.742  11.057  0.00  0.00    +0.000 A 
ATOM     16  C   UNL     1      43.430   6.986  11.634  0.00  0.00    +0.000 A 
ATOM     17  C   UNL     1      44.755   7.134  12.127  0.00  0.00    +0.000 A 
ATOM     18  C   UNL     1      45.429   8.165  12.793  0.00  0.00    +0.000 A 
ATOM     19  N   UNL     1      46.737   8.039  13.120  0.00  0.00    +0.000 NA
ATOM     20  C   UNL     1      47.381   6.902  12.783  0.00  0.00    +0.000 A 
ATOM     21  C   UNL     1      46.802   5.819  12.137  0.00  0.00    +0.000 A 
ATOM     22  C   UNL     1      45.447   5.955  11.819  0.00  0.00    +0.000 A 
ENDBRANCH  13  14
ENDBRANCH   7  13
TORSDOF 2
ENDMDL
MODEL 4
REMARK VINA RESULT:    -5.838      2.894      6.706
REMARK INTER + INTRA:          -6.842
REMARK INTER:                  -6.508
REMARK INTRA:                  -0.334
REMARK UNBOUND:                -0.321
REMARK  Name = 
REMARK  2 active torsions:
REMARK  status: ('A' for Active; 'I' for Inactive)
REMARK    1  A    between atoms: C_7  and  C_8
REMARK    2  A    between atoms: C_8  and  N_9
REMARK                            x       y       z     vdW  Elec       q    Type
REMARK                         _______ _______ _______ _____ _____    ______ ____
ROOT
ATOM      1  N   UNL     1      44.144   2.798   9.307  0.00  0.00    +0.000 NA
ATOM      2  C   UNL     1      44.151   2.991  10.578  0.00  0.00    +0.000 C 
ATOM      3  N   UNL     1      43.521   2.134  11.411  0.00  0.00    +0.000 N 
ATOM      4  N   UNL     1      44.730   4.071  11.186  0.00  0.00    +0.000 N 
ATOM      5  C   UNL     1      45.294   4.010  12.537  0.00  0.00    +0.000 C 
ATOM      6  C   UNL     1      44.949   5.307  13.256  0.00  0.00    +0.000 C 
ATOM      7  C   UNL     1      45.532   6.529  12.524  0.00  0.00    +0.000 C 
ATOM      8  C   UNL     1      45.069   6.504  11.055  0.00  0.00    +0.000 C 
ATOM      9  C   UNL     1      45.291   5.152  10.363  0.00  0.00    +0.000 C 
ATOM     10  H   UNL     1      43.658   1.926   9.097  0.00  0.00    +0.000 HD
ATOM     11  H   UNL     1      42.875   1.499  10.962  0.00  0.00    +0.000 HD
ATOM     12  H   UNL     1      43.070   2.610  12.183  0.00  0.00    +0.000 HD
ENDROOT
BRANCH   7  13
ATOM     13  C   UNL     1      47.070   6.629  12.629  0.00  0.00    +0.000 C 
BRANCH  13  14
ATOM     14  N   UNL     1      47.593   7.956  12.321  0.00  0.00    +0.000 N 
ATOM     15  C   UNL     1      46.873   9.113  12.478  0.00  0.00    +0.000 A 
ATOM     16  C   UNL     1      47.697  10.176  12.197  0.00  0.00    +0.000 A 
ATOM     17  C   UNL     1      48.960   9.651  11.809  0.00  0.00    +0.000 A 
ATOM     18  C   UNL     1      50.170  10.234  11.412  0.00  0.00    +0.000 A 
ATOM     19  N   UNL     1      51.226   9.465  11.057  0.00  0.00    +0.000 NA
ATOM     20  C   UNL     1      51.087   8.123  11.086  0.00  0.00    +0.000 A 
ATOM     21  C   UNL     1      49.939   7.449  11.477  0.00  0.00    +0.000 A 
ATOM     22  C   UNL     1      48.861   8.254  11.856  0.00  0.00    +0.000 A 
ENDBRANCH  13  14
ENDBRANCH   7  13
TORSDOF 2
ENDMDL
MODEL 5
REMARK VINA RESULT:    -5.790      2.074      3.792
REMARK INTER + INTRA:          -6.788
REMARK INTER:                  -6.314
REMARK INTRA:                  -0.474
REMARK UNBOUND:                -0.321
REMARK  Name = 
REMARK  2 active torsions:
REMARK  status: ('A' for Active; 'I' for Inactive)
REMARK    1  A    between atoms: C_7  and  C_8
REMARK    2  A    between atoms: C_8  and  N_9
REMARK                            x       y       z     vdW  Elec       q    Type
REMARK                         _______ _______ _______ _____ _____    ______ ____
ROOT
ATOM      1  N   UNL     1      48.699   9.955  15.614  0.00  0.00    +0.000 NA
ATOM      2  C   UNL     1      48.776   8.710  15.299  0.00  0.00    +0.000 C 
ATOM      3  N   UNL     1      49.597   7.876  15.974  0.00  0.00    +0.000 N 
ATOM      4  N   UNL     1      48.101   8.141  14.256  0.00  0.00    +0.000 N 
ATOM      5  C   UNL     1      47.673   6.739  14.260  0.00  0.00    +0.000 C 
ATOM      6  C   UNL     1      47.885   6.172  12.863  0.00  0.00    +0.000 C 
ATOM      7  C   UNL     1      47.066   6.942  11.812  0.00  0.00    +0.000 C 
ATOM      8  C   UNL     1      47.396   8.444  11.917  0.00  0.00    +0.000 C 
ATOM      9  C   UNL     1      47.316   8.992  13.349  0.00  0.00    +0.000 C 
ATOM     10  H   UNL     1      49.288  10.138  16.426  0.00  0.00    +0.000 HD
ATOM     11  H   UNL     1      50.287   8.333  16.555  0.00  0.00    +0.000 HD
ATOM     12  H   UNL     1      50.039   7.197  15.366  0.00  0.00    +0.000 HD
ENDROOT
BRANCH   7  13
ATOM     13  C   UNL     1      45.545   6.690  11.917  0.00  0.00    +0.000 C 
BRANCH  13  14
ATOM     14  N   UNL     1      45.167   5.296  11.708  0.00  0.00    +0.000 N 
ATOM     15  C   UNL     1      44.735   4.466  12.711  0.00  0.00    +0.000 A 
ATOM     16  C   UNL     1      44.368   3.266  12.151  0.00  0.00    +0.000 A 
ATOM     17  C   UNL     1      44.626   3.346  10.755  0.00  0.00    +0.000 A 
ATOM     18  C   UNL     1      44.463   2.453   9.689  0.00  0.00    +0.000 A 
ATOM     19  N   UNL     1      44.837   2.798   8.434  0.00  0.00    +0.000 NA
ATOM     20  C   UNL     1      45.379   4.017   8.233  0.00  0.00    +0.000 A 
ATOM     21  C   UNL     1      45.569   4.977   9.216  0.00  0.00    +0.000 A 
ATOM     22  C   UNL     1      45.164   4.615  10.505  0.00  0.00    +0.000 A 
ENDBRANCH  13  14
ENDBRANCH   7  13
TORSDOF 2
ENDMDL
MODEL 6
REMARK VINA RESULT:    -5.780      3.472      7.572
REMARK INTER + INTRA:          -6.777
REMARK INTER:                  -6.409
REMARK INTRA:                  -0.367
REMARK UNBOUND:                -0.321
REMARK  Name = 
REMARK  2 active torsions:
REMARK  status: ('A' for Active; 'I' for Inactive)
REMARK    1  A    between atoms: C_7  and  C_8
REMARK    2  A    between atoms: C_8  and  N_9
REMARK                            x       y       z     vdW  Elec       q    Type
REMARK                         _______ _______ _______ _____ _____    ______ ____
ROOT
ATOM      1  N   UNL     1      44.294   4.377   8.900  0.00  0.00    +0.000 NA
ATOM      2  C   UNL     1      44.243   4.115  10.158  0.00  0.00    +0.000 C 
ATOM      3  N   UNL     1      43.376   3.197  10.638  0.00  0.00    +0.000 N 
ATOM      4  N   UNL     1      44.995   4.753  11.105  0.00  0.00    +0.000 N 
ATOM      5  C   UNL     1      45.423   4.103  12.347  0.00  0.00    +0.000 C 
ATOM      6  C   UNL     1      45.316   5.117  13.477  0.00  0.00    +0.000 C 
ATOM      7  C   UNL     1      46.209   6.344  13.220  0.00  0.00    +0.000 C 
ATOM      8  C   UNL     1      45.870   6.933  11.838  0.00  0.00    +0.000 C 
ATOM      9  C   UNL     1      45.843   5.889  10.713  0.00  0.00    +0.000 C 
ATOM     10  H   UNL     1      43.647   3.769   8.399  0.00  0.00    +0.000 HD
ATOM     11  H   UNL     1      42.644   2.924   9.996  0.00  0.00    +0.000 HD
ATOM     12  H   UNL     1      42.981   3.470  11.530  0.00  0.00    +0.000 HD
ENDROOT
BRANCH   7  13
ATOM     13  C   UNL     1      47.719   6.039  13.348  0.00  0.00    +0.000 C 
BRANCH  13  14
ATOM     14  N   UNL     1      48.253   6.282  14.684  0.00  0.00    +0.000 N 
ATOM     15  C   UNL     1      48.984   7.393  15.021  0.00  0.00    +0.000 A 
ATOM     16  C   UNL     1      49.236   7.351  16.372  0.00  0.00    +0.000 A 
ATOM     17  C   UNL     1      48.677   6.145  16.876  0.00  0.00    +0.000 A 
ATOM     18  C   UNL     1      48.622   5.563  18.149  0.00  0.00    +0.000 A 
ATOM     19  N   UNL     1      48.038   4.356  18.333  0.00  0.00    +0.000 NA
ATOM     20  C   UNL     1      47.518   3.720  17.263  0.00  0.00    +0.000 A 
ATOM     21  C   UNL     1      47.508   4.216  15.967  0.00  0.00    +0.000 A 
ATOM     22  C   UNL     1      48.100   5.470  15.793  0.00  0.00    +0.000 A 
ENDBRANCH  13  14
ENDBRANCH   7  13
TORSDOF 2
ENDMDL
MODEL 7
REMARK VINA RESULT:    -5.754      2.975      7.109
REMARK INTER + INTRA:          -6.748
REMARK INTER:                  -6.475
REMARK INTRA:                  -0.273
REMARK UNBOUND:                -0.321
REMARK  Name = 
REMARK  2 active torsions:
REMARK  status: ('A' for Active; 'I' for Inactive)
REMARK    1  A    between atoms: C_7  and  C_8
REMARK    2  A    between atoms: C_8  and  N_9
REMARK                            x       y       z     vdW  Elec       q    Type
REMARK                         _______ _______ _______ _____ _____    ______ ____
ROOT
ATOM      1  N   UNL     1      43.250   2.149  11.624  0.00  0.00    +0.000 NA
ATOM      2  C   UNL     1      43.931   2.993  10.933  0.00  0.00    +0.000 C 
ATOM      3  N   UNL     1      44.177   2.775   9.622  0.00  0.00    +0.000 N 
ATOM      4  N   UNL     1      44.499   4.124  11.449  0.00  0.00    +0.000 N 
ATOM      5  C   UNL     1      44.700   5.341  10.657  0.00  0.00    +0.000 C 
ATOM      6  C   UNL     1      46.047   5.940  11.036  0.00  0.00    +0.000 C 
ATOM      7  C   UNL     1      46.103   6.299  12.531  0.00  0.00    +0.000 C 
ATOM      8  C   UNL     1      45.732   5.057  13.363  0.00  0.00    +0.000 C 
ATOM      9  C   UNL     1      44.442   4.368  12.898  0.00  0.00    +0.000 C 
ATOM     10  H   UNL     1      42.929   1.393  11.019  0.00  0.00    +0.000 HD
ATOM     11  H   UNL     1      44.000   1.831   9.305  0.00  0.00    +0.000 HD
ATOM     12  H   UNL     1      45.107   3.070   9.352  0.00  0.00    +0.000 HD
ENDROOT
BRANCH   7  13
ATOM     13  C   UNL     1      45.220   7.512  12.903  0.00  0.00    +0.000 C 
BRANCH  13  14
ATOM     14  N   UNL     1      45.713   8.779  12.375  0.00  0.00    +0.000 N 
ATOM     15  C   UNL     1      44.928   9.680  11.700  0.00  0.00    +0.000 A 
ATOM     16  C   UNL     1      45.682  10.799  11.440  0.00  0.00    +0.000 A 
ATOM     17  C   UNL     1      46.993  10.560  11.934  0.00  0.00    +0.000 A 
ATOM     18  C   UNL     1      48.172  11.315  11.954  0.00  0.00    +0.000 A 
ATOM     19  N   UNL     1      49.313  10.805  12.475  0.00  0.00    +0.000 NA
ATOM     20  C   UNL     1      49.293   9.549  12.968  0.00  0.00    +0.000 A 
ATOM     21  C   UNL     1      48.177   8.726  13.009  0.00  0.00    +0.000 A 
ATOM     22  C   UNL     1      47.001   9.271  12.482  0.00  0.00    +0.000 A 
ENDBRANCH  13  14
ENDBRANCH   7  13
TORSDOF 2
ENDMDL
MODEL 8
REMARK VINA RESULT:    -5.608      3.136      7.216
REMARK INTER + INTRA:          -6.584
REMARK INTER:                  -6.126
REMARK INTRA:                  -0.458
REMARK UNBOUND:                -0.321
REMARK  Name = 
REMARK  2 active torsions:
REMARK  status: ('A' for Active; 'I' for Inactive)
REMARK    1  A    between atoms: C_7  and  C_8
REMARK    2  A    between atoms: C_8  and  N_9
REMARK                            x       y       z     vdW  Elec       q    Type
REMARK                         _______ _______ _______ _____ _____    ______ ____
ROOT
ATOM      1  N   UNL     1      43.842   3.486   9.508  0.00  0.00    +0.000 NA
ATOM      2  C   UNL     1      44.096   3.374  10.764  0.00  0.00    +0.000 C 
ATOM      3  N   UNL     1      43.477   2.435  11.513  0.00  0.00    +0.000 N 
ATOM      4  N   UNL     1      44.944   4.197  11.450  0.00  0.00    +0.000 N 
ATOM      5  C   UNL     1      45.709   3.750  12.618  0.00  0.00    +0.000 C 
ATOM      6  C   UNL     1      45.718   4.876  13.642  0.00  0.00    +0.000 C 
ATOM      7  C   UNL     1      46.369   6.149  13.073  0.00  0.00    +0.000 C 
ATOM      8  C   UNL     1      45.669   6.529  11.754  0.00  0.00    +0.000 C 
ATOM      9  C   UNL     1      45.536   5.358  10.770  0.00  0.00    +0.000 C 
ATOM     10  H   UNL     1      43.186   2.757   9.227  0.00  0.00    +0.000 HD
ATOM     11  H   UNL     1      42.665   2.012  11.084  0.00  0.00    +0.000 HD
ATOM     12  H   UNL     1      43.251   2.772  12.441  0.00  0.00    +0.000 HD
ENDROOT
BRANCH   7  13
ATOM     13  C   UNL     1      47.898   6.022  12.883  0.00  0.00    +0.000 C 
BRANCH  13  14
ATOM     14  N   UNL     1      48.658   7.096  13.514  0.00  0.00    +0.000 N 
ATOM     15  C   UNL     1      49.134   7.038  14.800  0.00  0.00    +0.000 A 
ATOM     16  C   UNL     1      49.887   8.164  15.033  0.00  0.00    +0.000 A 
ATOM     17  C   UNL     1      49.834   8.967  13.860  0.00  0.00    +0.000 A 
ATOM     18  C   UNL     1      50.389  10.204  13.510  0.00  0.00    +0.000 A 
ATOM     19  N   UNL     1      50.135  10.759  12.301  0.00  0.00    +0.000 NA
ATOM     20  C   UNL     1      49.328  10.100  11.444  0.00  0.00    +0.000 A 
ATOM     21  C   UNL     1      48.742   8.866  11.689  0.00  0.00    +0.000 A 
ATOM     22  C   UNL     1      49.026   8.296  12.934  0.00  0.00    +0.000 A 
ENDBRANCH  13  14
ENDBRANCH   7  13
TORSDOF 2
ENDMDL
MODEL 9
REMARK VINA RESULT:    -5.492      3.649      5.705
REMARK INTER + INTRA:          -6.455
REMARK INTER:                  -5.869
REMARK INTRA:                  -0.585
REMARK UNBOUND:                -0.321
REMARK  Name = 
REMARK  2 active torsions:
REMARK  status: ('A' for Active; 'I' for Inactive)
REMARK    1  A    between atoms: C_7  and  C_8
REMARK    2  A    between atoms: C_8  and  N_9
REMARK                            x       y       z     vdW  Elec       q    Type
REMARK                         _______ _______ _______ _____ _____    ______ ____
ROOT
ATOM      1  N   UNL     1      51.702   9.949  14.305  0.00  0.00    +0.000 NA
ATOM      2  C   UNL     1      51.270   9.028  13.517  0.00  0.00    +0.000 C 
ATOM      3  N   UNL     1      52.125   8.156  12.939  0.00  0.00    +0.000 N 
ATOM      4  N   UNL     1      49.959   8.881  13.157  0.00  0.00    +0.000 N 
ATOM      5  C   UNL     1      49.370   7.580  12.829  0.00  0.00    +0.000 C 
ATOM      6  C   UNL     1      48.422   7.769  11.653  0.00  0.00    +0.000 C 
ATOM      7  C   UNL     1      47.294   8.759  11.993  0.00  0.00    +0.000 C 
ATOM      8  C   UNL     1      47.913  10.077  12.495  0.00  0.00    +0.000 C 
ATOM      9  C   UNL     1      48.972   9.881  13.590  0.00  0.00    +0.000 C 
ATOM     10  H   UNL     1      52.710   9.850  14.423  0.00  0.00    +0.000 HD
ATOM     11  H   UNL     1      53.100   8.421  12.981  0.00  0.00    +0.000 HD
ATOM     12  H   UNL     1      51.860   7.932  11.987  0.00  0.00    +0.000 HD
ENDROOT
BRANCH   7  13
ATOM     13  C   UNL     1      46.270   8.195  13.004  0.00  0.00    +0.000 C 
BRANCH  13  14
ATOM     14  N   UNL     1      45.554   7.020  12.519  0.00  0.00    +0.000 N 
ATOM     15  C   UNL     1      44.509   7.078  11.631  0.00  0.00    +0.000 A 
ATOM     16  C   UNL     1      44.141   5.792  11.313  0.00  0.00    +0.000 A 
ATOM     17  C   UNL     1      44.961   4.910  12.069  0.00  0.00    +0.000 A 
ATOM     18  C   UNL     1      45.046   3.516  12.169  0.00  0.00    +0.000 A 
ATOM     19  N   UNL     1      45.924   2.935  13.021  0.00  0.00    +0.000 NA
ATOM     20  C   UNL     1      46.710   3.728  13.779  0.00  0.00    +0.000 A 
ATOM     21  C   UNL     1      46.714   5.115  13.744  0.00  0.00    +0.000 A 
ATOM     22  C   UNL     1      45.814   5.703  12.849  0.00  0.00    +0.000 A 
ENDBRANCH  13  14
ENDBRANCH   7  13
TORSDOF 2
ENDMDL
