MODEL 1
REMARK VINA RESULT:    -8.067      0.000      0.000
REMARK INTER + INTRA:         -11.937
REMARK INTER:                 -10.896
REMARK INTRA:                  -1.040
REMARK UNBOUND:                -1.040
REMARK  Name = 
REMARK  7 active torsions:
REMARK  status: ('A' for Active; 'I' for Inactive)
REMARK    1  A    between atoms: C_1  and  C_2
REMARK    2  A    between atoms: C_2  and  C_3
REMARK    3  A    between atoms: C_7  and  C_8
REMARK    4  A    between atoms: C_8  and  C_9
REMARK    5  A    between atoms: C_9  and  N_10
REMARK    6  A    between atoms: N_10  and  C_11
REMARK    7  A    between atoms: C_14  and  C_15
REMARK                            x       y       z     vdW  Elec       q    Type
REMARK                         _______ _______ _______ _____ _____    ______ ____
ROOT
ATOM      1  C   UNL     1      43.116   4.432  11.143  0.00  0.00    +0.000 C 
ENDROOT
BRANCH   1   2
ATOM      2  N   UNL     1      43.731   4.899   9.891  0.00  0.00    +0.000 N 
ATOM      3  H   UNL     1      44.195   5.799   9.995  0.00  0.00    +0.000 HD
BRANCH   2   4
ATOM      4  C   UNL     1      44.531   3.969   9.202  0.00  0.00    +0.000 A 
ATOM      5  C   UNL     1      45.518   4.350   8.286  0.00  0.00    +0.000 A 
ATOM      6  C   UNL     1      46.338   3.403   7.678  0.00  0.00    +0.000 A 
ATOM      7  C   UNL     1      46.177   2.073   8.030  0.00  0.00    +0.000 A 
ATOM      8  N   UNL     1      45.265   1.637   8.940  0.00  0.00    +0.000 NA
ATOM      9  C   UNL     1      44.487   2.602   9.507  0.00  0.00    +0.000 A 
BRANCH   7  10
ATOM     10  C   UNL     1      47.069   1.045   7.404  0.00  0.00    +0.000 C 
ATOM     11  N   UNL     1      46.771  -0.256   7.704  0.00  0.00    +0.000 N 
ATOM     12  O   UNL     1      48.010   1.337   6.678  0.00  0.00    +0.000 OA
ATOM     13  H   UNL     1      46.009  -0.459   8.337  0.00  0.00    +0.000 HD
ATOM     14  H   UNL     1      47.363  -0.990   7.350  0.00  0.00    +0.000 HD
ENDBRANCH   7  10
ENDBRANCH   2   4
ENDBRANCH   1   2
BRANCH   1  15
ATOM     15  C   UNL     1      43.338   5.419  12.296  0.00  0.00    +0.000 C 
BRANCH  15  20
ATOM     16  C   UNL     1      46.861   6.811  12.877  0.00  0.00    +0.000 A 
ATOM     17  C   UNL     1      47.470   5.705  13.496  0.00  0.00    +0.000 A 
ATOM     18  C   UNL     1      46.771   4.512  13.688  0.00  0.00    +0.000 A 
ATOM     19  C   UNL     1      45.444   4.404  13.274  0.00  0.00    +0.000 A 
ATOM     20  C   UNL     1      44.807   5.485  12.656  0.00  0.00    +0.000 A 
ATOM     21  C   UNL     1      45.526   6.675  12.454  0.00  0.00    +0.000 A 
BRANCH  16  23
ATOM     22  C   UNL     1      46.638   9.279  12.425  0.00  0.00    +0.000 C 
ATOM     23  C   UNL     1      47.619   8.131  12.715  0.00  0.00    +0.000 C 
ATOM     24  C   UNL     1      48.484   8.438  13.912  0.00  0.00    +0.000 C 
ATOM     25  C   UNL     1      49.771   8.549  13.594  0.00  0.00    +0.000 C 
ATOM     26  C   UNL     1      49.748   8.329  12.157  0.00  0.00    +0.000 C 
ATOM     27  N   UNL     1      48.603   8.104  11.591  0.00  0.00    +0.000 NA
ENDBRANCH  16  23
ENDBRANCH  15  20
ENDBRANCH   1  15
TORSDOF 6
ENDMDL
MODEL 2
REMARK VINA RESULT:    -8.048      2.584      3.659
REMARK INTER + INTRA:         -11.911
REMARK INTER:                 -11.030
REMARK INTRA:                  -0.880
REMARK UNBOUND:                -1.040
REMARK  Name = 
REMARK  7 active torsions:
REMARK  status: ('A' for Active; 'I' for Inactive)
REMARK    1  A    between atoms: C_1  and  C_2
REMARK    2  A    between atoms: C_2  and  C_3
REMARK    3  A    between atoms: C_7  and  C_8
REMARK    4  A    between atoms: C_8  and  C_9
REMARK    5  A    between atoms: C_9  and  N_10
REMARK    6  A    between atoms: N_10  and  C_11
REMARK    7  A    between atoms: C_14  and  C_15
REMARK                            x       y       z     vdW  Elec       q    Type
REMARK                         _______ _______ _______ _____ _____    ______ ____
ROOT
ATOM      1  C   UNL     1      44.296   4.501  11.654  0.00  0.00    +0.000 C 
ENDROOT
BRANCH   1   2
ATOM      2  N   UNL     1      43.758   3.687  10.554  0.00  0.00    +0.000 N 
ATOM      3  H   UNL     1      42.863   4.033  10.212  0.00  0.00    +0.000 HD
BRANCH   2   4
ATOM      4  C   UNL     1      44.645   3.391   9.502  0.00  0.00    +0.000 A 
ATOM      5  C   UNL     1      45.290   4.381   8.753  0.00  0.00    +0.000 A 
ATOM      6  C   UNL     1      46.215   4.046   7.767  0.00  0.00    +0.000 A 
ATOM      7  C   UNL     1      46.510   2.708   7.570  0.00  0.00    +0.000 A 
ATOM      8  N   UNL     1      45.949   1.697   8.287  0.00  0.00    +0.000 NA
ATOM      9  C   UNL     1      45.050   2.075   9.239  0.00  0.00    +0.000 A 
BRANCH   7  10
ATOM     10  C   UNL     1      47.522   2.334   6.531  0.00  0.00    +0.000 C 
ATOM     11  N   UNL     1      47.494   3.078   5.384  0.00  0.00    +0.000 N 
ATOM     12  O   UNL     1      48.320   1.418   6.683  0.00  0.00    +0.000 OA
ATOM     13  H   UNL     1      46.796   3.803   5.277  0.00  0.00    +0.000 HD
ATOM     14  H   UNL     1      48.120   2.843   4.630  0.00  0.00    +0.000 HD
ENDBRANCH   7  10
ENDBRANCH   2   4
ENDBRANCH   1   2
BRANCH   1  15
ATOM     15  C   UNL     1      45.294   3.717  12.516  0.00  0.00    +0.000 C 
BRANCH  15  20
ATOM     16  C   UNL     1      47.583   5.179  15.220  0.00  0.00    +0.000 A 
ATOM     17  C   UNL     1      48.091   6.300  14.541  0.00  0.00    +0.000 A 
ATOM     18  C   UNL     1      47.674   6.608  13.245  0.00  0.00    +0.000 A 
ATOM     19  C   UNL     1      46.745   5.793  12.597  0.00  0.00    +0.000 A 
ATOM     20  C   UNL     1      46.221   4.669  13.243  0.00  0.00    +0.000 A 
ATOM     21  C   UNL     1      46.638   4.379  14.553  0.00  0.00    +0.000 A 
BRANCH  16  23
ATOM     22  C   UNL     1      48.566   6.087  17.354  0.00  0.00    +0.000 C 
ATOM     23  C   UNL     1      48.084   4.822  16.622  0.00  0.00    +0.000 C 
ATOM     24  C   UNL     1      47.042   4.086  17.426  0.00  0.00    +0.000 C 
ATOM     25  C   UNL     1      47.455   2.881  17.810  0.00  0.00    +0.000 C 
ATOM     26  C   UNL     1      48.801   2.833  17.263  0.00  0.00    +0.000 C 
ATOM     27  N   UNL     1      49.231   3.866  16.606  0.00  0.00    +0.000 NA
ENDBRANCH  16  23
ENDBRANCH  15  20
ENDBRANCH   1  15
TORSDOF 6
ENDMDL
MODEL 3
REMARK VINA RESULT:    -7.643      1.596      2.207
REMARK INTER + INTRA:         -11.364
REMARK INTER:                 -10.353
REMARK INTRA:                  -1.011
REMARK UNBOUND:                -1.040
REMARK  Name = 
REMARK  7 active torsions:
REMARK  status: ('A' for Active; 'I' for Inactive)
REMARK    1  A    between atoms: C_1  and  C_2
REMARK    2  A    between atoms: C_2  and  C_3
REMARK    3  A    between atoms: C_7  and  C_8
REMARK    4  A    between atoms: C_8  and  C_9
REMARK    5  A    between atoms: C_9  and  N_10
REMARK    6  A    between atoms: N_10  and  C_11
REMARK    7  A    between atoms: C_14  and  C_15
REMARK                            x       y       z     vdW  Elec       q    Type
REMARK                         _______ _______ _______ _____ _____    ______ ____
ROOT
ATOM      1  C   UNL     1      44.147   3.644  11.846  0.00  0.00    +0.000 C 
ENDROOT
BRANCH   1   2
ATOM      2  N   UNL     1      43.694   3.822  10.458  0.00  0.00    +0.000 N 
ATOM      3  H   UNL     1      43.297   4.745  10.291  0.00  0.00    +0.000 HD
BRANCH   2   4
ATOM      4  C   UNL     1      44.602   3.449   9.450  0.00  0.00    +0.000 A 
ATOM      5  C   UNL     1      45.269   4.381   8.647  0.00  0.00    +0.000 A 
ATOM      6  C   UNL     1      46.214   3.975   7.709  0.00  0.00    +0.000 A 
ATOM      7  C   UNL     1      46.506   2.625   7.613  0.00  0.00    +0.000 A 
ATOM      8  N   UNL     1      45.924   1.670   8.387  0.00  0.00    +0.000 NA
ATOM      9  C   UNL     1      45.006   2.117   9.290  0.00  0.00    +0.000 A 
BRANCH   7  10
ATOM     10  C   UNL     1      47.539   2.174   6.626  0.00  0.00    +0.000 C 
ATOM     11  N   UNL     1      47.821   3.059   5.622  0.00  0.00    +0.000 N 
ATOM     12  O   UNL     1      48.094   1.086   6.699  0.00  0.00    +0.000 OA
ATOM     13  H   UNL     1      47.317   3.934   5.572  0.00  0.00    +0.000 HD
ATOM     14  H   UNL     1      48.474   2.793   4.902  0.00  0.00    +0.000 HD
ENDBRANCH   7  10
ENDBRANCH   2   4
ENDBRANCH   1   2
BRANCH   1  15
ATOM     15  C   UNL     1      43.673   4.783  12.757  0.00  0.00    +0.000 C 
BRANCH  15  20
ATOM     16  C   UNL     1      46.722   7.098  12.929  0.00  0.00    +0.000 A 
ATOM     17  C   UNL     1      46.289   8.148  12.100  0.00  0.00    +0.000 A 
ATOM     18  C   UNL     1      45.017   8.133  11.525  0.00  0.00    +0.000 A 
ATOM     19  C   UNL     1      44.155   7.062  11.759  0.00  0.00    +0.000 A 
ATOM     20  C   UNL     1      44.555   6.001  12.578  0.00  0.00    +0.000 A 
ATOM     21  C   UNL     1      45.832   6.035  13.163  0.00  0.00    +0.000 A 
BRANCH  16  23
ATOM     22  C   UNL     1      49.181   7.037  12.387  0.00  0.00    +0.000 C 
ATOM     23  C   UNL     1      48.137   7.100  13.514  0.00  0.00    +0.000 C 
ATOM     24  C   UNL     1      48.375   8.283  14.418  0.00  0.00    +0.000 C 
ATOM     25  C   UNL     1      48.692   7.920  15.658  0.00  0.00    +0.000 C 
ATOM     26  C   UNL     1      48.680   6.469  15.561  0.00  0.00    +0.000 C 
ATOM     27  N   UNL     1      48.397   5.935  14.413  0.00  0.00    +0.000 NA
ENDBRANCH  16  23
ENDBRANCH  15  20
ENDBRANCH   1  15
TORSDOF 6
ENDMDL
MODEL 4
REMARK VINA RESULT:    -7.433      1.469      1.920
REMARK INTER + INTRA:         -11.081
REMARK INTER:                 -10.165
REMARK INTRA:                  -0.916
REMARK UNBOUND:                -1.040
REMARK  Name = 
REMARK  7 active torsions:
REMARK  status: ('A' for Active; 'I' for Inactive)
REMARK    1  A    between atoms: C_1  and  C_2
REMARK    2  A    between atoms: C_2  and  C_3
REMARK    3  A    between atoms: C_7  and  C_8
REMARK    4  A    between atoms: C_8  and  C_9
REMARK    5  A    between atoms: C_9  and  N_10
REMARK    6  A    between atoms: N_10  and  C_11
REMARK    7  A    between atoms: C_14  and  C_15
REMARK                            x       y       z     vdW  Elec       q    Type
REMARK                         _______ _______ _______ _____ _____    ______ ____
ROOT
ATOM      1  C   UNL     1      43.958   4.050  11.608  0.00  0.00    +0.000 C 
ENDROOT
BRANCH   1   2
ATOM      2  N   UNL     1      43.610   3.855  10.192  0.00  0.00    +0.000 N 
ATOM      3  H   UNL     1      43.090   4.641   9.805  0.00  0.00    +0.000 HD
BRANCH   2   4
ATOM      4  C   UNL     1      44.653   3.443   9.342  0.00  0.00    +0.000 A 
ATOM      5  C   UNL     1      45.041   2.106   9.211  0.00  0.00    +0.000 A 
ATOM      6  C   UNL     1      46.029   1.730   8.305  0.00  0.00    +0.000 A 
ATOM      7  C   UNL     1      46.597   2.710   7.509  0.00  0.00    +0.000 A 
ATOM      8  N   UNL     1      46.242   4.022   7.558  0.00  0.00    +0.000 NA
ATOM      9  C   UNL     1      45.270   4.340   8.460  0.00  0.00    +0.000 A 
BRANCH   7  10
ATOM     10  C   UNL     1      47.644   2.319   6.512  0.00  0.00    +0.000 C 
ATOM     11  N   UNL     1      47.724   3.109   5.399  0.00  0.00    +0.000 N 
ATOM     12  O   UNL     1      48.380   1.353   6.669  0.00  0.00    +0.000 OA
ATOM     13  H   UNL     1      47.076   3.877   5.285  0.00  0.00    +0.000 HD
ATOM     14  H   UNL     1      48.378   2.868   4.671  0.00  0.00    +0.000 HD
ENDBRANCH   7  10
ENDBRANCH   2   4
ENDBRANCH   1   2
BRANCH   1  15
ATOM     15  C   UNL     1      44.208   5.526  11.942  0.00  0.00    +0.000 C 
BRANCH  15  20
ATOM     16  C   UNL     1      47.615   6.990  12.911  0.00  0.00    +0.000 A 
ATOM     17  C   UNL     1      47.957   6.146  13.983  0.00  0.00    +0.000 A 
ATOM     18  C   UNL     1      47.123   5.093  14.364  0.00  0.00    +0.000 A 
ATOM     19  C   UNL     1      45.924   4.869  13.688  0.00  0.00    +0.000 A 
ATOM     20  C   UNL     1      45.554   5.690  12.618  0.00  0.00    +0.000 A 
ATOM     21  C   UNL     1      46.409   6.737  12.234  0.00  0.00    +0.000 A 
BRANCH  16  23
ATOM     22  C   UNL     1      49.569   7.731  11.506  0.00  0.00    +0.000 C 
ATOM     23  C   UNL     1      48.512   8.171  12.532  0.00  0.00    +0.000 C 
ATOM     24  C   UNL     1      47.715   9.349  12.029  0.00  0.00    +0.000 C 
ATOM     25  C   UNL     1      47.899  10.440  12.767  0.00  0.00    +0.000 C 
ATOM     26  C   UNL     1      48.850   9.974  13.764  0.00  0.00    +0.000 C 
ATOM     27  N   UNL     1      49.250   8.742  13.700  0.00  0.00    +0.000 NA
ENDBRANCH  16  23
ENDBRANCH  15  20
ENDBRANCH   1  15
TORSDOF 6
ENDMDL
MODEL 5
REMARK VINA RESULT:    -7.129      2.050      2.866
REMARK INTER + INTRA:         -10.669
REMARK INTER:                  -9.771
REMARK INTRA:                  -0.898
REMARK UNBOUND:                -1.040
REMARK  Name = 
REMARK  7 active torsions:
REMARK  status: ('A' for Active; 'I' for Inactive)
REMARK    1  A    between atoms: C_1  and  C_2
REMARK    2  A    between atoms: C_2  and  C_3
REMARK    3  A    between atoms: C_7  and  C_8
REMARK    4  A    between atoms: C_8  and  C_9
REMARK    5  A    between atoms: C_9  and  N_10
REMARK    6  A    between atoms: N_10  and  C_11
REMARK    7  A    between atoms: C_14  and  C_15
REMARK                            x       y       z     vdW  Elec       q    Type
REMARK                         _______ _______ _______ _____ _____    ______ ____
ROOT
ATOM      1  C   UNL     1      44.451   5.258  11.506  0.00  0.00    +0.000 C 
ENDROOT
BRANCH   1   2
ATOM      2  N   UNL     1      43.898   4.266  10.571  0.00  0.00    +0.000 N 
ATOM      3  H   UNL     1      43.024   4.572  10.147  0.00  0.00    +0.000 HD
BRANCH   2   4
ATOM      4  C   UNL     1      44.790   3.740   9.617  0.00  0.00    +0.000 A 
ATOM      5  C   UNL     1      44.985   2.367   9.438  0.00  0.00    +0.000 A 
ATOM      6  C   UNL     1      45.823   1.886   8.436  0.00  0.00    +0.000 A 
ATOM      7  C   UNL     1      46.432   2.800   7.593  0.00  0.00    +0.000 A 
ATOM      8  N   UNL     1      46.256   4.146   7.686  0.00  0.00    +0.000 NA
ATOM      9  C   UNL     1      45.428   4.568   8.683  0.00  0.00    +0.000 A 
BRANCH   7  10
ATOM     10  C   UNL     1      47.315   2.297   6.494  0.00  0.00    +0.000 C 
ATOM     11  N   UNL     1      47.310   3.040   5.345  0.00  0.00    +0.000 N 
ATOM     12  O   UNL     1      47.996   1.285   6.601  0.00  0.00    +0.000 OA
ATOM     13  H   UNL     1      46.708   3.849   5.278  0.00  0.00    +0.000 HD
ATOM     14  H   UNL     1      47.849   2.725   4.554  0.00  0.00    +0.000 HD
ENDBRANCH   7  10
ENDBRANCH   2   4
ENDBRANCH   1   2
BRANCH   1  15
ATOM     15  C   UNL     1      45.608   4.686  12.335  0.00  0.00    +0.000 C 
BRANCH  15  20
ATOM     16  C   UNL     1      48.229   6.775  14.192  0.00  0.00    +0.000 A 
ATOM     17  C   UNL     1      48.657   7.623  13.156  0.00  0.00    +0.000 A 
ATOM     18  C   UNL     1      48.082   7.553  11.885  0.00  0.00    +0.000 A 
ATOM     19  C   UNL     1      47.074   6.626  11.623  0.00  0.00    +0.000 A 
ATOM     20  C   UNL     1      46.626   5.767  12.631  0.00  0.00    +0.000 A 
ATOM     21  C   UNL     1      47.201   5.857  13.910  0.00  0.00    +0.000 A 
BRANCH  16  23
ATOM     22  C   UNL     1      48.502   5.594  16.400  0.00  0.00    +0.000 C 
ATOM     23  C   UNL     1      48.899   6.825  15.568  0.00  0.00    +0.000 C 
ATOM     24  C   UNL     1      50.398   6.956  15.464  0.00  0.00    +0.000 C 
ATOM     25  C   UNL     1      50.854   8.057  16.055  0.00  0.00    +0.000 C 
ATOM     26  C   UNL     1      49.632   8.650  16.574  0.00  0.00    +0.000 C 
ATOM     27  N   UNL     1      48.513   8.030  16.362  0.00  0.00    +0.000 NA
ENDBRANCH  16  23
ENDBRANCH  15  20
ENDBRANCH   1  15
TORSDOF 6
ENDMDL
MODEL 6
REMARK VINA RESULT:    -6.870      5.183      8.023
REMARK INTER + INTRA:         -10.321
REMARK INTER:                  -9.628
REMARK INTRA:                  -0.693
REMARK UNBOUND:                -1.040
REMARK  Name = 
REMARK  7 active torsions:
REMARK  status: ('A' for Active; 'I' for Inactive)
REMARK    1  A    between atoms: C_1  and  C_2
REMARK    2  A    between atoms: C_2  and  C_3
REMARK    3  A    between atoms: C_7  and  C_8
REMARK    4  A    between atoms: C_8  and  C_9
REMARK    5  A    between atoms: C_9  and  N_10
REMARK    6  A    between atoms: N_10  and  C_11
REMARK    7  A    between atoms: C_14  and  C_15
REMARK                            x       y       z     vdW  Elec       q    Type
REMARK                         _______ _______ _______ _____ _____    ______ ____
ROOT
ATOM      1  C   UNL     1      47.956   5.131  15.893  0.00  0.00    +0.000 C 
ENDROOT
BRANCH   1   2
ATOM      2  N   UNL     1      48.247   4.505  17.192  0.00  0.00    +0.000 N 
ATOM      3  H   UNL     1      47.444   4.012  17.578  0.00  0.00    +0.000 HD
BRANCH   2   4
ATOM      4  C   UNL     1      49.423   3.735  17.266  0.00  0.00    +0.000 A 
ATOM      5  C   UNL     1      50.633   4.243  17.751  0.00  0.00    +0.000 A 
ATOM      6  C   UNL     1      51.755   3.429  17.876  0.00  0.00    +0.000 A 
ATOM      7  C   UNL     1      51.636   2.091  17.542  0.00  0.00    +0.000 A 
ATOM      8  N   UNL     1      50.482   1.522  17.100  0.00  0.00    +0.000 NA
ATOM      9  C   UNL     1      49.412   2.360  16.995  0.00  0.00    +0.000 A 
BRANCH   7  10
ATOM     10  C   UNL     1      52.828   1.196  17.694  0.00  0.00    +0.000 C 
ATOM     11  N   UNL     1      52.567  -0.057  18.176  0.00  0.00    +0.000 N 
ATOM     12  O   UNL     1      53.965   1.554  17.417  0.00  0.00    +0.000 OA
ATOM     13  H   UNL     1      51.621  -0.307  18.429  0.00  0.00    +0.000 HD
ATOM     14  H   UNL     1      53.335  -0.689  18.344  0.00  0.00    +0.000 HD
ENDBRANCH   7  10
ENDBRANCH   2   4
ENDBRANCH   1   2
BRANCH   1  15
ATOM     15  C   UNL     1      46.960   4.308  15.067  0.00  0.00    +0.000 C 
BRANCH  15  20
ATOM     16  C   UNL     1      45.538   5.010  11.578  0.00  0.00    +0.000 A 
ATOM     17  C   UNL     1      46.240   6.184  11.251  0.00  0.00    +0.000 A 
ATOM     18  C   UNL     1      47.189   6.722  12.123  0.00  0.00    +0.000 A 
ATOM     19  C   UNL     1      47.449   6.101  13.345  0.00  0.00    +0.000 A 
ATOM     20  C   UNL     1      46.767   4.933  13.701  0.00  0.00    +0.000 A 
ATOM     21  C   UNL     1      45.825   4.393  12.809  0.00  0.00    +0.000 A 
BRANCH  16  23
ATOM     22  C   UNL     1      43.106   5.116  10.932  0.00  0.00    +0.000 C 
ATOM     23  C   UNL     1      44.465   4.456  10.638  0.00  0.00    +0.000 C 
ATOM     24  C   UNL     1      44.847   4.611   9.187  0.00  0.00    +0.000 C 
ATOM     25  C   UNL     1      44.912   3.443   8.552  0.00  0.00    +0.000 C 
ATOM     26  C   UNL     1      44.546   2.506   9.602  0.00  0.00    +0.000 C 
ATOM     27  N   UNL     1      44.271   2.981  10.778  0.00  0.00    +0.000 NA
ENDBRANCH  16  23
ENDBRANCH  15  20
ENDBRANCH   1  15
TORSDOF 6
ENDMDL
MODEL 7
REMARK VINA RESULT:    -6.687      3.639      7.251
REMARK INTER + INTRA:         -10.073
REMARK INTER:                  -8.649
REMARK INTRA:                  -1.424
REMARK UNBOUND:                -1.040
REMARK  Name = 
REMARK  7 active torsions:
REMARK  status: ('A' for Active; 'I' for Inactive)
REMARK    1  A    between atoms: C_1  and  C_2
REMARK    2  A    between atoms: C_2  and  C_3
REMARK    3  A    between atoms: C_7  and  C_8
REMARK    4  A    between atoms: C_8  and  C_9
REMARK    5  A    between atoms: C_9  and  N_10
REMARK    6  A    between atoms: N_10  and  C_11
REMARK    7  A    between atoms: C_14  and  C_15
REMARK                            x       y       z     vdW  Elec       q    Type
REMARK                         _______ _______ _______ _____ _____    ______ ____
ROOT
ATOM      1  C   UNL     1      49.408   7.269  12.948  0.00  0.00    +0.000 C 
ENDROOT
BRANCH   1   2
ATOM      2  N   UNL     1      48.780   7.640  14.226  0.00  0.00    +0.000 N 
ATOM      3  H   UNL     1      48.027   8.315  14.110  0.00  0.00    +0.000 HD
BRANCH   2   4
ATOM      4  C   UNL     1      48.411   6.579  15.073  0.00  0.00    +0.000 A 
ATOM      5  C   UNL     1      47.574   5.536  14.662  0.00  0.00    +0.000 A 
ATOM      6  C   UNL     1      47.290   4.467  15.508  0.00  0.00    +0.000 A 
ATOM      7  C   UNL     1      47.886   4.443  16.758  0.00  0.00    +0.000 A 
ATOM      8  N   UNL     1      48.738   5.403  17.207  0.00  0.00    +0.000 NA
ATOM      9  C   UNL     1      48.984   6.428  16.343  0.00  0.00    +0.000 A 
BRANCH   7  10
ATOM     10  C   UNL     1      47.610   3.287  17.670  0.00  0.00    +0.000 C 
ATOM     11  N   UNL     1      48.602   2.992  18.565  0.00  0.00    +0.000 N 
ATOM     12  O   UNL     1      46.574   2.638  17.622  0.00  0.00    +0.000 OA
ATOM     13  H   UNL     1      49.460   3.526  18.552  0.00  0.00    +0.000 HD
ATOM     14  H   UNL     1      48.493   2.196  19.174  0.00  0.00    +0.000 HD
ENDBRANCH   7  10
ENDBRANCH   2   4
ENDBRANCH   1   2
BRANCH   1  15
ATOM     15  C   UNL     1      48.823   8.055  11.769  0.00  0.00    +0.000 C 
BRANCH  15  20
ATOM     16  C   UNL     1      45.420   6.360  11.286  0.00  0.00    +0.000 A 
ATOM     17  C   UNL     1      44.564   7.378  11.741  0.00  0.00    +0.000 A 
ATOM     18  C   UNL     1      45.070   8.610  12.160  0.00  0.00    +0.000 A 
ATOM     19  C   UNL     1      46.444   8.846  12.141  0.00  0.00    +0.000 A 
ATOM     20  C   UNL     1      47.324   7.854  11.696  0.00  0.00    +0.000 A 
ATOM     21  C   UNL     1      46.801   6.623  11.263  0.00  0.00    +0.000 A 
BRANCH  16  23
ATOM     22  C   UNL     1      45.336   4.627   9.461  0.00  0.00    +0.000 C 
ATOM     23  C   UNL     1      44.860   4.996  10.876  0.00  0.00    +0.000 C 
ATOM     24  C   UNL     1      45.209   3.917  11.871  0.00  0.00    +0.000 C 
ATOM     25  C   UNL     1      44.130   3.342  12.395  0.00  0.00    +0.000 C 
ATOM     26  C   UNL     1      43.052   4.043  11.717  0.00  0.00    +0.000 C 
ATOM     27  N   UNL     1      43.366   4.960  10.855  0.00  0.00    +0.000 NA
ENDBRANCH  16  23
ENDBRANCH  15  20
ENDBRANCH   1  15
TORSDOF 6
ENDMDL
MODEL 8
REMARK VINA RESULT:    -6.448      3.708      5.913
REMARK INTER + INTRA:          -9.750
REMARK INTER:                  -8.865
REMARK INTRA:                  -0.886
REMARK UNBOUND:                -1.040
REMARK  Name = 
REMARK  7 active torsions:
REMARK  status: ('A' for Active; 'I' for Inactive)
REMARK    1  A    between atoms: C_1  and  C_2
REMARK    2  A    between atoms: C_2  and  C_3
REMARK    3  A    between atoms: C_7  and  C_8
REMARK    4  A    between atoms: C_8  and  C_9
REMARK    5  A    between atoms: C_9  and  N_10
REMARK    6  A    between atoms: N_10  and  C_11
REMARK    7  A    between atoms: C_14  and  C_15
REMARK                            x       y       z     vdW  Elec       q    Type
REMARK                         _______ _______ _______ _____ _____    ______ ____
ROOT
ATOM      1  C   UNL     1      48.271   7.158  13.344  0.00  0.00    +0.000 C 
ENDROOT
BRANCH   1   2
ATOM      2  N   UNL     1      46.817   7.185  13.564  0.00  0.00    +0.000 N 
ATOM      3  H   UNL     1      46.414   8.108  13.409  0.00  0.00    +0.000 HD
BRANCH   2   4
ATOM      4  C   UNL     1      46.070   6.172  12.935  0.00  0.00    +0.000 A 
ATOM      5  C   UNL     1      45.829   6.151  11.557  0.00  0.00    +0.000 A 
ATOM      6  C   UNL     1      45.146   5.094  10.963  0.00  0.00    +0.000 A 
ATOM      7  C   UNL     1      44.739   4.041  11.766  0.00  0.00    +0.000 A 
ATOM      8  N   UNL     1      44.972   3.978  13.104  0.00  0.00    +0.000 NA
ATOM      9  C   UNL     1      45.644   5.037  13.639  0.00  0.00    +0.000 A 
BRANCH   7  10
ATOM     10  C   UNL     1      44.025   2.884  11.138  0.00  0.00    +0.000 C 
ATOM     11  N   UNL     1      44.642   2.330  10.049  0.00  0.00    +0.000 N 
ATOM     12  O   UNL     1      42.957   2.459  11.556  0.00  0.00    +0.000 OA
ATOM     13  H   UNL     1      45.505   2.730   9.709  0.00  0.00    +0.000 HD
ATOM     14  H   UNL     1      44.186   1.578   9.556  0.00  0.00    +0.000 HD
ENDBRANCH   7  10
ENDBRANCH   2   4
ENDBRANCH   1   2
BRANCH   1  15
ATOM     15  C   UNL     1      49.012   8.133  14.268  0.00  0.00    +0.000 C 
BRANCH  15  20
ATOM     16  C   UNL     1      50.040   5.553  16.909  0.00  0.00    +0.000 A 
ATOM     17  C   UNL     1      51.422   5.804  16.982  0.00  0.00    +0.000 A 
ATOM     18  C   UNL     1      52.011   6.816  16.222  0.00  0.00    +0.000 A 
ATOM     19  C   UNL     1      51.231   7.593  15.366  0.00  0.00    +0.000 A 
ATOM     20  C   UNL     1      49.854   7.370  15.269  0.00  0.00    +0.000 A 
ATOM     21  C   UNL     1      49.270   6.357  16.050  0.00  0.00    +0.000 A 
BRANCH  16  23
ATOM     22  C   UNL     1      49.965   4.393  19.143  0.00  0.00    +0.000 C 
ATOM     23  C   UNL     1      49.412   4.408  17.708  0.00  0.00    +0.000 C 
ATOM     24  C   UNL     1      47.905   4.472  17.701  0.00  0.00    +0.000 C 
ATOM     25  C   UNL     1      47.353   3.382  17.174  0.00  0.00    +0.000 C 
ATOM     26  C   UNL     1      48.520   2.579  16.847  0.00  0.00    +0.000 C 
ATOM     27  N   UNL     1      49.692   3.064  17.120  0.00  0.00    +0.000 NA
ENDBRANCH  16  23
ENDBRANCH  15  20
ENDBRANCH   1  15
TORSDOF 6
ENDMDL
MODEL 9
REMARK VINA RESULT:    -6.379      4.390      7.825
REMARK INTER + INTRA:          -9.657
REMARK INTER:                  -8.709
REMARK INTRA:                  -0.948
REMARK UNBOUND:                -1.040
REMARK  Name = 
REMARK  7 active torsions:
REMARK  status: ('A' for Active; 'I' for Inactive)
REMARK    1  A    between atoms: C_1  and  C_2
REMARK    2  A    between atoms: C_2  and  C_3
REMARK    3  A    between atoms: C_7  and  C_8
REMARK    4  A    between atoms: C_8  and  C_9
REMARK    5  A    between atoms: C_9  and  N_10
REMARK    6  A    between atoms: N_10  and  C_11
REMARK    7  A    between atoms: C_14  and  C_15
REMARK                            x       y       z     vdW  Elec       q    Type
REMARK                         _______ _______ _______ _____ _____    ______ ____
ROOT
ATOM      1  C   UNL     1      48.870   7.672  15.953  0.00  0.00    +0.000 C 
ENDROOT
BRANCH   1   2
ATOM      2  N   UNL     1      48.285   6.721  16.911  0.00  0.00    +0.000 N 
ATOM      3  H   UNL     1      47.300   6.540  16.730  0.00  0.00    +0.000 HD
BRANCH   2   4
ATOM      4  C   UNL     1      49.007   5.535  17.136  0.00  0.00    +0.000 A 
ATOM      5  C   UNL     1      48.440   4.264  16.996  0.00  0.00    +0.000 A 
ATOM      6  C   UNL     1      49.207   3.113  17.158  0.00  0.00    +0.000 A 
ATOM      7  C   UNL     1      50.558   3.257  17.427  0.00  0.00    +0.000 A 
ATOM      8  N   UNL     1      51.182   4.460  17.538  0.00  0.00    +0.000 NA
ATOM      9  C   UNL     1      50.389   5.556  17.372  0.00  0.00    +0.000 A 
BRANCH   7  10
ATOM     10  C   UNL     1      51.402   2.029  17.579  0.00  0.00    +0.000 C 
ATOM     11  N   UNL     1      52.433   2.128  18.472  0.00  0.00    +0.000 N 
ATOM     12  O   UNL     1      51.197   1.002  16.945  0.00  0.00    +0.000 OA
ATOM     13  H   UNL     1      52.595   3.004  18.950  0.00  0.00    +0.000 HD
ATOM     14  H   UNL     1      53.064   1.350  18.583  0.00  0.00    +0.000 HD
ENDBRANCH   7  10
ENDBRANCH   2   4
ENDBRANCH   1   2
BRANCH   1  15
ATOM     15  C   UNL     1      49.002   7.067  14.549  0.00  0.00    +0.000 C 
BRANCH  15  20
ATOM     16  C   UNL     1      45.736   6.244  12.722  0.00  0.00    +0.000 A 
ATOM     17  C   UNL     1      45.224   7.539  12.524  0.00  0.00    +0.000 A 
ATOM     18  C   UNL     1      45.939   8.666  12.935  0.00  0.00    +0.000 A 
ATOM     19  C   UNL     1      47.176   8.520  13.563  0.00  0.00    +0.000 A 
ATOM     20  C   UNL     1      47.712   7.247  13.776  0.00  0.00    +0.000 A 
ATOM     21  C   UNL     1      46.991   6.121  13.344  0.00  0.00    +0.000 A 
BRANCH  16  23
ATOM     22  C   UNL     1      45.628   3.729  12.779  0.00  0.00    +0.000 C 
ATOM     23  C   UNL     1      44.923   5.014  12.312  0.00  0.00    +0.000 C 
ATOM     24  C   UNL     1      43.504   5.077  12.819  0.00  0.00    +0.000 C 
ATOM     25  C   UNL     1      42.611   5.041  11.834  0.00  0.00    +0.000 C 
ATOM     26  C   UNL     1      43.460   4.933  10.658  0.00  0.00    +0.000 C 
ATOM     27  N   UNL     1      44.745   4.898  10.833  0.00  0.00    +0.000 NA
ENDBRANCH  16  23
ENDBRANCH  15  20
ENDBRANCH   1  15
TORSDOF 6
ENDMDL
