MODEL 1
REMARK VINA RESULT:    -7.460      0.000      0.000
REMARK INTER + INTRA:          -9.630
REMARK INTER:                  -9.204
REMARK INTRA:                  -0.426
REMARK UNBOUND:                -0.426
REMARK  Name = 
REMARK  4 active torsions:
REMARK  status: ('A' for Active; 'I' for Inactive)
REMARK    1  A    between atoms: C_2  and  C_4
REMARK    2  A    between atoms: C_7  and  N_8
REMARK    3  A    between atoms: N_8  and  C_9
REMARK    4  A    between atoms: C_9  and  C_10
REMARK                            x       y       z     vdW  Elec       q    Type
REMARK                         _______ _______ _______ _____ _____    ______ ____
ROOT
ATOM      1  C   UNL     1      46.478   2.513   7.691  0.00  0.00    +0.000 A 
ATOM      2  C   UNL     1      46.423   3.886   7.539  0.00  0.00    +0.000 A 
ATOM      3  N   UNL     1      45.549   4.658   8.240  0.00  0.00    +0.000 NA
ATOM      4  C   UNL     1      44.698   4.019   9.070  0.00  0.00    +0.000 A 
ATOM      5  C   UNL     1      44.802   2.632   9.235  0.00  0.00    +0.000 A 
ATOM      6  N   UNL     1      45.671   1.842   8.558  0.00  0.00    +0.000 NA
ENDROOT
BRANCH   1   8
ATOM      7  N   UNL     1      48.526   2.384   6.424  0.00  0.00    +0.000 N 
ATOM      8  C   UNL     1      47.434   1.705   6.889  0.00  0.00    +0.000 C 
ATOM      9  O   UNL     1      47.262   0.514   6.662  0.00  0.00    +0.000 OA
ATOM     10  H   UNL     1      49.220   1.899   5.876  0.00  0.00    +0.000 HD
ATOM     11  H   UNL     1      48.641   3.367   6.640  0.00  0.00    +0.000 HD
ENDBRANCH   1   8
BRANCH   4  12
ATOM     12  N   UNL     1      43.799   4.827   9.753  0.00  0.00    +0.000 N 
ATOM     13  H   UNL     1      44.034   5.801   9.585  0.00  0.00    +0.000 HD
BRANCH  12  14
ATOM     14  C   UNL     1      43.554   4.538  11.154  0.00  0.00    +0.000 C 
BRANCH  14  15
ATOM     15  C   UNL     1      44.689   5.067  11.991  0.00  0.00    +0.000 A 
ATOM     16  C   UNL     1      45.439   4.199  12.795  0.00  0.00    +0.000 A 
ATOM     17  C   UNL     1      46.510   4.709  13.509  0.00  0.00    +0.000 A 
ATOM     18  N   UNL     1      46.883   6.006  13.472  0.00  0.00    +0.000 NA
ATOM     19  C   UNL     1      46.146   6.828  12.695  0.00  0.00    +0.000 A 
ATOM     20  C   UNL     1      45.056   6.413  11.945  0.00  0.00    +0.000 A 
ENDBRANCH  14  15
ENDBRANCH  12  14
ENDBRANCH   4  12
TORSDOF 4
ENDMDL
MODEL 2
REMARK VINA RESULT:    -7.268      2.647      5.939
REMARK INTER + INTRA:          -9.393
REMARK INTER:                  -9.051
REMARK INTRA:                  -0.343
REMARK UNBOUND:                -0.426
REMARK  Name = 
REMARK  4 active torsions:
REMARK  status: ('A' for Active; 'I' for Inactive)
REMARK    1  A    between atoms: C_2  and  C_4
REMARK    2  A    between atoms: C_7  and  N_8
REMARK    3  A    between atoms: N_8  and  C_9
REMARK    4  A    between atoms: C_9  and  C_10
REMARK                            x       y       z     vdW  Elec       q    Type
REMARK                         _______ _______ _______ _____ _____    ______ ____
ROOT
ATOM      1  C   UNL     1      46.235   4.819  13.025  0.00  0.00    +0.000 A 
ATOM      2  C   UNL     1      46.444   5.881  12.164  0.00  0.00    +0.000 A 
ATOM      3  N   UNL     1      45.992   5.872  10.881  0.00  0.00    +0.000 NA
ATOM      4  C   UNL     1      45.358   4.757  10.463  0.00  0.00    +0.000 A 
ATOM      5  C   UNL     1      45.124   3.713  11.367  0.00  0.00    +0.000 A 
ATOM      6  N   UNL     1      45.555   3.701  12.653  0.00  0.00    +0.000 NA
ENDROOT
BRANCH   1   8
ATOM      7  N   UNL     1      47.510   5.967  14.721  0.00  0.00    +0.000 N 
ATOM      8  C   UNL     1      46.766   4.862  14.413  0.00  0.00    +0.000 C 
ATOM      9  O   UNL     1      46.553   3.973  15.227  0.00  0.00    +0.000 OA
ATOM     10  H   UNL     1      47.899   6.066  15.646  0.00  0.00    +0.000 HD
ATOM     11  H   UNL     1      47.659   6.688  14.024  0.00  0.00    +0.000 HD
ENDBRANCH   1   8
BRANCH   4  12
ATOM     12  N   UNL     1      44.929   4.763   9.143  0.00  0.00    +0.000 N 
ATOM     13  H   UNL     1      44.227   5.488   9.025  0.00  0.00    +0.000 HD
BRANCH  12  14
ATOM     14  C   UNL     1      44.541   3.498   8.547  0.00  0.00    +0.000 C 
BRANCH  14  15
ATOM     15  C   UNL     1      45.752   2.809   7.974  0.00  0.00    +0.000 A 
ATOM     16  C   UNL     1      45.969   1.447   8.214  0.00  0.00    +0.000 A 
ATOM     17  C   UNL     1      47.062   0.832   7.627  0.00  0.00    +0.000 A 
ATOM     18  N   UNL     1      47.938   1.474   6.824  0.00  0.00    +0.000 NA
ATOM     19  C   UNL     1      47.714   2.788   6.609  0.00  0.00    +0.000 A 
ATOM     20  C   UNL     1      46.650   3.491   7.152  0.00  0.00    +0.000 A 
ENDBRANCH  14  15
ENDBRANCH  12  14
ENDBRANCH   4  12
TORSDOF 4
ENDMDL
MODEL 3
REMARK VINA RESULT:    -7.143      0.874      1.716
REMARK INTER + INTRA:          -9.240
REMARK INTER:                  -8.859
REMARK INTRA:                  -0.381
REMARK UNBOUND:                -0.426
REMARK  Name = 
REMARK  4 active torsions:
REMARK  status: ('A' for Active; 'I' for Inactive)
REMARK    1  A    between atoms: C_2  and  C_4
REMARK    2  A    between atoms: C_7  and  N_8
REMARK    3  A    between atoms: N_8  and  C_9
REMARK    4  A    between atoms: C_9  and  C_10
REMARK                            x       y       z     vdW  Elec       q    Type
REMARK                         _______ _______ _______ _____ _____    ______ ____
ROOT
ATOM      1  C   UNL     1      46.487   2.609   7.671  0.00  0.00    +0.000 A 
ATOM      2  C   UNL     1      45.575   1.993   8.508  0.00  0.00    +0.000 A 
ATOM      3  N   UNL     1      44.697   2.701   9.268  0.00  0.00    +0.000 NA
ATOM      4  C   UNL     1      44.779   4.047   9.205  0.00  0.00    +0.000 A 
ATOM      5  C   UNL     1      45.685   4.644   8.320  0.00  0.00    +0.000 A 
ATOM      6  N   UNL     1      46.563   3.961   7.543  0.00  0.00    +0.000 NA
ENDROOT
BRANCH   1   8
ATOM      7  N   UNL     1      48.540   2.470   6.411  0.00  0.00    +0.000 N 
ATOM      8  C   UNL     1      47.443   1.796   6.874  0.00  0.00    +0.000 C 
ATOM      9  O   UNL     1      47.267   0.606   6.647  0.00  0.00    +0.000 OA
ATOM     10  H   UNL     1      49.234   1.981   5.866  0.00  0.00    +0.000 HD
ATOM     11  H   UNL     1      48.657   3.453   6.626  0.00  0.00    +0.000 HD
ENDBRANCH   1   8
BRANCH   4  12
ATOM     12  N   UNL     1      43.891   4.745  10.010  0.00  0.00    +0.000 N 
ATOM     13  H   UNL     1      44.076   5.741   9.926  0.00  0.00    +0.000 HD
BRANCH  12  14
ATOM     14  C   UNL     1      43.739   4.315  11.388  0.00  0.00    +0.000 C 
BRANCH  14  15
ATOM     15  C   UNL     1      45.029   4.529  12.136  0.00  0.00    +0.000 A 
ATOM     16  C   UNL     1      45.565   5.816  12.266  0.00  0.00    +0.000 A 
ATOM     17  C   UNL     1      46.723   5.985  13.006  0.00  0.00    +0.000 A 
ATOM     18  N   UNL     1      47.371   4.972  13.621  0.00  0.00    +0.000 NA
ATOM     19  C   UNL     1      46.841   3.738  13.479  0.00  0.00    +0.000 A 
ATOM     20  C   UNL     1      45.688   3.468  12.759  0.00  0.00    +0.000 A 
ENDBRANCH  14  15
ENDBRANCH  12  14
ENDBRANCH   4  12
TORSDOF 4
ENDMDL
MODEL 4
REMARK VINA RESULT:    -6.306      2.751      6.109
REMARK INTER + INTRA:          -8.207
REMARK INTER:                  -7.874
REMARK INTRA:                  -0.333
REMARK UNBOUND:                -0.426
REMARK  Name = 
REMARK  4 active torsions:
REMARK  status: ('A' for Active; 'I' for Inactive)
REMARK    1  A    between atoms: C_2  and  C_4
REMARK    2  A    between atoms: C_7  and  N_8
REMARK    3  A    between atoms: N_8  and  C_9
REMARK    4  A    between atoms: C_9  and  C_10
REMARK                            x       y       z     vdW  Elec       q    Type
REMARK                         _______ _______ _______ _____ _____    ______ ____
ROOT
ATOM      1  C   UNL     1      46.182   5.779  12.322  0.00  0.00    +0.000 A 
ATOM      2  C   UNL     1      45.459   4.626  12.564  0.00  0.00    +0.000 A 
ATOM      3  N   UNL     1      44.813   3.955  11.572  0.00  0.00    +0.000 NA
ATOM      4  C   UNL     1      44.874   4.487  10.333  0.00  0.00    +0.000 A 
ATOM      5  C   UNL     1      45.647   5.633  10.109  0.00  0.00    +0.000 A 
ATOM      6  N   UNL     1      46.308   6.315  11.077  0.00  0.00    +0.000 NA
ENDROOT
BRANCH   1   8
ATOM      7  N   UNL     1      47.250   5.704  14.484  0.00  0.00    +0.000 N 
ATOM      8  C   UNL     1      46.855   6.493  13.440  0.00  0.00    +0.000 C 
ATOM      9  O   UNL     1      47.046   7.702  13.428  0.00  0.00    +0.000 OA
ATOM     10  H   UNL     1      47.716   6.119  15.276  0.00  0.00    +0.000 HD
ATOM     11  H   UNL     1      47.082   4.705  14.455  0.00  0.00    +0.000 HD
ENDBRANCH   1   8
BRANCH   4  12
ATOM     12  N   UNL     1      44.185   3.798   9.345  0.00  0.00    +0.000 N 
ATOM     13  H   UNL     1      43.189   3.965   9.455  0.00  0.00    +0.000 HD
BRANCH  12  14
ATOM     14  C   UNL     1      44.503   2.395   9.147  0.00  0.00    +0.000 C 
BRANCH  14  15
ATOM     15  C   UNL     1      45.606   2.260   8.130  0.00  0.00    +0.000 A 
ATOM     16  C   UNL     1      46.386   1.097   8.084  0.00  0.00    +0.000 A 
ATOM     17  C   UNL     1      47.355   0.982   7.101  0.00  0.00    +0.000 A 
ATOM     18  N   UNL     1      47.593   1.933   6.172  0.00  0.00    +0.000 NA
ATOM     19  C   UNL     1      46.834   3.048   6.236  0.00  0.00    +0.000 A 
ATOM     20  C   UNL     1      45.842   3.256   7.181  0.00  0.00    +0.000 A 
ENDBRANCH  14  15
ENDBRANCH  12  14
ENDBRANCH   4  12
TORSDOF 4
ENDMDL
MODEL 5
REMARK VINA RESULT:    -5.739      2.847      6.095
REMARK INTER + INTRA:          -7.507
REMARK INTER:                  -7.129
REMARK INTRA:                  -0.378
REMARK UNBOUND:                -0.426
REMARK  Name = 
REMARK  4 active torsions:
REMARK  status: ('A' for Active; 'I' for Inactive)
REMARK    1  A    between atoms: C_2  and  C_4
REMARK    2  A    between atoms: C_7  and  N_8
REMARK    3  A    between atoms: N_8  and  C_9
REMARK    4  A    between atoms: C_9  and  C_10
REMARK                            x       y       z     vdW  Elec       q    Type
REMARK                         _______ _______ _______ _____ _____    ______ ____
ROOT
ATOM      1  C   UNL     1      46.873   6.645  13.361  0.00  0.00    +0.000 A 
ATOM      2  C   UNL     1      45.637   6.852  12.777  0.00  0.00    +0.000 A 
ATOM      3  N   UNL     1      44.826   5.823  12.415  0.00  0.00    +0.000 NA
ATOM      4  C   UNL     1      45.296   4.573  12.614  0.00  0.00    +0.000 A 
ATOM      5  C   UNL     1      46.533   4.392  13.245  0.00  0.00    +0.000 A 
ATOM      6  N   UNL     1      47.356   5.400  13.625  0.00  0.00    +0.000 NA
ENDROOT
BRANCH   1   8
ATOM      7  N   UNL     1      47.122   8.791  14.435  0.00  0.00    +0.000 N 
ATOM      8  C   UNL     1      47.737   7.800  13.721  0.00  0.00    +0.000 C 
ATOM      9  O   UNL     1      48.919   7.862  13.406  0.00  0.00    +0.000 OA
ATOM     10  H   UNL     1      47.648   9.604  14.718  0.00  0.00    +0.000 HD
ATOM     11  H   UNL     1      46.144   8.701  14.686  0.00  0.00    +0.000 HD
ENDBRANCH   1   8
BRANCH   4  12
ATOM     12  N   UNL     1      44.460   3.541  12.213  0.00  0.00    +0.000 N 
ATOM     13  H   UNL     1      44.959   2.659  12.287  0.00  0.00    +0.000 HD
BRANCH  12  14
ATOM     14  C   UNL     1      43.757   3.687  10.950  0.00  0.00    +0.000 C 
BRANCH  14  15
ATOM     15  C   UNL     1      44.687   3.369   9.809  0.00  0.00    +0.000 A 
ATOM     16  C   UNL     1      44.989   2.038   9.493  0.00  0.00    +0.000 A 
ATOM     17  C   UNL     1      45.803   1.779   8.403  0.00  0.00    +0.000 A 
ATOM     18  N   UNL     1      46.326   2.743   7.615  0.00  0.00    +0.000 NA
ATOM     19  C   UNL     1      46.027   4.020   7.939  0.00  0.00    +0.000 A 
ATOM     20  C   UNL     1      45.223   4.379   9.009  0.00  0.00    +0.000 A 
ENDBRANCH  14  15
ENDBRANCH  12  14
ENDBRANCH   4  12
TORSDOF 4
ENDMDL
MODEL 6
REMARK VINA RESULT:    -5.624      3.508      5.564
REMARK INTER + INTRA:          -7.366
REMARK INTER:                  -7.066
REMARK INTRA:                  -0.299
REMARK UNBOUND:                -0.426
REMARK  Name = 
REMARK  4 active torsions:
REMARK  status: ('A' for Active; 'I' for Inactive)
REMARK    1  A    between atoms: C_2  and  C_4
REMARK    2  A    between atoms: C_7  and  N_8
REMARK    3  A    between atoms: N_8  and  C_9
REMARK    4  A    between atoms: C_9  and  C_10
REMARK                            x       y       z     vdW  Elec       q    Type
REMARK                         _______ _______ _______ _____ _____    ______ ____
ROOT
ATOM      1  C   UNL     1      45.054   4.165  11.426  0.00  0.00    +0.000 A 
ATOM      2  C   UNL     1      45.263   3.259  12.449  0.00  0.00    +0.000 A 
ATOM      3  N   UNL     1      45.940   3.589  13.581  0.00  0.00    +0.000 NA
ATOM      4  C   UNL     1      46.441   4.840  13.653  0.00  0.00    +0.000 A 
ATOM      5  C   UNL     1      46.180   5.750  12.621  0.00  0.00    +0.000 A 
ATOM      6  N   UNL     1      45.499   5.450  11.487  0.00  0.00    +0.000 NA
ENDROOT
BRANCH   1   8
ATOM      7  N   UNL     1      44.111   4.752   9.285  0.00  0.00    +0.000 N 
ATOM      8  C   UNL     1      44.327   3.756  10.196  0.00  0.00    +0.000 C 
ATOM      9  O   UNL     1      43.948   2.607  10.006  0.00  0.00    +0.000 OA
ATOM     10  H   UNL     1      43.628   4.547   8.424  0.00  0.00    +0.000 HD
ATOM     11  H   UNL     1      44.447   5.690   9.472  0.00  0.00    +0.000 HD
ENDBRANCH   1   8
BRANCH   4  12
ATOM     12  N   UNL     1      47.150   5.142  14.807  0.00  0.00    +0.000 N 
ATOM     13  H   UNL     1      48.126   5.293  14.568  0.00  0.00    +0.000 HD
BRANCH  12  14
ATOM     14  C   UNL     1      46.979   4.274  15.958  0.00  0.00    +0.000 C 
BRANCH  14  15
ATOM     15  C   UNL     1      48.312   4.021  16.610  0.00  0.00    +0.000 A 
ATOM     16  C   UNL     1      48.757   2.710  16.823  0.00  0.00    +0.000 A 
ATOM     17  C   UNL     1      50.012   2.513  17.374  0.00  0.00    +0.000 A 
ATOM     18  N   UNL     1      50.844   3.520  17.718  0.00  0.00    +0.000 NA
ATOM     19  C   UNL     1      50.395   4.776  17.509  0.00  0.00    +0.000 A 
ATOM     20  C   UNL     1      49.156   5.075  16.965  0.00  0.00    +0.000 A 
ENDBRANCH  14  15
ENDBRANCH  12  14
ENDBRANCH   4  12
TORSDOF 4
ENDMDL
MODEL 7
REMARK VINA RESULT:    -5.478      4.074      6.468
REMARK INTER + INTRA:          -7.186
REMARK INTER:                  -6.973
REMARK INTRA:                  -0.212
REMARK UNBOUND:                -0.426
REMARK  Name = 
REMARK  4 active torsions:
REMARK  status: ('A' for Active; 'I' for Inactive)
REMARK    1  A    between atoms: C_2  and  C_4
REMARK    2  A    between atoms: C_7  and  N_8
REMARK    3  A    between atoms: N_8  and  C_9
REMARK    4  A    between atoms: C_9  and  C_10
REMARK                            x       y       z     vdW  Elec       q    Type
REMARK                         _______ _______ _______ _____ _____    ______ ____
ROOT
ATOM      1  C   UNL     1      47.545   3.894  15.604  0.00  0.00    +0.000 A 
ATOM      2  C   UNL     1      47.821   5.249  15.613  0.00  0.00    +0.000 A 
ATOM      3  N   UNL     1      47.729   6.013  14.492  0.00  0.00    +0.000 NA
ATOM      4  C   UNL     1      47.392   5.384  13.347  0.00  0.00    +0.000 A 
ATOM      5  C   UNL     1      47.080   4.019  13.374  0.00  0.00    +0.000 A 
ATOM      6  N   UNL     1      47.153   3.236  14.479  0.00  0.00    +0.000 NA
ENDROOT
BRANCH   1   8
ATOM      7  N   UNL     1      48.935   2.611  17.102  0.00  0.00    +0.000 N 
ATOM      8  C   UNL     1      47.680   3.091  16.848  0.00  0.00    +0.000 C 
ATOM      9  O   UNL     1      46.736   2.874  17.598  0.00  0.00    +0.000 OA
ATOM     10  H   UNL     1      49.102   2.061  17.931  0.00  0.00    +0.000 HD
ATOM     11  H   UNL     1      49.695   2.818  16.463  0.00  0.00    +0.000 HD
ENDBRANCH   1   8
BRANCH   4  12
ATOM     12  N   UNL     1      47.331   6.182  12.214  0.00  0.00    +0.000 N 
ATOM     13  H   UNL     1      48.157   6.773  12.177  0.00  0.00    +0.000 HD
BRANCH  12  14
ATOM     14  C   UNL     1      46.102   6.913  11.962  0.00  0.00    +0.000 C 
BRANCH  14  15
ATOM     15  C   UNL     1      44.993   5.950  11.631  0.00  0.00    +0.000 A 
ATOM     16  C   UNL     1      45.045   5.189  10.456  0.00  0.00    +0.000 A 
ATOM     17  C   UNL     1      44.037   4.273  10.209  0.00  0.00    +0.000 A 
ATOM     18  N   UNL     1      42.996   4.064  11.044  0.00  0.00    +0.000 NA
ATOM     19  C   UNL     1      42.961   4.811  12.168  0.00  0.00    +0.000 A 
ATOM     20  C   UNL     1      43.922   5.753  12.503  0.00  0.00    +0.000 A 
ENDBRANCH  14  15
ENDBRANCH  12  14
ENDBRANCH   4  12
TORSDOF 4
ENDMDL
MODEL 8
REMARK VINA RESULT:    -5.460      3.892      6.268
REMARK INTER + INTRA:          -7.163
REMARK INTER:                  -6.928
REMARK INTRA:                  -0.234
REMARK UNBOUND:                -0.426
REMARK  Name = 
REMARK  4 active torsions:
REMARK  status: ('A' for Active; 'I' for Inactive)
REMARK    1  A    between atoms: C_2  and  C_4
REMARK    2  A    between atoms: C_7  and  N_8
REMARK    3  A    between atoms: N_8  and  C_9
REMARK    4  A    between atoms: C_9  and  C_10
REMARK                            x       y       z     vdW  Elec       q    Type
REMARK                         _______ _______ _______ _____ _____    ______ ____
ROOT
ATOM      1  C   UNL     1      44.518   4.948  11.946  0.00  0.00    +0.000 A 
ATOM      2  C   UNL     1      44.768   3.591  12.041  0.00  0.00    +0.000 A 
ATOM      3  N   UNL     1      45.670   3.082  12.922  0.00  0.00    +0.000 NA
ATOM      4  C   UNL     1      46.349   3.965  13.683  0.00  0.00    +0.000 A 
ATOM      5  C   UNL     1      46.047   5.330  13.595  0.00  0.00    +0.000 A 
ATOM      6  N   UNL     1      45.146   5.863  12.734  0.00  0.00    +0.000 NA
ENDROOT
BRANCH   1   8
ATOM      7  N   UNL     1      42.842   6.574  11.341  0.00  0.00    +0.000 N 
ATOM      8  C   UNL     1      43.540   5.464  10.953  0.00  0.00    +0.000 C 
ATOM      9  O   UNL     1      43.369   4.937   9.861  0.00  0.00    +0.000 OA
ATOM     10  H   UNL     1      42.164   6.983  10.717  0.00  0.00    +0.000 HD
ATOM     11  H   UNL     1      43.016   6.989  12.250  0.00  0.00    +0.000 HD
ENDBRANCH   1   8
BRANCH   4  12
ATOM     12  N   UNL     1      47.281   3.421  14.555  0.00  0.00    +0.000 N 
ATOM     13  H   UNL     1      47.299   2.412  14.437  0.00  0.00    +0.000 HD
BRANCH  12  14
ATOM     14  C   UNL     1      47.226   3.824  15.949  0.00  0.00    +0.000 C 
BRANCH  14  15
ATOM     15  C   UNL     1      48.567   3.602  16.598  0.00  0.00    +0.000 A 
ATOM     16  C   UNL     1      49.238   4.666  17.215  0.00  0.00    +0.000 A 
ATOM     17  C   UNL     1      50.442   4.416  17.851  0.00  0.00    +0.000 A 
ATOM     18  N   UNL     1      51.013   3.194  17.916  0.00  0.00    +0.000 NA
ATOM     19  C   UNL     1      50.353   2.183  17.312  0.00  0.00    +0.000 A 
ATOM     20  C   UNL     1      49.144   2.333  16.650  0.00  0.00    +0.000 A 
ENDBRANCH  14  15
ENDBRANCH  12  14
ENDBRANCH   4  12
TORSDOF 4
ENDMDL
MODEL 9
REMARK VINA RESULT:    -5.420      4.922      8.352
REMARK INTER + INTRA:          -7.113
REMARK INTER:                  -6.854
REMARK INTRA:                  -0.260
REMARK UNBOUND:                -0.426
REMARK  Name = 
REMARK  4 active torsions:
REMARK  status: ('A' for Active; 'I' for Inactive)
REMARK    1  A    between atoms: C_2  and  C_4
REMARK    2  A    between atoms: C_7  and  N_8
REMARK    3  A    between atoms: N_8  and  C_9
REMARK    4  A    between atoms: C_9  and  C_10
REMARK                            x       y       z     vdW  Elec       q    Type
REMARK                         _______ _______ _______ _____ _____    ______ ____
ROOT
ATOM      1  C   UNL     1      48.188   4.720  18.144  0.00  0.00    +0.000 A 
ATOM      2  C   UNL     1      47.452   3.588  17.848  0.00  0.00    +0.000 A 
ATOM      3  N   UNL     1      46.996   3.328  16.593  0.00  0.00    +0.000 NA
ATOM      4  C   UNL     1      47.259   4.249  15.643  0.00  0.00    +0.000 A 
ATOM      5  C   UNL     1      48.041   5.366  15.960  0.00  0.00    +0.000 A 
ATOM      6  N   UNL     1      48.517   5.644  17.200  0.00  0.00    +0.000 NA
ENDROOT
BRANCH   1   8
ATOM      7  N   UNL     1      48.610   3.896  20.371  0.00  0.00    +0.000 N 
ATOM      8  C   UNL     1      48.648   4.976  19.534  0.00  0.00    +0.000 C 
ATOM      9  O   UNL     1      49.038   6.076  19.907  0.00  0.00    +0.000 OA
ATOM     10  H   UNL     1      48.912   3.994  21.328  0.00  0.00    +0.000 HD
ATOM     11  H   UNL     1      48.290   2.999  20.025  0.00  0.00    +0.000 HD
ENDBRANCH   1   8
BRANCH   4  12
ATOM     12  N   UNL     1      46.761   3.972  14.378  0.00  0.00    +0.000 N 
ATOM     13  H   UNL     1      47.389   3.328  13.906  0.00  0.00    +0.000 HD
BRANCH  12  14
ATOM     14  C   UNL     1      46.369   5.092  13.541  0.00  0.00    +0.000 C 
BRANCH  14  15
ATOM     15  C   UNL     1      45.238   4.681  12.635  0.00  0.00    +0.000 A 
ATOM     16  C   UNL     1      45.002   3.326  12.369  0.00  0.00    +0.000 A 
ATOM     17  C   UNL     1      43.921   2.981  11.576  0.00  0.00    +0.000 A 
ATOM     18  N   UNL     1      43.068   3.881  11.042  0.00  0.00    +0.000 NA
ATOM     19  C   UNL     1      43.315   5.182  11.305  0.00  0.00    +0.000 A 
ATOM     20  C   UNL     1      44.371   5.627  12.086  0.00  0.00    +0.000 A 
ENDBRANCH  14  15
ENDBRANCH  12  14
ENDBRANCH   4  12
TORSDOF 4
ENDMDL
