MODEL 1
REMARK VINA RESULT:    -8.882      0.000      0.000
REMARK INTER + INTRA:         -12.802
REMARK INTER:                 -11.997
REMARK INTRA:                  -0.805
REMARK UNBOUND:                -0.805
REMARK  Name = 
REMARK  6 active torsions:
REMARK  status: ('A' for Active; 'I' for Inactive)
REMARK    1  A    between atoms: C_2  and  C_25
REMARK    2  A    between atoms: N_3  and  C_4
REMARK    3  A    between atoms: C_4  and  C_5
REMARK    4  A    between atoms: C_8  and  C_9
REMARK    5  A    between atoms: C_9  and  N_10
REMARK    6  A    between atoms: C_11  and  C_13
REMARK                            x       y       z     vdW  Elec       q    Type
REMARK                         _______ _______ _______ _____ _____    ______ ____
ROOT
ATOM      1  C   UNL     1      43.239   4.098  11.645  0.00  0.00    +0.000 C 
ATOM      2  C   UNL     1      44.145   2.960  12.127  0.00  0.00    +0.000 C 
ATOM      3  C   UNL     1      45.551   3.433  12.484  0.00  0.00    +0.000 C 
ATOM      4  C   UNL     1      45.567   4.600  13.488  0.00  0.00    +0.000 C 
ATOM      5  C   UNL     1      44.610   5.723  13.057  0.00  0.00    +0.000 C 
ATOM      6  C   UNL     1      43.214   5.196  12.720  0.00  0.00    +0.000 C 
ENDROOT
BRANCH   1   7
ATOM      7  C   UNL     1      43.664   4.669  10.278  0.00  0.00    +0.000 C 
BRANCH   7  10
ATOM      8  O   UNL     1      45.852   5.323   8.591  0.00  0.00    +0.000 OA
ATOM      9  C   UNL     1      45.520   4.149   8.717  0.00  0.00    +0.000 C 
ATOM     10  N   UNL     1      44.469   3.748   9.506  0.00  0.00    +0.000 N 
ATOM     11  H   UNL     1      44.271   2.763   9.590  0.00  0.00    +0.000 HD
BRANCH   9  12
ATOM     12  C   UNL     1      46.228   3.067   8.062  0.00  0.00    +0.000 A 
ATOM     13  C   UNL     1      46.129   1.687   8.171  0.00  0.00    +0.000 A 
ATOM     14  C   UNL     1      47.085   1.103   7.306  0.00  0.00    +0.000 A 
ATOM     15  C   UNL     1      47.745   2.131   6.676  0.00  0.00    +0.000 A 
ATOM     16  N   UNL     1      47.215   3.310   7.126  0.00  0.00    +0.000 N 
ATOM     17  H   UNL     1      47.498   4.241   6.841  0.00  0.00    +0.000 HD
ENDBRANCH   9  12
ENDBRANCH   7  10
ENDBRANCH   1   7
BRANCH   4  18
ATOM     18  C   UNL     1      46.987   5.168  13.673  0.00  0.00    +0.000 C 
BRANCH  18  19
ATOM     19  N   UNL     1      47.290   5.496  15.051  0.00  0.00    +0.000 N 
ATOM     20  C   UNL     1      48.465   6.122  15.394  0.00  0.00    +0.000 C 
ATOM     21  O   UNL     1      49.272   6.503  14.552  0.00  0.00    +0.000 OA
ATOM     22  H   UNL     1      46.802   4.984  15.778  0.00  0.00    +0.000 HD
BRANCH  20  23
ATOM     23  C   UNL     1      48.676   6.370  16.827  0.00  0.00    +0.000 A 
ATOM     24  C   UNL     1      48.956   7.657  17.265  0.00  0.00    +0.000 A 
ATOM     25  S   UNL     1      49.116   7.785  18.959  0.00  0.00    +0.000 S 
ATOM     26  C   UNL     1      48.866   6.115  19.164  0.00  0.00    +0.000 A 
ATOM     27  N   UNL     1      48.894   5.548  20.401  0.00  0.00    +0.000 NA
ATOM     28  C   UNL     1      48.715   4.270  20.408  0.00  0.00    +0.000 A 
ATOM     29  N   UNL     1      48.511   3.505  19.290  0.00  0.00    +0.000 N 
ATOM     30  C   UNL     1      48.469   4.036  18.024  0.00  0.00    +0.000 A 
ATOM     31  O   UNL     1      48.274   3.326  17.045  0.00  0.00    +0.000 OA
ATOM     32  C   UNL     1      48.655   5.471  17.958  0.00  0.00    +0.000 A 
ATOM     33  H   UNL     1      48.378   2.507  19.363  0.00  0.00    +0.000 HD
ENDBRANCH  20  23
ENDBRANCH  18  19
ENDBRANCH   4  18
TORSDOF 6
ENDMDL
MODEL 2
REMARK VINA RESULT:    -8.689      1.438      2.029
REMARK INTER + INTRA:         -12.542
REMARK INTER:                 -11.844
REMARK INTRA:                  -0.698
REMARK UNBOUND:                -0.805
REMARK  Name = 
REMARK  6 active torsions:
REMARK  status: ('A' for Active; 'I' for Inactive)
REMARK    1  A    between atoms: C_2  and  C_25
REMARK    2  A    between atoms: N_3  and  C_4
REMARK    3  A    between atoms: C_4  and  C_5
REMARK    4  A    between atoms: C_8  and  C_9
REMARK    5  A    between atoms: C_9  and  N_10
REMARK    6  A    between atoms: C_11  and  C_13
REMARK                            x       y       z     vdW  Elec       q    Type
REMARK                         _______ _______ _______ _____ _____    ______ ____
ROOT
ATOM      1  C   UNL     1      43.132   4.082  11.492  0.00  0.00    +0.000 C 
ATOM      2  C   UNL     1      44.094   3.011  12.017  0.00  0.00    +0.000 C 
ATOM      3  C   UNL     1      45.459   3.577  12.396  0.00  0.00    +0.000 C 
ATOM      4  C   UNL     1      45.380   4.761  13.376  0.00  0.00    +0.000 C 
ATOM      5  C   UNL     1      44.366   5.815  12.900  0.00  0.00    +0.000 C 
ATOM      6  C   UNL     1      43.013   5.197  12.543  0.00  0.00    +0.000 C 
ENDROOT
BRANCH   1   7
ATOM      7  C   UNL     1      43.553   4.652  10.123  0.00  0.00    +0.000 C 
BRANCH   7  10
ATOM      8  O   UNL     1      45.922   5.288   8.693  0.00  0.00    +0.000 OA
ATOM      9  C   UNL     1      45.517   4.130   8.700  0.00  0.00    +0.000 C 
ATOM     10  N   UNL     1      44.376   3.740   9.360  0.00  0.00    +0.000 N 
ATOM     11  H   UNL     1      44.119   2.765   9.353  0.00  0.00    +0.000 HD
BRANCH   9  12
ATOM     12  C   UNL     1      46.224   3.054   8.033  0.00  0.00    +0.000 A 
ATOM     13  C   UNL     1      46.161   1.675   8.165  0.00  0.00    +0.000 A 
ATOM     14  C   UNL     1      47.097   1.100   7.271  0.00  0.00    +0.000 A 
ATOM     15  C   UNL     1      47.708   2.134   6.603  0.00  0.00    +0.000 A 
ATOM     16  N   UNL     1      47.168   3.307   7.058  0.00  0.00    +0.000 N 
ATOM     17  H   UNL     1      47.419   4.239   6.750  0.00  0.00    +0.000 HD
ENDBRANCH   9  12
ENDBRANCH   7  10
ENDBRANCH   1   7
BRANCH   4  18
ATOM     18  C   UNL     1      46.758   5.420  13.581  0.00  0.00    +0.000 C 
BRANCH  18  19
ATOM     19  N   UNL     1      47.250   5.289  14.937  0.00  0.00    +0.000 N 
ATOM     20  C   UNL     1      47.646   4.071  15.438  0.00  0.00    +0.000 C 
ATOM     21  O   UNL     1      47.677   3.059  14.745  0.00  0.00    +0.000 OA
ATOM     22  H   UNL     1      47.001   6.011  15.603  0.00  0.00    +0.000 HD
BRANCH  20  23
ATOM     23  C   UNL     1      48.092   4.057  16.837  0.00  0.00    +0.000 A 
ATOM     24  C   UNL     1      47.462   3.221  17.750  0.00  0.00    +0.000 A 
ATOM     25  S   UNL     1      48.137   3.281  19.314  0.00  0.00    +0.000 S 
ATOM     26  C   UNL     1      49.265   4.464  18.843  0.00  0.00    +0.000 A 
ATOM     27  N   UNL     1      50.156   4.978  19.734  0.00  0.00    +0.000 NA
ATOM     28  C   UNL     1      50.936   5.885  19.249  0.00  0.00    +0.000 A 
ATOM     29  N   UNL     1      50.906   6.326  17.952  0.00  0.00    +0.000 N 
ATOM     30  C   UNL     1      50.028   5.831  17.018  0.00  0.00    +0.000 A 
ATOM     31  O   UNL     1      50.033   6.239  15.864  0.00  0.00    +0.000 OA
ATOM     32  C   UNL     1      49.134   4.801  17.509  0.00  0.00    +0.000 A 
ATOM     33  H   UNL     1      51.543   7.041  17.633  0.00  0.00    +0.000 HD
ENDBRANCH  20  23
ENDBRANCH  18  19
ENDBRANCH   4  18
TORSDOF 6
ENDMDL
MODEL 3
REMARK VINA RESULT:    -8.172      2.040      2.519
REMARK INTER + INTRA:         -11.844
REMARK INTER:                 -11.215
REMARK INTRA:                  -0.629
REMARK UNBOUND:                -0.805
REMARK  Name = 
REMARK  6 active torsions:
REMARK  status: ('A' for Active; 'I' for Inactive)
REMARK    1  A    between atoms: C_2  and  C_25
REMARK    2  A    between atoms: N_3  and  C_4
REMARK    3  A    between atoms: C_4  and  C_5
REMARK    4  A    between atoms: C_8  and  C_9
REMARK    5  A    between atoms: C_9  and  N_10
REMARK    6  A    between atoms: C_11  and  C_13
REMARK                            x       y       z     vdW  Elec       q    Type
REMARK                         _______ _______ _______ _____ _____    ______ ____
ROOT
ATOM      1  C   UNL     1      44.355   6.074  10.857  0.00  0.00    +0.000 C 
ATOM      2  C   UNL     1      43.714   6.301  12.231  0.00  0.00    +0.000 C 
ATOM      3  C   UNL     1      44.194   5.303  13.280  0.00  0.00    +0.000 C 
ATOM      4  C   UNL     1      45.727   5.233  13.402  0.00  0.00    +0.000 C 
ATOM      5  C   UNL     1      46.392   5.076  12.025  0.00  0.00    +0.000 C 
ATOM      6  C   UNL     1      45.883   6.106  11.015  0.00  0.00    +0.000 C 
ENDROOT
BRANCH   1   7
ATOM      7  C   UNL     1      43.893   4.767  10.185  0.00  0.00    +0.000 C 
BRANCH   7  10
ATOM      8  O   UNL     1      44.343   2.049   9.498  0.00  0.00    +0.000 OA
ATOM      9  C   UNL     1      44.991   2.926   8.935  0.00  0.00    +0.000 C 
ATOM     10  N   UNL     1      44.840   4.264   9.215  0.00  0.00    +0.000 N 
ATOM     11  H   UNL     1      45.381   4.934   8.692  0.00  0.00    +0.000 HD
BRANCH   9  12
ATOM     12  C   UNL     1      45.960   2.634   7.898  0.00  0.00    +0.000 A 
ATOM     13  C   UNL     1      46.365   3.340   6.775  0.00  0.00    +0.000 A 
ATOM     14  C   UNL     1      47.337   2.570   6.092  0.00  0.00    +0.000 A 
ATOM     15  C   UNL     1      47.517   1.412   6.812  0.00  0.00    +0.000 A 
ATOM     16  N   UNL     1      46.695   1.464   7.905  0.00  0.00    +0.000 N 
ATOM     17  H   UNL     1      46.607   0.753   8.622  0.00  0.00    +0.000 HD
ENDBRANCH   9  12
ENDBRANCH   7  10
ENDBRANCH   1   7
BRANCH   4  18
ATOM     18  C   UNL     1      46.169   4.084  14.328  0.00  0.00    +0.000 C 
BRANCH  18  19
ATOM     19  N   UNL     1      47.304   4.433  15.158  0.00  0.00    +0.000 N 
ATOM     20  C   UNL     1      47.396   4.001  16.460  0.00  0.00    +0.000 C 
ATOM     21  O   UNL     1      46.570   3.240  16.956  0.00  0.00    +0.000 OA
ATOM     22  H   UNL     1      47.853   5.243  14.894  0.00  0.00    +0.000 HD
BRANCH  20  23
ATOM     23  C   UNL     1      48.575   4.448  17.214  0.00  0.00    +0.000 A 
ATOM     24  C   UNL     1      48.584   5.716  17.782  0.00  0.00    +0.000 A 
ATOM     25  S   UNL     1      49.999   6.057  18.671  0.00  0.00    +0.000 S 
ATOM     26  C   UNL     1      50.673   4.543  18.287  0.00  0.00    +0.000 A 
ATOM     27  N   UNL     1      51.910   4.194  18.732  0.00  0.00    +0.000 NA
ATOM     28  C   UNL     1      52.308   3.028  18.346  0.00  0.00    +0.000 A 
ATOM     29  N   UNL     1      51.581   2.179  17.553  0.00  0.00    +0.000 N 
ATOM     30  C   UNL     1      50.326   2.489  17.088  0.00  0.00    +0.000 A 
ATOM     31  O   UNL     1      49.697   1.704  16.389  0.00  0.00    +0.000 OA
ATOM     32  C   UNL     1      49.826   3.785  17.500  0.00  0.00    +0.000 A 
ATOM     33  H   UNL     1      51.949   1.279  17.285  0.00  0.00    +0.000 HD
ENDBRANCH  20  23
ENDBRANCH  18  19
ENDBRANCH   4  18
TORSDOF 6
ENDMDL
MODEL 4
REMARK VINA RESULT:    -7.978      2.230      2.789
REMARK INTER + INTRA:         -11.582
REMARK INTER:                 -10.422
REMARK INTRA:                  -1.160
REMARK UNBOUND:                -0.805
REMARK  Name = 
REMARK  6 active torsions:
REMARK  status: ('A' for Active; 'I' for Inactive)
REMARK    1  A    between atoms: C_2  and  C_25
REMARK    2  A    between atoms: N_3  and  C_4
REMARK    3  A    between atoms: C_4  and  C_5
REMARK    4  A    between atoms: C_8  and  C_9
REMARK    5  A    between atoms: C_9  and  N_10
REMARK    6  A    between atoms: C_11  and  C_13
REMARK                            x       y       z     vdW  Elec       q    Type
REMARK                         _______ _______ _______ _____ _____    ______ ____
ROOT
ATOM      1  C   UNL     1      43.992   3.202  12.092  0.00  0.00    +0.000 C 
ATOM      2  C   UNL     1      45.492   3.314  12.387  0.00  0.00    +0.000 C 
ATOM      3  C   UNL     1      46.011   4.745  12.277  0.00  0.00    +0.000 C 
ATOM      4  C   UNL     1      45.215   5.751  13.127  0.00  0.00    +0.000 C 
ATOM      5  C   UNL     1      43.701   5.606  12.897  0.00  0.00    +0.000 C 
ATOM      6  C   UNL     1      43.233   4.155  13.028  0.00  0.00    +0.000 C 
ENDROOT
BRANCH   1   7
ATOM      7  C   UNL     1      43.646   3.479  10.616  0.00  0.00    +0.000 C 
BRANCH   7  10
ATOM      8  O   UNL     1      45.078   4.730   8.507  0.00  0.00    +0.000 OA
ATOM      9  C   UNL     1      45.220   3.527   8.699  0.00  0.00    +0.000 C 
ATOM     10  N   UNL     1      44.558   2.843   9.692  0.00  0.00    +0.000 N 
ATOM     11  H   UNL     1      44.747   1.861   9.815  0.00  0.00    +0.000 HD
BRANCH   9  12
ATOM     12  C   UNL     1      46.125   2.714   7.910  0.00  0.00    +0.000 A 
ATOM     13  C   UNL     1      46.983   3.023   6.864  0.00  0.00    +0.000 A 
ATOM     14  C   UNL     1      47.621   1.830   6.446  0.00  0.00    +0.000 A 
ATOM     15  C   UNL     1      47.151   0.817   7.247  0.00  0.00    +0.000 A 
ATOM     16  N   UNL     1      46.261   1.359   8.135  0.00  0.00    +0.000 N 
ATOM     17  H   UNL     1      45.752   0.857   8.853  0.00  0.00    +0.000 HD
ENDBRANCH   9  12
ENDBRANCH   7  10
ENDBRANCH   1   7
BRANCH   4  18
ATOM     18  C   UNL     1      45.648   7.202  12.841  0.00  0.00    +0.000 C 
BRANCH  18  19
ATOM     19  N   UNL     1      46.828   7.597  13.583  0.00  0.00    +0.000 N 
ATOM     20  C   UNL     1      48.061   7.663  12.979  0.00  0.00    +0.000 C 
ATOM     21  O   UNL     1      48.211   7.471  11.776  0.00  0.00    +0.000 OA
ATOM     22  H   UNL     1      46.804   7.507  14.592  0.00  0.00    +0.000 HD
BRANCH  20  23
ATOM     23  C   UNL     1      49.189   8.040  13.842  0.00  0.00    +0.000 A 
ATOM     24  C   UNL     1      49.986   9.122  13.494  0.00  0.00    +0.000 A 
ATOM     25  S   UNL     1      51.212   9.463  14.629  0.00  0.00    +0.000 S 
ATOM     26  C   UNL     1      50.755   8.145  15.603  0.00  0.00    +0.000 A 
ATOM     27  N   UNL     1      51.425   7.855  16.751  0.00  0.00    +0.000 NA
ATOM     28  C   UNL     1      50.988   6.815  17.378  0.00  0.00    +0.000 A 
ATOM     29  N   UNL     1      49.940   6.037  16.961  0.00  0.00    +0.000 N 
ATOM     30  C   UNL     1      49.231   6.297  15.813  0.00  0.00    +0.000 A 
ATOM     31  O   UNL     1      48.292   5.588  15.473  0.00  0.00    +0.000 OA
ATOM     32  C   UNL     1      49.675   7.461  15.074  0.00  0.00    +0.000 A 
ATOM     33  H   UNL     1      49.646   5.234  17.497  0.00  0.00    +0.000 HD
ENDBRANCH  20  23
ENDBRANCH  18  19
ENDBRANCH   4  18
TORSDOF 6
ENDMDL
MODEL 5
REMARK VINA RESULT:    -7.867      3.463      8.484
REMARK INTER + INTRA:         -11.432
REMARK INTER:                 -10.434
REMARK INTRA:                  -0.998
REMARK UNBOUND:                -0.805
REMARK  Name = 
REMARK  6 active torsions:
REMARK  status: ('A' for Active; 'I' for Inactive)
REMARK    1  A    between atoms: C_2  and  C_25
REMARK    2  A    between atoms: N_3  and  C_4
REMARK    3  A    between atoms: C_4  and  C_5
REMARK    4  A    between atoms: C_8  and  C_9
REMARK    5  A    between atoms: C_9  and  N_10
REMARK    6  A    between atoms: C_11  and  C_13
REMARK                            x       y       z     vdW  Elec       q    Type
REMARK                         _______ _______ _______ _____ _____    ______ ____
ROOT
ATOM      1  C   UNL     1      49.112   4.473  18.932  0.00  0.00    +0.000 C 
ATOM      2  C   UNL     1      50.326   5.392  18.756  0.00  0.00    +0.000 C 
ATOM      3  C   UNL     1      50.407   6.005  17.361  0.00  0.00    +0.000 C 
ATOM      4  C   UNL     1      49.116   6.725  16.934  0.00  0.00    +0.000 C 
ATOM      5  C   UNL     1      47.878   5.844  17.168  0.00  0.00    +0.000 C 
ATOM      6  C   UNL     1      47.841   5.263  18.583  0.00  0.00    +0.000 C 
ENDROOT
BRANCH   1   7
ATOM      7  C   UNL     1      49.209   3.181  18.098  0.00  0.00    +0.000 C 
BRANCH   7  10
ATOM      8  O   UNL     1      50.442   1.475  16.192  0.00  0.00    +0.000 OA
ATOM      9  C   UNL     1      51.019   1.712  17.248  0.00  0.00    +0.000 C 
ATOM     10  N   UNL     1      50.489   2.519  18.227  0.00  0.00    +0.000 N 
ATOM     11  H   UNL     1      51.032   2.698  19.057  0.00  0.00    +0.000 HD
BRANCH   9  12
ATOM     12  C   UNL     1      52.334   1.182  17.552  0.00  0.00    +0.000 A 
ATOM     13  C   UNL     1      53.607   1.721  17.432  0.00  0.00    +0.000 A 
ATOM     14  C   UNL     1      54.543   0.749  17.860  0.00  0.00    +0.000 A 
ATOM     15  C   UNL     1      53.829  -0.362  18.243  0.00  0.00    +0.000 A 
ATOM     16  N   UNL     1      52.499  -0.088  18.068  0.00  0.00    +0.000 N 
ATOM     17  H   UNL     1      51.728  -0.716  18.266  0.00  0.00    +0.000 HD
ENDBRANCH   9  12
ENDBRANCH   7  10
ENDBRANCH   1   7
BRANCH   4  18
ATOM     18  C   UNL     1      49.173   7.160  15.457  0.00  0.00    +0.000 C 
BRANCH  18  19
ATOM     19  N   UNL     1      47.949   6.873  14.735  0.00  0.00    +0.000 N 
ATOM     20  C   UNL     1      47.974   6.460  13.424  0.00  0.00    +0.000 C 
ATOM     21  O   UNL     1      49.024   6.238  12.829  0.00  0.00    +0.000 OA
ATOM     22  H   UNL     1      47.089   7.282  15.082  0.00  0.00    +0.000 HD
BRANCH  20  23
ATOM     23  C   UNL     1      46.669   6.236  12.788  0.00  0.00    +0.000 A 
ATOM     24  C   UNL     1      45.980   7.310  12.240  0.00  0.00    +0.000 A 
ATOM     25  S   UNL     1      44.513   6.872  11.489  0.00  0.00    +0.000 S 
ATOM     26  C   UNL     1      44.720   5.237  11.912  0.00  0.00    +0.000 A 
ATOM     27  N   UNL     1      43.789   4.303  11.577  0.00  0.00    +0.000 NA
ATOM     28  C   UNL     1      44.061   3.108  11.982  0.00  0.00    +0.000 A 
ATOM     29  N   UNL     1      45.179   2.761  12.693  0.00  0.00    +0.000 N 
ATOM     30  C   UNL     1      46.147   3.670  13.047  0.00  0.00    +0.000 A 
ATOM     31  O   UNL     1      47.141   3.326  13.674  0.00  0.00    +0.000 OA
ATOM     32  C   UNL     1      45.896   5.028  12.608  0.00  0.00    +0.000 A 
ATOM     33  H   UNL     1      45.334   1.806  12.983  0.00  0.00    +0.000 HD
ENDBRANCH  20  23
ENDBRANCH  18  19
ENDBRANCH   4  18
TORSDOF 6
ENDMDL
MODEL 6
REMARK VINA RESULT:    -7.040      2.917      9.235
REMARK INTER + INTRA:         -10.315
REMARK INTER:                  -9.265
REMARK INTRA:                  -1.050
REMARK UNBOUND:                -0.805
REMARK  Name = 
REMARK  6 active torsions:
REMARK  status: ('A' for Active; 'I' for Inactive)
REMARK    1  A    between atoms: C_2  and  C_25
REMARK    2  A    between atoms: N_3  and  C_4
REMARK    3  A    between atoms: C_4  and  C_5
REMARK    4  A    between atoms: C_8  and  C_9
REMARK    5  A    between atoms: C_9  and  N_10
REMARK    6  A    between atoms: C_11  and  C_13
REMARK                            x       y       z     vdW  Elec       q    Type
REMARK                         _______ _______ _______ _____ _____    ______ ____
ROOT
ATOM      1  C   UNL     1      49.165   7.637  14.360  0.00  0.00    +0.000 C 
ATOM      2  C   UNL     1      49.437   7.623  12.852  0.00  0.00    +0.000 C 
ATOM      3  C   UNL     1      48.161   7.509  12.022  0.00  0.00    +0.000 C 
ATOM      4  C   UNL     1      47.106   8.574  12.373  0.00  0.00    +0.000 C 
ATOM      5  C   UNL     1      46.871   8.651  13.891  0.00  0.00    +0.000 C 
ATOM      6  C   UNL     1      48.180   8.774  14.673  0.00  0.00    +0.000 C 
ENDROOT
BRANCH   1   7
ATOM      7  C   UNL     1      48.644   6.288  14.891  0.00  0.00    +0.000 C 
BRANCH   7  10
ATOM      8  O   UNL     1      48.654   4.069  16.663  0.00  0.00    +0.000 OA
ATOM      9  C   UNL     1      48.393   5.186  17.100  0.00  0.00    +0.000 C 
ATOM     10  N   UNL     1      48.358   6.310  16.308  0.00  0.00    +0.000 N 
ATOM     11  H   UNL     1      48.169   7.201  16.739  0.00  0.00    +0.000 HD
BRANCH   9  12
ATOM     12  C   UNL     1      48.122   5.429  18.503  0.00  0.00    +0.000 A 
ATOM     13  C   UNL     1      47.302   6.342  19.150  0.00  0.00    +0.000 A 
ATOM     14  C   UNL     1      47.437   6.150  20.546  0.00  0.00    +0.000 A 
ATOM     15  C   UNL     1      48.329   5.120  20.729  0.00  0.00    +0.000 A 
ATOM     16  N   UNL     1      48.726   4.682  19.495  0.00  0.00    +0.000 N 
ATOM     17  H   UNL     1      49.380   3.930  19.309  0.00  0.00    +0.000 HD
ENDBRANCH   9  12
ENDBRANCH   7  10
ENDBRANCH   1   7
BRANCH   4  18
ATOM     18  C   UNL     1      45.771   8.306  11.653  0.00  0.00    +0.000 C 
BRANCH  18  19
ATOM     19  N   UNL     1      45.541   6.899  11.392  0.00  0.00    +0.000 N 
ATOM     20  C   UNL     1      44.269   6.397  11.258  0.00  0.00    +0.000 C 
ATOM     21  O   UNL     1      43.276   7.119  11.272  0.00  0.00    +0.000 OA
ATOM     22  H   UNL     1      46.280   6.247  11.630  0.00  0.00    +0.000 HD
BRANCH  20  23
ATOM     23  C   UNL     1      44.160   4.949  11.033  0.00  0.00    +0.000 A 
ATOM     24  C   UNL     1      43.408   4.174  11.905  0.00  0.00    +0.000 A 
ATOM     25  S   UNL     1      43.335   2.527  11.470  0.00  0.00    +0.000 S 
ATOM     26  C   UNL     1      44.349   2.779  10.127  0.00  0.00    +0.000 A 
ATOM     27  N   UNL     1      44.707   1.748   9.315  0.00  0.00    +0.000 NA
ATOM     28  C   UNL     1      45.499   2.077   8.350  0.00  0.00    +0.000 A 
ATOM     29  N   UNL     1      45.966   3.345   8.123  0.00  0.00    +0.000 N 
ATOM     30  C   UNL     1      45.625   4.416   8.913  0.00  0.00    +0.000 A 
ATOM     31  O   UNL     1      46.051   5.539   8.677  0.00  0.00    +0.000 OA
ATOM     32  C   UNL     1      44.729   4.104  10.008  0.00  0.00    +0.000 A 
ATOM     33  H   UNL     1      46.585   3.538   7.349  0.00  0.00    +0.000 HD
ENDBRANCH  20  23
ENDBRANCH  18  19
ENDBRANCH   4  18
TORSDOF 6
ENDMDL
MODEL 7
REMARK VINA RESULT:    -6.755      3.038      4.872
REMARK INTER + INTRA:          -9.930
REMARK INTER:                  -8.445
REMARK INTRA:                  -1.485
REMARK UNBOUND:                -0.805
REMARK  Name = 
REMARK  6 active torsions:
REMARK  status: ('A' for Active; 'I' for Inactive)
REMARK    1  A    between atoms: C_2  and  C_25
REMARK    2  A    between atoms: N_3  and  C_4
REMARK    3  A    between atoms: C_4  and  C_5
REMARK    4  A    between atoms: C_8  and  C_9
REMARK    5  A    between atoms: C_9  and  N_10
REMARK    6  A    between atoms: C_11  and  C_13
REMARK                            x       y       z     vdW  Elec       q    Type
REMARK                         _______ _______ _______ _____ _____    ______ ____
ROOT
ATOM      1  C   UNL     1      47.417   8.571  12.105  0.00  0.00    +0.000 C 
ATOM      2  C   UNL     1      47.943   9.909  12.637  0.00  0.00    +0.000 C 
ATOM      3  C   UNL     1      49.092   9.742  13.626  0.00  0.00    +0.000 C 
ATOM      4  C   UNL     1      50.248   8.884  13.081  0.00  0.00    +0.000 C 
ATOM      5  C   UNL     1      49.733   7.567  12.479  0.00  0.00    +0.000 C 
ATOM      6  C   UNL     1      48.590   7.792  11.488  0.00  0.00    +0.000 C 
ENDROOT
BRANCH   1   7
ATOM      7  C   UNL     1      46.699   7.735  13.181  0.00  0.00    +0.000 C 
BRANCH   7  10
ATOM      8  O   UNL     1      46.996   4.953  13.665  0.00  0.00    +0.000 OA
ATOM      9  C   UNL     1      46.102   5.341  12.920  0.00  0.00    +0.000 C 
ATOM     10  N   UNL     1      45.896   6.668  12.626  0.00  0.00    +0.000 N 
ATOM     11  H   UNL     1      45.122   6.920  12.031  0.00  0.00    +0.000 HD
BRANCH   9  12
ATOM     12  C   UNL     1      45.159   4.433  12.297  0.00  0.00    +0.000 A 
ATOM     13  C   UNL     1      44.878   4.147  10.969  0.00  0.00    +0.000 A 
ATOM     14  C   UNL     1      43.839   3.185  10.932  0.00  0.00    +0.000 A 
ATOM     15  C   UNL     1      43.509   2.893  12.234  0.00  0.00    +0.000 A 
ATOM     16  N   UNL     1      44.317   3.638  13.051  0.00  0.00    +0.000 N 
ATOM     17  H   UNL     1      44.308   3.636  14.064  0.00  0.00    +0.000 HD
ENDBRANCH   9  12
ENDBRANCH   7  10
ENDBRANCH   1   7
BRANCH   4  18
ATOM     18  C   UNL     1      51.293   8.584  14.173  0.00  0.00    +0.000 C 
BRANCH  18  19
ATOM     19  N   UNL     1      50.990   7.388  14.933  0.00  0.00    +0.000 N 
ATOM     20  C   UNL     1      51.538   7.174  16.175  0.00  0.00    +0.000 C 
ATOM     21  O   UNL     1      52.242   8.011  16.732  0.00  0.00    +0.000 OA
ATOM     22  H   UNL     1      50.646   6.581  14.426  0.00  0.00    +0.000 HD
BRANCH  20  23
ATOM     23  C   UNL     1      51.186   5.908  16.832  0.00  0.00    +0.000 A 
ATOM     24  C   UNL     1      52.190   5.111  17.368  0.00  0.00    +0.000 A 
ATOM     25  S   UNL     1      51.609   3.709  18.146  0.00  0.00    +0.000 S 
ATOM     26  C   UNL     1      49.998   4.090  17.753  0.00  0.00    +0.000 A 
ATOM     27  N   UNL     1      48.975   3.271  18.118  0.00  0.00    +0.000 NA
ATOM     28  C   UNL     1      47.808   3.667  17.733  0.00  0.00    +0.000 A 
ATOM     29  N   UNL     1      47.571   4.810  17.014  0.00  0.00    +0.000 N 
ATOM     30  C   UNL     1      48.573   5.668  16.631  0.00  0.00    +0.000 A 
ATOM     31  O   UNL     1      48.328   6.687  15.997  0.00  0.00    +0.000 OA
ATOM     32  C   UNL     1      49.905   5.275  17.046  0.00  0.00    +0.000 A 
ATOM     33  H   UNL     1      46.634   5.065  16.742  0.00  0.00    +0.000 HD
ENDBRANCH  20  23
ENDBRANCH  18  19
ENDBRANCH   4  18
TORSDOF 6
ENDMDL
MODEL 8
REMARK VINA RESULT:    -6.592      3.608      8.217
REMARK INTER + INTRA:          -9.710
REMARK INTER:                  -8.416
REMARK INTRA:                  -1.294
REMARK UNBOUND:                -0.805
REMARK  Name = 
REMARK  6 active torsions:
REMARK  status: ('A' for Active; 'I' for Inactive)
REMARK    1  A    between atoms: C_2  and  C_25
REMARK    2  A    between atoms: N_3  and  C_4
REMARK    3  A    between atoms: C_4  and  C_5
REMARK    4  A    between atoms: C_8  and  C_9
REMARK    5  A    between atoms: C_9  and  N_10
REMARK    6  A    between atoms: C_11  and  C_13
REMARK                            x       y       z     vdW  Elec       q    Type
REMARK                         _______ _______ _______ _____ _____    ______ ____
ROOT
ATOM      1  C   UNL     1      49.052   6.566  19.216  0.00  0.00    +0.000 C 
ATOM      2  C   UNL     1      50.260   7.428  18.834  0.00  0.00    +0.000 C 
ATOM      3  C   UNL     1      50.060   8.179  17.521  0.00  0.00    +0.000 C 
ATOM      4  C   UNL     1      48.767   9.012  17.483  0.00  0.00    +0.000 C 
ATOM      5  C   UNL     1      47.552   8.182  17.931  0.00  0.00    +0.000 C 
ATOM      6  C   UNL     1      47.802   7.460  19.256  0.00  0.00    +0.000 C 
ENDROOT
BRANCH   1   7
ATOM      7  C   UNL     1      48.846   5.365  18.273  0.00  0.00    +0.000 C 
BRANCH   7  10
ATOM      8  O   UNL     1      49.112   3.001  16.722  0.00  0.00    +0.000 OA
ATOM      9  C   UNL     1      49.999   3.304  17.513  0.00  0.00    +0.000 C 
ATOM     10  N   UNL     1      49.944   4.425  18.307  0.00  0.00    +0.000 N 
ATOM     11  H   UNL     1      50.724   4.631  18.911  0.00  0.00    +0.000 HD
BRANCH   9  12
ATOM     12  C   UNL     1      51.207   2.517  17.665  0.00  0.00    +0.000 A 
ATOM     13  C   UNL     1      52.515   2.865  17.968  0.00  0.00    +0.000 A 
ATOM     14  C   UNL     1      53.300   1.688  17.968  0.00  0.00    +0.000 A 
ATOM     15  C   UNL     1      52.460   0.639  17.676  0.00  0.00    +0.000 A 
ATOM     16  N   UNL     1      51.199   1.144  17.508  0.00  0.00    +0.000 N 
ATOM     17  H   UNL     1      50.366   0.612  17.286  0.00  0.00    +0.000 HD
ENDBRANCH   9  12
ENDBRANCH   7  10
ENDBRANCH   1   7
BRANCH   4  18
ATOM     18  C   UNL     1      48.510   9.595  16.080  0.00  0.00    +0.000 C 
BRANCH  18  19
ATOM     19  N   UNL     1      47.614   8.781  15.285  0.00  0.00    +0.000 N 
ATOM     20  C   UNL     1      47.811   8.615  13.934  0.00  0.00    +0.000 C 
ATOM     21  O   UNL     1      48.789   9.077  13.354  0.00  0.00    +0.000 OA
ATOM     22  H   UNL     1      46.684   8.608  15.648  0.00  0.00    +0.000 HD
BRANCH  20  23
ATOM     23  C   UNL     1      46.816   7.797  13.227  0.00  0.00    +0.000 A 
ATOM     24  C   UNL     1      45.914   8.408  12.365  0.00  0.00    +0.000 A 
ATOM     25  S   UNL     1      44.868   7.314  11.580  0.00  0.00    +0.000 S 
ATOM     26  C   UNL     1      45.547   5.988  12.401  0.00  0.00    +0.000 A 
ATOM     27  N   UNL     1      45.085   4.725  12.196  0.00  0.00    +0.000 NA
ATOM     28  C   UNL     1      45.674   3.819  12.903  0.00  0.00    +0.000 A 
ATOM     29  N   UNL     1      46.684   4.061  13.797  0.00  0.00    +0.000 N 
ATOM     30  C   UNL     1      47.185   5.319  14.030  0.00  0.00    +0.000 A 
ATOM     31  O   UNL     1      48.095   5.501  14.829  0.00  0.00    +0.000 OA
ATOM     32  C   UNL     1      46.564   6.374  13.255  0.00  0.00    +0.000 A 
ATOM     33  H   UNL     1      47.103   3.307  14.321  0.00  0.00    +0.000 HD
ENDBRANCH  20  23
ENDBRANCH  18  19
ENDBRANCH   4  18
TORSDOF 6
ENDMDL
MODEL 9
REMARK VINA RESULT:    -6.527      3.583      7.982
REMARK INTER + INTRA:          -9.622
REMARK INTER:                  -8.809
REMARK INTRA:                  -0.813
REMARK UNBOUND:                -0.805
REMARK  Name = 
REMARK  6 active torsions:
REMARK  status: ('A' for Active; 'I' for Inactive)
REMARK    1  A    between atoms: C_2  and  C_25
REMARK    2  A    between atoms: N_3  and  C_4
REMARK    3  A    between atoms: C_4  and  C_5
REMARK    4  A    between atoms: C_8  and  C_9
REMARK    5  A    between atoms: C_9  and  N_10
REMARK    6  A    between atoms: C_11  and  C_13
REMARK                            x       y       z     vdW  Elec       q    Type
REMARK                         _______ _______ _______ _____ _____    ______ ____
ROOT
ATOM      1  C   UNL     1      49.291   9.494  16.426  0.00  0.00    +0.000 C 
ATOM      2  C   UNL     1      50.587   8.689  16.284  0.00  0.00    +0.000 C 
ATOM      3  C   UNL     1      50.540   7.690  15.131  0.00  0.00    +0.000 C 
ATOM      4  C   UNL     1      50.148   8.327  13.786  0.00  0.00    +0.000 C 
ATOM      5  C   UNL     1      48.888   9.196  13.924  0.00  0.00    +0.000 C 
ATOM      6  C   UNL     1      48.991  10.185  15.086  0.00  0.00    +0.000 C 
ENDROOT
BRANCH   1   7
ATOM      7  C   UNL     1      48.096   8.637  16.888  0.00  0.00    +0.000 C 
BRANCH   7  10
ATOM      8  O   UNL     1      48.080   6.723  18.985  0.00  0.00    +0.000 OA
ATOM      9  C   UNL     1      48.304   6.354  17.837  0.00  0.00    +0.000 C 
ATOM     10  N   UNL     1      48.339   7.216  16.767  0.00  0.00    +0.000 N 
ATOM     11  H   UNL     1      48.496   6.841  15.845  0.00  0.00    +0.000 HD
BRANCH   9  12
ATOM     12  C   UNL     1      48.527   4.963  17.497  0.00  0.00    +0.000 A 
ATOM     13  C   UNL     1      49.607   4.115  17.700  0.00  0.00    +0.000 A 
ATOM     14  C   UNL     1      49.292   2.853  17.141  0.00  0.00    +0.000 A 
ATOM     15  C   UNL     1      48.025   2.946  16.616  0.00  0.00    +0.000 A 
ATOM     16  N   UNL     1      47.566   4.215  16.846  0.00  0.00    +0.000 N 
ATOM     17  H   UNL     1      46.661   4.582  16.574  0.00  0.00    +0.000 HD
ENDBRANCH   9  12
ENDBRANCH   7  10
ENDBRANCH   1   7
BRANCH   4  18
ATOM     18  C   UNL     1      49.928   7.259  12.698  0.00  0.00    +0.000 C 
BRANCH  18  19
ATOM     19  N   UNL     1      48.532   7.084  12.352  0.00  0.00    +0.000 N 
ATOM     20  C   UNL     1      47.734   6.194  13.031  0.00  0.00    +0.000 C 
ATOM     21  O   UNL     1      48.138   5.567  14.006  0.00  0.00    +0.000 OA
ATOM     22  H   UNL     1      48.235   7.366  11.425  0.00  0.00    +0.000 HD
BRANCH  20  23
ATOM     23  C   UNL     1      46.346   6.077  12.566  0.00  0.00    +0.000 A 
ATOM     24  C   UNL     1      45.667   7.213  12.144  0.00  0.00    +0.000 A 
ATOM     25  S   UNL     1      44.088   6.897  11.581  0.00  0.00    +0.000 S 
ATOM     26  C   UNL     1      44.235   5.238  11.928  0.00  0.00    +0.000 A 
ATOM     27  N   UNL     1      43.207   4.379  11.693  0.00  0.00    +0.000 NA
ATOM     28  C   UNL     1      43.446   3.155  12.026  0.00  0.00    +0.000 A 
ATOM     29  N   UNL     1      44.621   2.711  12.574  0.00  0.00    +0.000 N 
ATOM     30  C   UNL     1      45.687   3.542  12.821  0.00  0.00    +0.000 A 
ATOM     31  O   UNL     1      46.728   3.113  13.302  0.00  0.00    +0.000 OA
ATOM     32  C   UNL     1      45.475   4.929  12.457  0.00  0.00    +0.000 A 
ATOM     33  H   UNL     1      44.746   1.739  12.813  0.00  0.00    +0.000 HD
ENDBRANCH  20  23
ENDBRANCH  18  19
ENDBRANCH   4  18
TORSDOF 6
ENDMDL
