MODEL 1
REMARK VINA RESULT:    -8.522      0.000      0.000
REMARK INTER + INTRA:         -13.151
REMARK INTER:                 -12.259
REMARK INTRA:                  -0.893
REMARK UNBOUND:                -0.893
REMARK  Name = 
REMARK  8 active torsions:
REMARK  status: ('A' for Active; 'I' for Inactive)
REMARK    1  A    between atoms: N_1  and  C_2
REMARK    2  A    between atoms: C_2  and  C_3
REMARK    3  A    between atoms: C_6  and  C_7
REMARK    4  A    between atoms: N_9  and  C_10
REMARK    5  A    between atoms: C_10  and  C_11
REMARK    6  A    between atoms: C_14  and  C_15
REMARK    7  A    between atoms: C_15  and  N_16
REMARK    8  A    between atoms: C_17  and  C_19
REMARK                            x       y       z     vdW  Elec       q    Type
REMARK                         _______ _______ _______ _____ _____    ______ ____
ROOT
ATOM      1  C   UNL     1      45.985   4.660  13.172  0.00  0.00    +0.000 A 
ATOM      2  C   UNL     1      46.431   4.302  14.452  0.00  0.00    +0.000 A 
ATOM      3  C   UNL     1      47.415   5.055  15.105  0.00  0.00    +0.000 A 
ATOM      4  C   UNL     1      47.966   6.191  14.498  0.00  0.00    +0.000 A 
ATOM      5  C   UNL     1      47.549   6.524  13.202  0.00  0.00    +0.000 A 
ATOM      6  C   UNL     1      46.562   5.776  12.552  0.00  0.00    +0.000 A 
ENDROOT
BRANCH   1   7
ATOM      7  C   UNL     1      44.890   3.882  12.484  0.00  0.00    +0.000 C 
BRANCH   7  10
ATOM      8  C   UNL     1      44.348   2.914  10.292  0.00  0.00    +0.000 C 
ATOM      9  O   UNL     1      43.408   2.280  10.763  0.00  0.00    +0.000 OA
ATOM     10  N   UNL     1      45.135   3.745  11.063  0.00  0.00    +0.000 N 
ATOM     11  H   UNL     1      46.003   4.104  10.690  0.00  0.00    +0.000 HD
BRANCH   8  15
ATOM     12  C   UNL     1      46.513   2.420   7.261  0.00  0.00    +0.000 C 
ATOM     13  C   UNL     1      46.634   3.891   7.650  0.00  0.00    +0.000 C 
ATOM     14  C   UNL     1      45.308   4.240   8.320  0.00  0.00    +0.000 C 
ATOM     15  C   UNL     1      44.692   2.920   8.802  0.00  0.00    +0.000 C 
ATOM     16  C   UNL     1      45.703   1.829   8.415  0.00  0.00    +0.000 C 
BRANCH  12  17
ATOM     17  C   UNL     1      47.861   1.715   7.072  0.00  0.00    +0.000 C 
BRANCH  17  18
ATOM     18  N   UNL     1      48.411   1.949   5.740  0.00  0.00    +0.000 NA
ATOM     19  H   UNL     1      48.103   1.204   5.115  0.00  0.00    +0.000 HD
ATOM     20  H   UNL     1      49.427   1.883   5.771  0.00  0.00    +0.000 HD
ENDBRANCH  17  18
ENDBRANCH  12  17
ENDBRANCH   8  15
ENDBRANCH   7  10
ENDBRANCH   1   7
BRANCH   4  21
ATOM     21  C   UNL     1      49.002   7.033  15.205  0.00  0.00    +0.000 C 
BRANCH  21  22
ATOM     22  N   UNL     1      50.056   6.224  15.760  0.00  0.00    +0.000 N 
ATOM     23  C   UNL     1      50.069   5.870  17.086  0.00  0.00    +0.000 C 
ATOM     24  O   UNL     1      49.173   6.191  17.858  0.00  0.00    +0.000 OA
ATOM     25  H   UNL     1      50.915   6.162  15.221  0.00  0.00    +0.000 HD
BRANCH  23  26
ATOM     26  C   UNL     1      51.191   5.023  17.520  0.00  0.00    +0.000 A 
ATOM     27  C   UNL     1      52.351   5.609  18.008  0.00  0.00    +0.000 A 
ATOM     28  S   UNL     1      53.527   4.480  18.514  0.00  0.00    +0.000 S 
ATOM     29  C   UNL     1      52.551   3.168  18.044  0.00  0.00    +0.000 A 
ATOM     30  N   UNL     1      52.984   1.887  18.182  0.00  0.00    +0.000 NA
ATOM     31  C   UNL     1      52.149   0.993  17.763  0.00  0.00    +0.000 A 
ATOM     32  N   UNL     1      50.917   1.265  17.227  0.00  0.00    +0.000 N 
ATOM     33  C   UNL     1      50.426   2.543  17.100  0.00  0.00    +0.000 A 
ATOM     34  O   UNL     1      49.298   2.752  16.664  0.00  0.00    +0.000 OA
ATOM     35  C   UNL     1      51.333   3.586  17.538  0.00  0.00    +0.000 A 
ATOM     36  H   UNL     1      50.304   0.522  16.932  0.00  0.00    +0.000 HD
ENDBRANCH  23  26
ENDBRANCH  21  22
ENDBRANCH   4  21
TORSDOF 8
ENDMDL
MODEL 2
REMARK VINA RESULT:    -8.463      3.690      4.385
REMARK INTER + INTRA:         -13.066
REMARK INTER:                 -11.942
REMARK INTRA:                  -1.124
REMARK UNBOUND:                -0.893
REMARK  Name = 
REMARK  8 active torsions:
REMARK  status: ('A' for Active; 'I' for Inactive)
REMARK    1  A    between atoms: N_1  and  C_2
REMARK    2  A    between atoms: C_2  and  C_3
REMARK    3  A    between atoms: C_6  and  C_7
REMARK    4  A    between atoms: N_9  and  C_10
REMARK    5  A    between atoms: C_10  and  C_11
REMARK    6  A    between atoms: C_14  and  C_15
REMARK    7  A    between atoms: C_15  and  N_16
REMARK    8  A    between atoms: C_17  and  C_19
REMARK                            x       y       z     vdW  Elec       q    Type
REMARK                         _______ _______ _______ _____ _____    ______ ____
ROOT
ATOM      1  C   UNL     1      45.938   4.646  12.821  0.00  0.00    +0.000 A 
ATOM      2  C   UNL     1      47.077   4.751  13.631  0.00  0.00    +0.000 A 
ATOM      3  C   UNL     1      47.617   6.004  13.951  0.00  0.00    +0.000 A 
ATOM      4  C   UNL     1      47.022   7.181  13.478  0.00  0.00    +0.000 A 
ATOM      5  C   UNL     1      45.907   7.073  12.634  0.00  0.00    +0.000 A 
ATOM      6  C   UNL     1      45.365   5.822  12.319  0.00  0.00    +0.000 A 
ENDROOT
BRANCH   1   7
ATOM      7  C   UNL     1      45.324   3.302  12.513  0.00  0.00    +0.000 C 
BRANCH   7  10
ATOM      8  C   UNL     1      44.300   3.042  10.295  0.00  0.00    +0.000 C 
ATOM      9  O   UNL     1      43.204   3.395  10.719  0.00  0.00    +0.000 OA
ATOM     10  N   UNL     1      45.415   2.975  11.106  0.00  0.00    +0.000 N 
ATOM     11  H   UNL     1      46.249   2.510  10.775  0.00  0.00    +0.000 HD
BRANCH   8  15
ATOM     12  C   UNL     1      46.366   2.108   7.298  0.00  0.00    +0.000 C 
ATOM     13  C   UNL     1      46.283   3.632   7.315  0.00  0.00    +0.000 C 
ATOM     14  C   UNL     1      44.953   3.955   7.991  0.00  0.00    +0.000 C 
ATOM     15  C   UNL     1      44.567   2.724   8.823  0.00  0.00    +0.000 C 
ATOM     16  C   UNL     1      45.711   1.718   8.624  0.00  0.00    +0.000 C 
BRANCH  12  17
ATOM     17  C   UNL     1      47.794   1.567   7.171  0.00  0.00    +0.000 C 
BRANCH  17  18
ATOM     18  N   UNL     1      48.350   1.815   5.843  0.00  0.00    +0.000 NA
ATOM     19  H   UNL     1      48.651   2.787   5.783  0.00  0.00    +0.000 HD
ATOM     20  H   UNL     1      47.621   1.707   5.140  0.00  0.00    +0.000 HD
ENDBRANCH  17  18
ENDBRANCH  12  17
ENDBRANCH   8  15
ENDBRANCH   7  10
ENDBRANCH   1   7
BRANCH   4  21
ATOM     21  C   UNL     1      47.572   8.539  13.844  0.00  0.00    +0.000 C 
BRANCH  21  22
ATOM     22  N   UNL     1      47.395   8.825  15.243  0.00  0.00    +0.000 N 
ATOM     23  C   UNL     1      48.366   9.459  15.977  0.00  0.00    +0.000 C 
ATOM     24  O   UNL     1      49.417   9.844  15.477  0.00  0.00    +0.000 OA
ATOM     25  H   UNL     1      46.668   8.305  15.726  0.00  0.00    +0.000 HD
BRANCH  23  26
ATOM     26  C   UNL     1      48.051   9.710  17.392  0.00  0.00    +0.000 A 
ATOM     27  C   UNL     1      47.829  11.007  17.832  0.00  0.00    +0.000 A 
ATOM     28  S   UNL     1      47.426  11.109  19.487  0.00  0.00    +0.000 S 
ATOM     29  C   UNL     1      47.591   9.428  19.688  0.00  0.00    +0.000 A 
ATOM     30  N   UNL     1      47.406   8.845  20.903  0.00  0.00    +0.000 NA
ATOM     31  C   UNL     1      47.586   7.565  20.914  0.00  0.00    +0.000 A 
ATOM     32  N   UNL     1      47.926   6.814  19.819  0.00  0.00    +0.000 N 
ATOM     33  C   UNL     1      48.090   7.357  18.566  0.00  0.00    +0.000 A 
ATOM     34  O   UNL     1      48.344   6.653  17.594  0.00  0.00    +0.000 OA
ATOM     35  C   UNL     1      47.918   8.795  18.502  0.00  0.00    +0.000 A 
ATOM     36  H   UNL     1      48.038   5.815  19.888  0.00  0.00    +0.000 HD
ENDBRANCH  23  26
ENDBRANCH  21  22
ENDBRANCH   4  21
TORSDOF 8
ENDMDL
MODEL 3
REMARK VINA RESULT:    -8.398      2.387      2.976
REMARK INTER + INTRA:         -12.972
REMARK INTER:                 -12.107
REMARK INTRA:                  -0.865
REMARK UNBOUND:                -0.893
REMARK  Name = 
REMARK  8 active torsions:
REMARK  status: ('A' for Active; 'I' for Inactive)
REMARK    1  A    between atoms: N_1  and  C_2
REMARK    2  A    between atoms: C_2  and  C_3
REMARK    3  A    between atoms: C_6  and  C_7
REMARK    4  A    between atoms: N_9  and  C_10
REMARK    5  A    between atoms: C_10  and  C_11
REMARK    6  A    between atoms: C_14  and  C_15
REMARK    7  A    between atoms: C_15  and  N_16
REMARK    8  A    between atoms: C_17  and  C_19
REMARK                            x       y       z     vdW  Elec       q    Type
REMARK                         _______ _______ _______ _____ _____    ______ ____
ROOT
ATOM      1  C   UNL     1      44.544   5.939  11.901  0.00  0.00    +0.000 A 
ATOM      2  C   UNL     1      44.859   7.254  11.531  0.00  0.00    +0.000 A 
ATOM      3  C   UNL     1      45.955   7.916  12.101  0.00  0.00    +0.000 A 
ATOM      4  C   UNL     1      46.767   7.274  13.044  0.00  0.00    +0.000 A 
ATOM      5  C   UNL     1      46.427   5.974  13.443  0.00  0.00    +0.000 A 
ATOM      6  C   UNL     1      45.337   5.310  12.870  0.00  0.00    +0.000 A 
ENDROOT
BRANCH   1   7
ATOM      7  C   UNL     1      43.395   5.203  11.255  0.00  0.00    +0.000 C 
BRANCH   7  10
ATOM      8  C   UNL     1      44.318   3.325   9.969  0.00  0.00    +0.000 C 
ATOM      9  O   UNL     1      44.473   2.656  10.986  0.00  0.00    +0.000 OA
ATOM     10  N   UNL     1      43.781   4.595   9.999  0.00  0.00    +0.000 N 
ATOM     11  H   UNL     1      43.838   5.184   9.179  0.00  0.00    +0.000 HD
BRANCH   8  15
ATOM     12  C   UNL     1      46.471   2.055   7.163  0.00  0.00    +0.000 C 
ATOM     13  C   UNL     1      46.303   3.555   6.941  0.00  0.00    +0.000 C 
ATOM     14  C   UNL     1      44.949   3.903   7.553  0.00  0.00    +0.000 C 
ATOM     15  C   UNL     1      44.621   2.797   8.566  0.00  0.00    +0.000 C 
ATOM     16  C   UNL     1      45.822   1.839   8.531  0.00  0.00    +0.000 C 
BRANCH  12  17
ATOM     17  C   UNL     1      47.928   1.582   7.127  0.00  0.00    +0.000 C 
BRANCH  17  18
ATOM     18  N   UNL     1      48.531   1.788   5.813  0.00  0.00    +0.000 NA
ATOM     19  H   UNL     1      49.032   0.943   5.537  0.00  0.00    +0.000 HD
ATOM     20  H   UNL     1      49.235   2.522   5.869  0.00  0.00    +0.000 HD
ENDBRANCH  17  18
ENDBRANCH  12  17
ENDBRANCH   8  15
ENDBRANCH   7  10
ENDBRANCH   1   7
BRANCH   4  21
ATOM     21  C   UNL     1      47.972   7.963  13.639  0.00  0.00    +0.000 C 
BRANCH  21  22
ATOM     22  N   UNL     1      48.014   7.818  15.070  0.00  0.00    +0.000 N 
ATOM     23  C   UNL     1      49.039   7.155  15.697  0.00  0.00    +0.000 C 
ATOM     24  O   UNL     1      49.986   6.681  15.080  0.00  0.00    +0.000 OA
ATOM     25  H   UNL     1      47.143   7.970  15.570  0.00  0.00    +0.000 HD
BRANCH  23  26
ATOM     26  C   UNL     1      48.973   7.097  17.166  0.00  0.00    +0.000 A 
ATOM     27  C   UNL     1      48.926   8.271  17.904  0.00  0.00    +0.000 A 
ATOM     28  S   UNL     1      48.799   8.018  19.587  0.00  0.00    +0.000 S 
ATOM     29  C   UNL     1      48.863   6.329  19.393  0.00  0.00    +0.000 A 
ATOM     30  N   UNL     1      48.828   5.498  20.469  0.00  0.00    +0.000 NA
ATOM     31  C   UNL     1      48.907   4.241  20.176  0.00  0.00    +0.000 A 
ATOM     32  N   UNL     1      49.010   3.740  18.904  0.00  0.00    +0.000 N 
ATOM     33  C   UNL     1      49.014   4.542  17.787  0.00  0.00    +0.000 A 
ATOM     34  O   UNL     1      49.055   4.062  16.658  0.00  0.00    +0.000 OA
ATOM     35  C   UNL     1      48.947   5.964  18.061  0.00  0.00    +0.000 A 
ATOM     36  H   UNL     1      49.053   2.748  18.739  0.00  0.00    +0.000 HD
ENDBRANCH  23  26
ENDBRANCH  21  22
ENDBRANCH   4  21
TORSDOF 8
ENDMDL
MODEL 4
REMARK VINA RESULT:    -8.017      1.430      1.957
REMARK INTER + INTRA:         -12.424
REMARK INTER:                 -11.445
REMARK INTRA:                  -0.980
REMARK UNBOUND:                -0.893
REMARK  Name = 
REMARK  8 active torsions:
REMARK  status: ('A' for Active; 'I' for Inactive)
REMARK    1  A    between atoms: N_1  and  C_2
REMARK    2  A    between atoms: C_2  and  C_3
REMARK    3  A    between atoms: C_6  and  C_7
REMARK    4  A    between atoms: N_9  and  C_10
REMARK    5  A    between atoms: C_10  and  C_11
REMARK    6  A    between atoms: C_14  and  C_15
REMARK    7  A    between atoms: C_15  and  N_16
REMARK    8  A    between atoms: C_17  and  C_19
REMARK                            x       y       z     vdW  Elec       q    Type
REMARK                         _______ _______ _______ _____ _____    ______ ____
ROOT
ATOM      1  C   UNL     1      45.933   5.690  12.448  0.00  0.00    +0.000 A 
ATOM      2  C   UNL     1      46.157   6.929  11.831  0.00  0.00    +0.000 A 
ATOM      3  C   UNL     1      47.228   7.742  12.223  0.00  0.00    +0.000 A 
ATOM      4  C   UNL     1      48.108   7.329  13.231  0.00  0.00    +0.000 A 
ATOM      5  C   UNL     1      47.860   6.109  13.876  0.00  0.00    +0.000 A 
ATOM      6  C   UNL     1      46.793   5.293  13.481  0.00  0.00    +0.000 A 
ENDROOT
BRANCH   1   7
ATOM      7  C   UNL     1      44.810   4.788  11.998  0.00  0.00    +0.000 C 
BRANCH   7  10
ATOM      8  C   UNL     1      44.372   3.169  10.203  0.00  0.00    +0.000 C 
ATOM      9  O   UNL     1      43.603   2.531  10.915  0.00  0.00    +0.000 OA
ATOM     10  N   UNL     1      45.010   4.309  10.646  0.00  0.00    +0.000 N 
ATOM     11  H   UNL     1      45.769   4.702  10.106  0.00  0.00    +0.000 HD
BRANCH   8  15
ATOM     12  C   UNL     1      46.409   2.063   7.244  0.00  0.00    +0.000 C 
ATOM     13  C   UNL     1      46.442   3.589   7.253  0.00  0.00    +0.000 C 
ATOM     14  C   UNL     1      45.130   4.016   7.906  0.00  0.00    +0.000 C 
ATOM     15  C   UNL     1      44.638   2.823   8.737  0.00  0.00    +0.000 C 
ATOM     16  C   UNL     1      45.705   1.731   8.561  0.00  0.00    +0.000 C 
BRANCH  12  17
ATOM     17  C   UNL     1      47.793   1.413   7.142  0.00  0.00    +0.000 C 
BRANCH  17  18
ATOM     18  N   UNL     1      48.458   1.752   5.887  0.00  0.00    +0.000 NA
ATOM     19  H   UNL     1      47.752   1.922   5.170  0.00  0.00    +0.000 HD
ATOM     20  H   UNL     1      48.999   0.954   5.559  0.00  0.00    +0.000 HD
ENDBRANCH  17  18
ENDBRANCH  12  17
ENDBRANCH   8  15
ENDBRANCH   7  10
ENDBRANCH   1   7
BRANCH   4  21
ATOM     21  C   UNL     1      49.288   8.179  13.639  0.00  0.00    +0.000 C 
BRANCH  21  22
ATOM     22  N   UNL     1      50.302   7.400  14.300  0.00  0.00    +0.000 N 
ATOM     23  C   UNL     1      50.692   7.671  15.588  0.00  0.00    +0.000 C 
ATOM     24  O   UNL     1      50.179   8.563  16.253  0.00  0.00    +0.000 OA
ATOM     25  H   UNL     1      50.906   6.839  13.706  0.00  0.00    +0.000 HD
BRANCH  23  26
ATOM     26  C   UNL     1      51.722   6.785  16.154  0.00  0.00    +0.000 A 
ATOM     27  C   UNL     1      53.064   7.034  15.899  0.00  0.00    +0.000 A 
ATOM     28  S   UNL     1      54.121   5.941  16.675  0.00  0.00    +0.000 S 
ATOM     29  C   UNL     1      52.821   5.062  17.331  0.00  0.00    +0.000 A 
ATOM     30  N   UNL     1      53.035   3.958  18.095  0.00  0.00    +0.000 NA
ATOM     31  C   UNL     1      51.957   3.376  18.508  0.00  0.00    +0.000 A 
ATOM     32  N   UNL     1      50.683   3.804  18.232  0.00  0.00    +0.000 N 
ATOM     33  C   UNL     1      50.422   4.934  17.493  0.00  0.00    +0.000 A 
ATOM     34  O   UNL     1      49.273   5.321  17.307  0.00  0.00    +0.000 OA
ATOM     35  C   UNL     1      51.599   5.614  16.989  0.00  0.00    +0.000 A 
ATOM     36  H   UNL     1      49.882   3.315  18.597  0.00  0.00    +0.000 HD
ENDBRANCH  23  26
ENDBRANCH  21  22
ENDBRANCH   4  21
TORSDOF 8
ENDMDL
MODEL 5
REMARK VINA RESULT:    -7.716      1.845      2.418
REMARK INTER + INTRA:         -11.992
REMARK INTER:                 -10.942
REMARK INTRA:                  -1.050
REMARK UNBOUND:                -0.893
REMARK  Name = 
REMARK  8 active torsions:
REMARK  status: ('A' for Active; 'I' for Inactive)
REMARK    1  A    between atoms: N_1  and  C_2
REMARK    2  A    between atoms: C_2  and  C_3
REMARK    3  A    between atoms: C_6  and  C_7
REMARK    4  A    between atoms: N_9  and  C_10
REMARK    5  A    between atoms: C_10  and  C_11
REMARK    6  A    between atoms: C_14  and  C_15
REMARK    7  A    between atoms: C_15  and  N_16
REMARK    8  A    between atoms: C_17  and  C_19
REMARK                            x       y       z     vdW  Elec       q    Type
REMARK                         _______ _______ _______ _____ _____    ______ ____
ROOT
ATOM      1  C   UNL     1      45.370   5.551  12.518  0.00  0.00    +0.000 A 
ATOM      2  C   UNL     1      46.337   4.907  13.302  0.00  0.00    +0.000 A 
ATOM      3  C   UNL     1      47.371   5.634  13.907  0.00  0.00    +0.000 A 
ATOM      4  C   UNL     1      47.454   7.024  13.751  0.00  0.00    +0.000 A 
ATOM      5  C   UNL     1      46.510   7.662  12.934  0.00  0.00    +0.000 A 
ATOM      6  C   UNL     1      45.474   6.937  12.335  0.00  0.00    +0.000 A 
ENDROOT
BRANCH   1   7
ATOM      7  C   UNL     1      44.226   4.781  11.904  0.00  0.00    +0.000 C 
BRANCH   7  10
ATOM      8  C   UNL     1      44.213   3.056  10.156  0.00  0.00    +0.000 C 
ATOM      9  O   UNL     1      43.646   2.258  10.896  0.00  0.00    +0.000 OA
ATOM     10  N   UNL     1      44.533   4.336  10.561  0.00  0.00    +0.000 N 
ATOM     11  H   UNL     1      45.157   4.899  10.000  0.00  0.00    +0.000 HD
BRANCH   8  15
ATOM     12  C   UNL     1      46.411   2.142   7.248  0.00  0.00    +0.000 C 
ATOM     13  C   UNL     1      46.336   3.666   7.278  0.00  0.00    +0.000 C 
ATOM     14  C   UNL     1      44.978   3.990   7.895  0.00  0.00    +0.000 C 
ATOM     15  C   UNL     1      44.547   2.752   8.695  0.00  0.00    +0.000 C 
ATOM     16  C   UNL     1      45.693   1.741   8.538  0.00  0.00    +0.000 C 
BRANCH  12  17
ATOM     17  C   UNL     1      47.840   1.593   7.181  0.00  0.00    +0.000 C 
BRANCH  17  18
ATOM     18  N   UNL     1      48.402   1.711   5.838  0.00  0.00    +0.000 NA
ATOM     19  H   UNL     1      48.796   0.812   5.560  0.00  0.00    +0.000 HD
ATOM     20  H   UNL     1      49.183   2.364   5.848  0.00  0.00    +0.000 HD
ENDBRANCH  17  18
ENDBRANCH  12  17
ENDBRANCH   8  15
ENDBRANCH   7  10
ENDBRANCH   1   7
BRANCH   4  21
ATOM     21  C   UNL     1      48.542   7.824  14.427  0.00  0.00    +0.000 C 
BRANCH  21  22
ATOM     22  N   UNL     1      49.500   6.973  15.082  0.00  0.00    +0.000 N 
ATOM     23  C   UNL     1      49.653   6.978  16.446  0.00  0.00    +0.000 C 
ATOM     24  O   UNL     1      48.966   7.679  17.179  0.00  0.00    +0.000 OA
ATOM     25  H   UNL     1      50.237   6.584  14.501  0.00  0.00    +0.000 HD
BRANCH  23  26
ATOM     26  C   UNL     1      50.652   6.045  16.991  0.00  0.00    +0.000 A 
ATOM     27  C   UNL     1      50.258   5.048  17.872  0.00  0.00    +0.000 A 
ATOM     28  S   UNL     1      51.534   4.025  18.363  0.00  0.00    +0.000 S 
ATOM     29  C   UNL     1      52.668   4.915  17.461  0.00  0.00    +0.000 A 
ATOM     30  N   UNL     1      53.986   4.580  17.465  0.00  0.00    +0.000 NA
ATOM     31  C   UNL     1      54.737   5.356  16.754  0.00  0.00    +0.000 A 
ATOM     32  N   UNL     1      54.287   6.432  16.032  0.00  0.00    +0.000 N 
ATOM     33  C   UNL     1      52.960   6.786  15.973  0.00  0.00    +0.000 A 
ATOM     34  O   UNL     1      52.581   7.722  15.277  0.00  0.00    +0.000 OA
ATOM     35  C   UNL     1      52.076   5.958  16.770  0.00  0.00    +0.000 A 
ATOM     36  H   UNL     1      54.922   6.990  15.484  0.00  0.00    +0.000 HD
ENDBRANCH  23  26
ENDBRANCH  21  22
ENDBRANCH   4  21
TORSDOF 8
ENDMDL
MODEL 6
REMARK VINA RESULT:    -7.534      4.167      5.003
REMARK INTER + INTRA:         -11.730
REMARK INTER:                 -10.475
REMARK INTRA:                  -1.255
REMARK UNBOUND:                -0.893
REMARK  Name = 
REMARK  8 active torsions:
REMARK  status: ('A' for Active; 'I' for Inactive)
REMARK    1  A    between atoms: N_1  and  C_2
REMARK    2  A    between atoms: C_2  and  C_3
REMARK    3  A    between atoms: C_6  and  C_7
REMARK    4  A    between atoms: N_9  and  C_10
REMARK    5  A    between atoms: C_10  and  C_11
REMARK    6  A    between atoms: C_14  and  C_15
REMARK    7  A    between atoms: C_15  and  N_16
REMARK    8  A    between atoms: C_17  and  C_19
REMARK                            x       y       z     vdW  Elec       q    Type
REMARK                         _______ _______ _______ _____ _____    ______ ____
ROOT
ATOM      1  C   UNL     1      46.167   5.426  12.696  0.00  0.00    +0.000 A 
ATOM      2  C   UNL     1      47.009   5.399  13.817  0.00  0.00    +0.000 A 
ATOM      3  C   UNL     1      47.769   6.522  14.169  0.00  0.00    +0.000 A 
ATOM      4  C   UNL     1      47.695   7.701  13.416  0.00  0.00    +0.000 A 
ATOM      5  C   UNL     1      46.884   7.713  12.272  0.00  0.00    +0.000 A 
ATOM      6  C   UNL     1      46.120   6.594  11.924  0.00  0.00    +0.000 A 
ENDROOT
BRANCH   1   7
ATOM      7  C   UNL     1      45.308   4.237  12.340  0.00  0.00    +0.000 C 
BRANCH   7  10
ATOM      8  C   UNL     1      44.457   3.118  10.325  0.00  0.00    +0.000 C 
ATOM      9  O   UNL     1      43.461   2.721  10.922  0.00  0.00    +0.000 OA
ATOM     10  N   UNL     1      45.425   3.886  10.940  0.00  0.00    +0.000 N 
ATOM     11  H   UNL     1      46.312   4.039  10.479  0.00  0.00    +0.000 HD
BRANCH   8  15
ATOM     12  C   UNL     1      46.417   2.196   7.255  0.00  0.00    +0.000 C 
ATOM     13  C   UNL     1      46.488   3.716   7.379  0.00  0.00    +0.000 C 
ATOM     14  C   UNL     1      45.197   4.122   8.086  0.00  0.00    +0.000 C 
ATOM     15  C   UNL     1      44.690   2.880   8.833  0.00  0.00    +0.000 C 
ATOM     16  C   UNL     1      45.727   1.781   8.555  0.00  0.00    +0.000 C 
BRANCH  12  17
ATOM     17  C   UNL     1      47.783   1.524   7.079  0.00  0.00    +0.000 C 
BRANCH  17  18
ATOM     18  N   UNL     1      48.384   1.850   5.788  0.00  0.00    +0.000 NA
ATOM     19  H   UNL     1      47.644   1.978   5.097  0.00  0.00    +0.000 HD
ATOM     20  H   UNL     1      48.938   1.062   5.457  0.00  0.00    +0.000 HD
ENDBRANCH  17  18
ENDBRANCH  12  17
ENDBRANCH   8  15
ENDBRANCH   7  10
ENDBRANCH   1   7
BRANCH   4  21
ATOM     21  C   UNL     1      48.482   8.930  13.805  0.00  0.00    +0.000 C 
BRANCH  21  22
ATOM     22  N   UNL     1      49.762   8.973  13.148  0.00  0.00    +0.000 N 
ATOM     23  C   UNL     1      50.909   8.562  13.779  0.00  0.00    +0.000 C 
ATOM     24  O   UNL     1      50.904   8.108  14.917  0.00  0.00    +0.000 OA
ATOM     25  H   UNL     1      49.832   9.565  12.326  0.00  0.00    +0.000 HD
BRANCH  23  26
ATOM     26  C   UNL     1      52.147   8.637  12.987  0.00  0.00    +0.000 A 
ATOM     27  C   UNL     1      53.283   9.220  13.532  0.00  0.00    +0.000 A 
ATOM     28  S   UNL     1      54.640   9.175  12.498  0.00  0.00    +0.000 S 
ATOM     29  C   UNL     1      53.742   8.427  11.262  0.00  0.00    +0.000 A 
ATOM     30  N   UNL     1      54.311   8.128  10.063  0.00  0.00    +0.000 NA
ATOM     31  C   UNL     1      53.506   7.583   9.211  0.00  0.00    +0.000 A 
ATOM     32  N   UNL     1      52.186   7.303   9.451  0.00  0.00    +0.000 N 
ATOM     33  C   UNL     1      51.579   7.557  10.658  0.00  0.00    +0.000 A 
ATOM     34  O   UNL     1      50.409   7.247  10.861  0.00  0.00    +0.000 OA
ATOM     35  C   UNL     1      52.434   8.187  11.645  0.00  0.00    +0.000 A 
ATOM     36  H   UNL     1      51.613   6.862   8.749  0.00  0.00    +0.000 HD
ENDBRANCH  23  26
ENDBRANCH  21  22
ENDBRANCH   4  21
TORSDOF 8
ENDMDL
MODEL 7
REMARK VINA RESULT:    -7.073      4.855      6.406
REMARK INTER + INTRA:         -11.067
REMARK INTER:                 -10.072
REMARK INTRA:                  -0.995
REMARK UNBOUND:                -0.893
REMARK  Name = 
REMARK  8 active torsions:
REMARK  status: ('A' for Active; 'I' for Inactive)
REMARK    1  A    between atoms: N_1  and  C_2
REMARK    2  A    between atoms: C_2  and  C_3
REMARK    3  A    between atoms: C_6  and  C_7
REMARK    4  A    between atoms: N_9  and  C_10
REMARK    5  A    between atoms: C_10  and  C_11
REMARK    6  A    between atoms: C_14  and  C_15
REMARK    7  A    between atoms: C_15  and  N_16
REMARK    8  A    between atoms: C_17  and  C_19
REMARK                            x       y       z     vdW  Elec       q    Type
REMARK                         _______ _______ _______ _____ _____    ______ ____
ROOT
ATOM      1  C   UNL     1      45.743   6.244  12.374  0.00  0.00    +0.000 A 
ATOM      2  C   UNL     1      46.042   7.537  11.920  0.00  0.00    +0.000 A 
ATOM      3  C   UNL     1      47.246   8.160  12.273  0.00  0.00    +0.000 A 
ATOM      4  C   UNL     1      48.184   7.500  13.077  0.00  0.00    +0.000 A 
ATOM      5  C   UNL     1      47.866   6.224  13.564  0.00  0.00    +0.000 A 
ATOM      6  C   UNL     1      46.666   5.599  13.207  0.00  0.00    +0.000 A 
ENDROOT
BRANCH   1   7
ATOM      7  C   UNL     1      44.470   5.549  11.958  0.00  0.00    +0.000 C 
BRANCH   7  10
ATOM      8  C   UNL     1      44.893   3.666  10.437  0.00  0.00    +0.000 C 
ATOM      9  O   UNL     1      45.090   2.903  11.378  0.00  0.00    +0.000 OA
ATOM     10  N   UNL     1      44.568   4.994  10.624  0.00  0.00    +0.000 N 
ATOM     11  H   UNL     1      44.594   5.632   9.840  0.00  0.00    +0.000 HD
BRANCH   8  15
ATOM     12  C   UNL     1      46.313   2.105   7.328  0.00  0.00    +0.000 C 
ATOM     13  C   UNL     1      46.588   3.603   7.230  0.00  0.00    +0.000 C 
ATOM     14  C   UNL     1      45.459   4.271   8.012  0.00  0.00    +0.000 C 
ATOM     15  C   UNL     1      44.901   3.215   8.976  0.00  0.00    +0.000 C 
ATOM     16  C   UNL     1      45.749   1.955   8.742  0.00  0.00    +0.000 C 
BRANCH  12  17
ATOM     17  C   UNL     1      47.551   1.232   7.098  0.00  0.00    +0.000 C 
BRANCH  17  18
ATOM     18  N   UNL     1      48.388   1.753   6.021  0.00  0.00    +0.000 NA
ATOM     19  H   UNL     1      49.349   1.443   6.163  0.00  0.00    +0.000 HD
ATOM     20  H   UNL     1      48.415   2.770   6.068  0.00  0.00    +0.000 HD
ENDBRANCH  17  18
ENDBRANCH  12  17
ENDBRANCH   8  15
ENDBRANCH   7  10
ENDBRANCH   1   7
BRANCH   4  21
ATOM     21  C   UNL     1      49.502   8.146  13.435  0.00  0.00    +0.000 C 
BRANCH  21  22
ATOM     22  N   UNL     1      50.118   8.767  12.292  0.00  0.00    +0.000 N 
ATOM     23  C   UNL     1      51.482   8.824  12.152  0.00  0.00    +0.000 C 
ATOM     24  O   UNL     1      52.245   8.324  12.969  0.00  0.00    +0.000 OA
ATOM     25  H   UNL     1      49.536   9.395  11.746  0.00  0.00    +0.000 HD
BRANCH  23  26
ATOM     26  C   UNL     1      51.982   9.468  10.927  0.00  0.00    +0.000 A 
ATOM     27  C   UNL     1      52.016  10.852  10.837  0.00  0.00    +0.000 A 
ATOM     28  S   UNL     1      52.673  11.427   9.370  0.00  0.00    +0.000 S 
ATOM     29  C   UNL     1      52.879   9.846   8.778  0.00  0.00    +0.000 A 
ATOM     30  N   UNL     1      53.383   9.621   7.535  0.00  0.00    +0.000 NA
ATOM     31  C   UNL     1      53.464   8.373   7.208  0.00  0.00    +0.000 A 
ATOM     32  N   UNL     1      53.093   7.328   8.015  0.00  0.00    +0.000 N 
ATOM     33  C   UNL     1      52.611   7.508   9.291  0.00  0.00    +0.000 A 
ATOM     34  O   UNL     1      52.337   6.552  10.008  0.00  0.00    +0.000 OA
ATOM     35  C   UNL     1      52.483   8.893   9.700  0.00  0.00    +0.000 A 
ATOM     36  H   UNL     1      53.195   6.374   7.708  0.00  0.00    +0.000 HD
ENDBRANCH  23  26
ENDBRANCH  21  22
ENDBRANCH   4  21
TORSDOF 8
ENDMDL
MODEL 8
REMARK VINA RESULT:    -7.017      3.212      9.529
REMARK INTER + INTRA:         -10.987
REMARK INTER:                  -9.970
REMARK INTRA:                  -1.016
REMARK UNBOUND:                -0.893
REMARK  Name = 
REMARK  8 active torsions:
REMARK  status: ('A' for Active; 'I' for Inactive)
REMARK    1  A    between atoms: N_1  and  C_2
REMARK    2  A    between atoms: C_2  and  C_3
REMARK    3  A    between atoms: C_6  and  C_7
REMARK    4  A    between atoms: N_9  and  C_10
REMARK    5  A    between atoms: C_10  and  C_11
REMARK    6  A    between atoms: C_14  and  C_15
REMARK    7  A    between atoms: C_15  and  N_16
REMARK    8  A    between atoms: C_17  and  C_19
REMARK                            x       y       z     vdW  Elec       q    Type
REMARK                         _______ _______ _______ _____ _____    ______ ____
ROOT
ATOM      1  C   UNL     1      50.414   7.433  15.043  0.00  0.00    +0.000 A 
ATOM      2  C   UNL     1      49.094   7.022  15.276  0.00  0.00    +0.000 A 
ATOM      3  C   UNL     1      48.115   7.158  14.283  0.00  0.00    +0.000 A 
ATOM      4  C   UNL     1      48.437   7.696  13.030  0.00  0.00    +0.000 A 
ATOM      5  C   UNL     1      49.747   8.144  12.813  0.00  0.00    +0.000 A 
ATOM      6  C   UNL     1      50.727   8.003  13.802  0.00  0.00    +0.000 A 
ENDROOT
BRANCH   1   7
ATOM      7  C   UNL     1      51.483   7.245  16.091  0.00  0.00    +0.000 C 
BRANCH   7  10
ATOM      8  C   UNL     1      52.430   5.333  17.310  0.00  0.00    +0.000 C 
ATOM      9  O   UNL     1      53.567   5.781  17.203  0.00  0.00    +0.000 OA
ATOM     10  N   UNL     1      51.329   5.992  16.802  0.00  0.00    +0.000 N 
ATOM     11  H   UNL     1      50.440   5.515  16.744  0.00  0.00    +0.000 HD
BRANCH   8  15
ATOM     12  C   UNL     1      52.459   1.645  18.030  0.00  0.00    +0.000 C 
ATOM     13  C   UNL     1      51.166   1.933  17.271  0.00  0.00    +0.000 C 
ATOM     14  C   UNL     1      50.807   3.374  17.621  0.00  0.00    +0.000 C 
ATOM     15  C   UNL     1      52.101   4.056  18.084  0.00  0.00    +0.000 C 
ATOM     16  C   UNL     1      53.196   2.984  17.965  0.00  0.00    +0.000 C 
BRANCH  12  17
ATOM     17  C   UNL     1      53.282   0.496  17.439  0.00  0.00    +0.000 C 
BRANCH  17  18
ATOM     18  N   UNL     1      53.313  -0.661  18.331  0.00  0.00    +0.000 NA
ATOM     19  H   UNL     1      54.038  -1.306  18.016  0.00  0.00    +0.000 HD
ATOM     20  H   UNL     1      52.436  -1.173  18.260  0.00  0.00    +0.000 HD
ENDBRANCH  17  18
ENDBRANCH  12  17
ENDBRANCH   8  15
ENDBRANCH   7  10
ENDBRANCH   1   7
BRANCH   4  21
ATOM     21  C   UNL     1      47.400   7.815  11.938  0.00  0.00    +0.000 C 
BRANCH  21  22
ATOM     22  N   UNL     1      46.722   6.566  11.710  0.00  0.00    +0.000 N 
ATOM     23  C   UNL     1      45.354   6.492  11.638  0.00  0.00    +0.000 C 
ATOM     24  O   UNL     1      44.639   7.484  11.730  0.00  0.00    +0.000 OA
ATOM     25  H   UNL     1      47.257   5.720  11.882  0.00  0.00    +0.000 HD
BRANCH  23  26
ATOM     26  C   UNL     1      44.788   5.159  11.380  0.00  0.00    +0.000 A 
ATOM     27  C   UNL     1      44.023   4.530  12.353  0.00  0.00    +0.000 A 
ATOM     28  S   UNL     1      43.405   3.016  11.866  0.00  0.00    +0.000 S 
ATOM     29  C   UNL     1      44.186   3.119  10.359  0.00  0.00    +0.000 A 
ATOM     30  N   UNL     1      44.091   2.113   9.449  0.00  0.00    +0.000 NA
ATOM     31  C   UNL     1      44.753   2.316   8.357  0.00  0.00    +0.000 A 
ATOM     32  N   UNL     1      45.496   3.437   8.090  0.00  0.00    +0.000 N 
ATOM     33  C   UNL     1      45.592   4.492   8.967  0.00  0.00    +0.000 A 
ATOM     34  O   UNL     1      46.222   5.504   8.679  0.00  0.00    +0.000 OA
ATOM     35  C   UNL     1      44.883   4.307  10.218  0.00  0.00    +0.000 A 
ATOM     36  H   UNL     1      45.978   3.543   7.212  0.00  0.00    +0.000 HD
ENDBRANCH  23  26
ENDBRANCH  21  22
ENDBRANCH   4  21
TORSDOF 8
ENDMDL
MODEL 9
REMARK VINA RESULT:    -6.983      4.032     10.069
REMARK INTER + INTRA:         -10.938
REMARK INTER:                  -9.882
REMARK INTRA:                  -1.056
REMARK UNBOUND:                -0.893
REMARK  Name = 
REMARK  8 active torsions:
REMARK  status: ('A' for Active; 'I' for Inactive)
REMARK    1  A    between atoms: N_1  and  C_2
REMARK    2  A    between atoms: C_2  and  C_3
REMARK    3  A    between atoms: C_6  and  C_7
REMARK    4  A    between atoms: N_9  and  C_10
REMARK    5  A    between atoms: C_10  and  C_11
REMARK    6  A    between atoms: C_14  and  C_15
REMARK    7  A    between atoms: C_15  and  N_16
REMARK    8  A    between atoms: C_17  and  C_19
REMARK                            x       y       z     vdW  Elec       q    Type
REMARK                         _______ _______ _______ _____ _____    ______ ____
ROOT
ATOM      1  C   UNL     1      51.311   4.737  17.910  0.00  0.00    +0.000 A 
ATOM      2  C   UNL     1      50.380   5.696  17.487  0.00  0.00    +0.000 A 
ATOM      3  C   UNL     1      49.111   5.312  17.034  0.00  0.00    +0.000 A 
ATOM      4  C   UNL     1      48.740   3.962  17.004  0.00  0.00    +0.000 A 
ATOM      5  C   UNL     1      49.686   3.001  17.389  0.00  0.00    +0.000 A 
ATOM      6  C   UNL     1      50.951   3.384  17.847  0.00  0.00    +0.000 A 
ENDROOT
BRANCH   1   7
ATOM      7  C   UNL     1      52.661   5.146  18.445  0.00  0.00    +0.000 C 
BRANCH   7  10
ATOM      8  C   UNL     1      54.569   3.820  17.649  0.00  0.00    +0.000 C 
ATOM      9  O   UNL     1      54.761   4.589  16.713  0.00  0.00    +0.000 OA
ATOM     10  N   UNL     1      53.559   4.017  18.569  0.00  0.00    +0.000 N 
ATOM     11  H   UNL     1      53.313   3.277  19.211  0.00  0.00    +0.000 HD
BRANCH   8  15
ATOM     12  C   UNL     1      55.371   0.236  18.446  0.00  0.00    +0.000 C 
ATOM     13  C   UNL     1      55.341   0.984  19.776  0.00  0.00    +0.000 C 
ATOM     14  C   UNL     1      55.748   2.417  19.441  0.00  0.00    +0.000 C 
ATOM     15  C   UNL     1      55.470   2.619  17.945  0.00  0.00    +0.000 C 
ATOM     16  C   UNL     1      54.878   1.289  17.453  0.00  0.00    +0.000 C 
BRANCH  12  17
ATOM     17  C   UNL     1      54.510  -1.032  18.428  0.00  0.00    +0.000 C 
BRANCH  17  18
ATOM     18  N   UNL     1      53.085  -0.717  18.469  0.00  0.00    +0.000 NA
ATOM     19  H   UNL     1      52.549  -1.563  18.271  0.00  0.00    +0.000 HD
ATOM     20  H   UNL     1      52.855  -0.062  17.723  0.00  0.00    +0.000 HD
ENDBRANCH  17  18
ENDBRANCH  12  17
ENDBRANCH   8  15
ENDBRANCH   7  10
ENDBRANCH   1   7
BRANCH   4  21
ATOM     21  C   UNL     1      47.363   3.537  16.552  0.00  0.00    +0.000 C 
BRANCH  21  22
ATOM     22  N   UNL     1      46.791   4.482  15.629  0.00  0.00    +0.000 N 
ATOM     23  C   UNL     1      46.769   4.244  14.277  0.00  0.00    +0.000 C 
ATOM     24  O   UNL     1      47.200   3.206  13.788  0.00  0.00    +0.000 OA
ATOM     25  H   UNL     1      46.665   5.431  15.968  0.00  0.00    +0.000 HD
BRANCH  23  26
ATOM     26  C   UNL     1      46.137   5.280  13.446  0.00  0.00    +0.000 A 
ATOM     27  C   UNL     1      46.813   6.463  13.182  0.00  0.00    +0.000 A 
ATOM     28  S   UNL     1      45.956   7.529  12.161  0.00  0.00    +0.000 S 
ATOM     29  C   UNL     1      44.625   6.473  12.084  0.00  0.00    +0.000 A 
ATOM     30  N   UNL     1      43.509   6.800  11.378  0.00  0.00    +0.000 NA
ATOM     31  C   UNL     1      42.569   5.915  11.425  0.00  0.00    +0.000 A 
ATOM     32  N   UNL     1      42.645   4.728  12.108  0.00  0.00    +0.000 N 
ATOM     33  C   UNL     1      43.766   4.342  12.805  0.00  0.00    +0.000 A 
ATOM     34  O   UNL     1      43.824   3.251  13.363  0.00  0.00    +0.000 OA
ATOM     35  C   UNL     1      44.845   5.310  12.801  0.00  0.00    +0.000 A 
ATOM     36  H   UNL     1      41.882   4.071  12.093  0.00  0.00    +0.000 HD
ENDBRANCH  23  26
ENDBRANCH  21  22
ENDBRANCH   4  21
TORSDOF 8
ENDMDL
