MODEL 1
REMARK VINA RESULT:    -8.897      0.000      0.000
REMARK INTER + INTRA:         -13.166
REMARK INTER:                 -12.537
REMARK INTRA:                  -0.628
REMARK UNBOUND:                -0.628
REMARK  Name = 
REMARK  9 active torsions:
REMARK  status: ('A' for Active; 'I' for Inactive)
REMARK    1  A    between atoms: C_1  and  O_2
REMARK    2  A    between atoms: O_2  and  C_3
REMARK    3  A    between atoms: C_6  and  C_7
REMARK    4  A    between atoms: C_7  and  C_8
REMARK    5  A    between atoms: C_8  and  N_9
REMARK    6  A    between atoms: C_13  and  C_14
REMARK    7  A    between atoms: C_20  and  O_21
REMARK    8  A    between atoms: O_21  and  C_22
REMARK    9  A    between atoms: N_24  and  C_25
REMARK                            x       y       z     vdW  Elec       q    Type
REMARK                         _______ _______ _______ _____ _____    ______ ____
ROOT
ATOM      1  C   UNL     1      43.278   4.880  12.419  0.00  0.00    +0.000 C 
ENDROOT
BRANCH   1   5
ATOM      2  C   UNL     1      47.424   5.947  13.309  0.00  0.00    +0.000 A 
ATOM      3  C   UNL     1      46.599   6.798  12.555  0.00  0.00    +0.000 A 
ATOM      4  C   UNL     1      45.277   6.468  12.276  0.00  0.00    +0.000 A 
ATOM      5  C   UNL     1      44.719   5.270  12.719  0.00  0.00    +0.000 A 
ATOM      6  C   UNL     1      45.539   4.410  13.463  0.00  0.00    +0.000 A 
ATOM      7  C   UNL     1      46.889   4.728  13.744  0.00  0.00    +0.000 A 
BRANCH   2   9
ATOM      8  C   UNL     1      49.221   7.463  12.993  0.00  0.00    +0.000 C 
ATOM      9  O   UNL     1      48.715   6.280  13.615  0.00  0.00    +0.000 OA
ENDBRANCH   2   9
BRANCH   7  10
ATOM     10  O   UNL     1      47.496   3.772  14.525  0.00  0.00    +0.000 OA
BRANCH  10  11
ATOM     11  C   UNL     1      47.414   3.817  15.968  0.00  0.00    +0.000 C 
ATOM     12  C   UNL     1      48.200   4.905  16.731  0.00  0.00    +0.000 C 
ATOM     13  N   UNL     1      48.987   3.883  17.441  0.00  0.00    +0.000 NA
ATOM     14  C   UNL     1      48.604   3.805  18.849  0.00  0.00    +0.000 C 
ATOM     15  C   UNL     1      48.347   2.805  16.675  0.00  0.00    +0.000 C 
ENDBRANCH  10  11
ENDBRANCH   7  10
ENDBRANCH   1   5
BRANCH   1  16
ATOM     16  C   UNL     1      43.104   4.290  11.016  0.00  0.00    +0.000 C 
BRANCH  16  17
ATOM     17  N   UNL     1      43.904   4.949   9.981  0.00  0.00    +0.000 N 
ATOM     18  C   UNL     1      44.699   3.991   9.303  0.00  0.00    +0.000 A 
ATOM     19  C   UNL     1      45.536   4.423   8.278  0.00  0.00    +0.000 A 
ATOM     20  C   UNL     1      46.324   3.494   7.595  0.00  0.00    +0.000 A 
ATOM     21  C   UNL     1      46.260   2.146   7.953  0.00  0.00    +0.000 A 
ATOM     22  C   UNL     1      45.406   1.796   8.984  0.00  0.00    +0.000 A 
ATOM     23  N   UNL     1      44.626   2.685   9.642  0.00  0.00    +0.000 NA
ATOM     24  H   UNL     1      44.520   5.659  10.366  0.00  0.00    +0.000 HD
BRANCH  21  25
ATOM     25  C   UNL     1      47.069   1.088   7.318  0.00  0.00    +0.000 C 
ATOM     26  N   UNL     1      46.807  -0.205   7.682  0.00  0.00    +0.000 N 
ATOM     27  O   UNL     1      47.954   1.352   6.519  0.00  0.00    +0.000 OA
ATOM     28  H   UNL     1      46.257  -0.445   8.494  0.00  0.00    +0.000 HD
ATOM     29  H   UNL     1      47.430  -0.909   7.311  0.00  0.00    +0.000 HD
ENDBRANCH  21  25
ENDBRANCH  16  17
ENDBRANCH   1  16
TORSDOF 7
ENDMDL
MODEL 2
REMARK VINA RESULT:    -7.354      2.151      3.767
REMARK INTER + INTRA:         -10.991
REMARK INTER:                 -10.367
REMARK INTRA:                  -0.625
REMARK UNBOUND:                -0.628
REMARK  Name = 
REMARK  9 active torsions:
REMARK  status: ('A' for Active; 'I' for Inactive)
REMARK    1  A    between atoms: C_1  and  O_2
REMARK    2  A    between atoms: O_2  and  C_3
REMARK    3  A    between atoms: C_6  and  C_7
REMARK    4  A    between atoms: C_7  and  C_8
REMARK    5  A    between atoms: C_8  and  N_9
REMARK    6  A    between atoms: C_13  and  C_14
REMARK    7  A    between atoms: C_20  and  O_21
REMARK    8  A    between atoms: O_21  and  C_22
REMARK    9  A    between atoms: N_24  and  C_25
REMARK                            x       y       z     vdW  Elec       q    Type
REMARK                         _______ _______ _______ _____ _____    ______ ____
ROOT
ATOM      1  C   UNL     1      43.576   6.002  11.759  0.00  0.00    +0.000 C 
ENDROOT
BRANCH   1   5
ATOM      2  C   UNL     1      47.134   5.331  14.211  0.00  0.00    +0.000 A 
ATOM      3  C   UNL     1      46.129   4.355  14.103  0.00  0.00    +0.000 A 
ATOM      4  C   UNL     1      45.000   4.559  13.318  0.00  0.00    +0.000 A 
ATOM      5  C   UNL     1      44.808   5.749  12.617  0.00  0.00    +0.000 A 
ATOM      6  C   UNL     1      45.801   6.732  12.728  0.00  0.00    +0.000 A 
ATOM      7  C   UNL     1      46.949   6.542  13.532  0.00  0.00    +0.000 A 
BRANCH   2   9
ATOM      8  C   UNL     1      48.242   5.645  16.284  0.00  0.00    +0.000 C 
ATOM      9  O   UNL     1      48.264   5.124  14.954  0.00  0.00    +0.000 OA
ENDBRANCH   2   9
BRANCH   7  10
ATOM     10  O   UNL     1      47.816   7.609  13.460  0.00  0.00    +0.000 OA
BRANCH  10  11
ATOM     11  C   UNL     1      49.093   7.497  12.791  0.00  0.00    +0.000 C 
ATOM     12  C   UNL     1      50.243   8.439  13.209  0.00  0.00    +0.000 C 
ATOM     13  N   UNL     1      50.302   9.018  11.855  0.00  0.00    +0.000 NA
ATOM     14  C   UNL     1      51.507   8.589  11.149  0.00  0.00    +0.000 C 
ATOM     15  C   UNL     1      49.144   8.222  11.425  0.00  0.00    +0.000 C 
ENDBRANCH  10  11
ENDBRANCH   7  10
ENDBRANCH   1   5
BRANCH   1  16
ATOM     16  C   UNL     1      43.679   5.359  10.372  0.00  0.00    +0.000 C 
BRANCH  16  17
ATOM     17  N   UNL     1      43.808   3.900  10.392  0.00  0.00    +0.000 N 
ATOM     18  C   UNL     1      44.729   3.484   9.398  0.00  0.00    +0.000 A 
ATOM     19  C   UNL     1      44.990   2.123   9.256  0.00  0.00    +0.000 A 
ATOM     20  C   UNL     1      45.898   1.694   8.286  0.00  0.00    +0.000 A 
ATOM     21  C   UNL     1      46.528   2.637   7.472  0.00  0.00    +0.000 A 
ATOM     22  C   UNL     1      46.215   3.970   7.672  0.00  0.00    +0.000 A 
ATOM     23  N   UNL     1      45.349   4.399   8.620  0.00  0.00    +0.000 NA
ATOM     24  H   UNL     1      42.922   3.434  10.219  0.00  0.00    +0.000 HD
BRANCH  21  25
ATOM     25  C   UNL     1      47.481   2.291   6.399  0.00  0.00    +0.000 C 
ATOM     26  N   UNL     1      47.460   3.063   5.269  0.00  0.00    +0.000 N 
ATOM     27  O   UNL     1      48.240   1.340   6.500  0.00  0.00    +0.000 OA
ATOM     28  H   UNL     1      46.705   3.697   5.053  0.00  0.00    +0.000 HD
ATOM     29  H   UNL     1      48.050   2.757   4.507  0.00  0.00    +0.000 HD
ENDBRANCH  21  25
ENDBRANCH  16  17
ENDBRANCH   1  16
TORSDOF 7
ENDMDL
MODEL 3
REMARK VINA RESULT:    -7.346      2.367      7.764
REMARK INTER + INTRA:         -10.980
REMARK INTER:                 -10.216
REMARK INTRA:                  -0.765
REMARK UNBOUND:                -0.628
REMARK  Name = 
REMARK  9 active torsions:
REMARK  status: ('A' for Active; 'I' for Inactive)
REMARK    1  A    between atoms: C_1  and  O_2
REMARK    2  A    between atoms: O_2  and  C_3
REMARK    3  A    between atoms: C_6  and  C_7
REMARK    4  A    between atoms: C_7  and  C_8
REMARK    5  A    between atoms: C_8  and  N_9
REMARK    6  A    between atoms: C_13  and  C_14
REMARK    7  A    between atoms: C_20  and  O_21
REMARK    8  A    between atoms: O_21  and  C_22
REMARK    9  A    between atoms: N_24  and  C_25
REMARK                            x       y       z     vdW  Elec       q    Type
REMARK                         _______ _______ _______ _____ _____    ______ ____
ROOT
ATOM      1  C   UNL     1      46.990   7.767  12.122  0.00  0.00    +0.000 C 
ENDROOT
BRANCH   1   5
ATOM      2  C   UNL     1      43.887   4.766  11.427  0.00  0.00    +0.000 A 
ATOM      3  C   UNL     1      43.976   5.451  12.650  0.00  0.00    +0.000 A 
ATOM      4  C   UNL     1      44.956   6.412  12.874  0.00  0.00    +0.000 A 
ATOM      5  C   UNL     1      45.901   6.726  11.899  0.00  0.00    +0.000 A 
ATOM      6  C   UNL     1      45.825   6.039  10.679  0.00  0.00    +0.000 A 
ATOM      7  C   UNL     1      44.841   5.051  10.443  0.00  0.00    +0.000 A 
BRANCH   2   9
ATOM      8  C   UNL     1      43.208   2.497  11.560  0.00  0.00    +0.000 C 
ATOM      9  O   UNL     1      42.905   3.843  11.188  0.00  0.00    +0.000 OA
ENDBRANCH   2   9
BRANCH   7  10
ATOM     10  O   UNL     1      44.917   4.538   9.168  0.00  0.00    +0.000 OA
BRANCH  10  11
ATOM     11  C   UNL     1      46.012   3.683   8.765  0.00  0.00    +0.000 C 
ATOM     12  C   UNL     1      46.381   3.593   7.269  0.00  0.00    +0.000 C 
ATOM     13  N   UNL     1      46.084   2.150   7.251  0.00  0.00    +0.000 NA
ATOM     14  C   UNL     1      47.309   1.360   7.141  0.00  0.00    +0.000 C 
ATOM     15  C   UNL     1      45.622   2.190   8.645  0.00  0.00    +0.000 C 
ENDBRANCH  10  11
ENDBRANCH   7  10
ENDBRANCH   1   5
BRANCH   1  16
ATOM     16  C   UNL     1      48.340   7.142  12.488  0.00  0.00    +0.000 C 
BRANCH  16  17
ATOM     17  N   UNL     1      48.851   7.537  13.803  0.00  0.00    +0.000 N 
ATOM     18  C   UNL     1      48.497   6.561  14.770  0.00  0.00    +0.000 A 
ATOM     19  C   UNL     1      48.891   6.756  16.090  0.00  0.00    +0.000 A 
ATOM     20  C   UNL     1      48.555   5.805  17.056  0.00  0.00    +0.000 A 
ATOM     21  C   UNL     1      47.827   4.674  16.681  0.00  0.00    +0.000 A 
ATOM     22  C   UNL     1      47.470   4.554  15.350  0.00  0.00    +0.000 A 
ATOM     23  N   UNL     1      47.803   5.461  14.403  0.00  0.00    +0.000 NA
ATOM     24  H   UNL     1      48.481   8.433  14.105  0.00  0.00    +0.000 HD
BRANCH  21  25
ATOM     25  C   UNL     1      47.396   3.624  17.624  0.00  0.00    +0.000 C 
ATOM     26  N   UNL     1      48.145   3.455  18.758  0.00  0.00    +0.000 N 
ATOM     27  O   UNL     1      46.428   2.917  17.396  0.00  0.00    +0.000 OA
ATOM     28  H   UNL     1      49.067   3.850  18.869  0.00  0.00    +0.000 HD
ATOM     29  H   UNL     1      47.894   2.672  19.346  0.00  0.00    +0.000 HD
ENDBRANCH  21  25
ENDBRANCH  16  17
ENDBRANCH   1  16
TORSDOF 7
ENDMDL
MODEL 4
REMARK VINA RESULT:    -6.444      2.742      7.900
REMARK INTER + INTRA:          -9.709
REMARK INTER:                  -9.748
REMARK INTRA:                   0.039
REMARK UNBOUND:                -0.628
REMARK  Name = 
REMARK  9 active torsions:
REMARK  status: ('A' for Active; 'I' for Inactive)
REMARK    1  A    between atoms: C_1  and  O_2
REMARK    2  A    between atoms: O_2  and  C_3
REMARK    3  A    between atoms: C_6  and  C_7
REMARK    4  A    between atoms: C_7  and  C_8
REMARK    5  A    between atoms: C_8  and  N_9
REMARK    6  A    between atoms: C_13  and  C_14
REMARK    7  A    between atoms: C_20  and  O_21
REMARK    8  A    between atoms: O_21  and  C_22
REMARK    9  A    between atoms: N_24  and  C_25
REMARK                            x       y       z     vdW  Elec       q    Type
REMARK                         _______ _______ _______ _____ _____    ______ ____
ROOT
ATOM      1  C   UNL     1      47.258   3.787  15.098  0.00  0.00    +0.000 C 
ENDROOT
BRANCH   1   5
ATOM      2  C   UNL     1      45.892   6.872  12.316  0.00  0.00    +0.000 A 
ATOM      3  C   UNL     1      47.157   6.947  12.922  0.00  0.00    +0.000 A 
ATOM      4  C   UNL     1      47.600   5.965  13.801  0.00  0.00    +0.000 A 
ATOM      5  C   UNL     1      46.801   4.872  14.131  0.00  0.00    +0.000 A 
ATOM      6  C   UNL     1      45.533   4.795  13.538  0.00  0.00    +0.000 A 
ATOM      7  C   UNL     1      45.065   5.793  12.652  0.00  0.00    +0.000 A 
BRANCH   2   9
ATOM      8  C   UNL     1      45.029   9.057  11.987  0.00  0.00    +0.000 C 
ATOM      9  O   UNL     1      45.463   7.817  11.424  0.00  0.00    +0.000 OA
ENDBRANCH   2   9
BRANCH   7  10
ATOM     10  O   UNL     1      43.818   5.499  12.150  0.00  0.00    +0.000 OA
BRANCH  10  11
ATOM     11  C   UNL     1      43.657   4.681  10.968  0.00  0.00    +0.000 C 
ATOM     12  C   UNL     1      43.543   3.149  11.126  0.00  0.00    +0.000 C 
ATOM     13  N   UNL     1      44.764   2.945  10.326  0.00  0.00    +0.000 NA
ATOM     14  C   UNL     1      44.448   2.385   9.014  0.00  0.00    +0.000 C 
ATOM     15  C   UNL     1      44.984   4.395  10.225  0.00  0.00    +0.000 C 
ENDBRANCH  10  11
ENDBRANCH   7  10
ENDBRANCH   1   5
BRANCH   1  16
ATOM     16  C   UNL     1      47.187   4.233  16.563  0.00  0.00    +0.000 C 
BRANCH  16  17
ATOM     17  N   UNL     1      48.371   4.957  17.030  0.00  0.00    +0.000 N 
ATOM     18  C   UNL     1      49.447   4.053  17.216  0.00  0.00    +0.000 A 
ATOM     19  C   UNL     1      50.668   4.550  17.662  0.00  0.00    +0.000 A 
ATOM     20  C   UNL     1      51.741   3.675  17.847  0.00  0.00    +0.000 A 
ATOM     21  C   UNL     1      51.571   2.315  17.584  0.00  0.00    +0.000 A 
ATOM     22  C   UNL     1      50.326   1.898  17.147  0.00  0.00    +0.000 A 
ATOM     23  N   UNL     1      49.284   2.738  16.949  0.00  0.00    +0.000 NA
ATOM     24  H   UNL     1      48.205   5.439  17.909  0.00  0.00    +0.000 HD
BRANCH  21  25
ATOM     25  C   UNL     1      52.627   1.303  17.774  0.00  0.00    +0.000 C 
ATOM     26  N   UNL     1      52.250   0.092  18.289  0.00  0.00    +0.000 N 
ATOM     27  O   UNL     1      53.796   1.539  17.507  0.00  0.00    +0.000 OA
ATOM     28  H   UNL     1      51.356  -0.060  18.732  0.00  0.00    +0.000 HD
ATOM     29  H   UNL     1      52.997  -0.556  18.501  0.00  0.00    +0.000 HD
ENDBRANCH  21  25
ENDBRANCH  16  17
ENDBRANCH   1  16
TORSDOF 7
ENDMDL
MODEL 5
REMARK VINA RESULT:    -6.289      1.740      2.368
REMARK INTER + INTRA:          -9.491
REMARK INTER:                  -8.734
REMARK INTRA:                  -0.758
REMARK UNBOUND:                -0.628
REMARK  Name = 
REMARK  9 active torsions:
REMARK  status: ('A' for Active; 'I' for Inactive)
REMARK    1  A    between atoms: C_1  and  O_2
REMARK    2  A    between atoms: O_2  and  C_3
REMARK    3  A    between atoms: C_6  and  C_7
REMARK    4  A    between atoms: C_7  and  C_8
REMARK    5  A    between atoms: C_8  and  N_9
REMARK    6  A    between atoms: C_13  and  C_14
REMARK    7  A    between atoms: C_20  and  O_21
REMARK    8  A    between atoms: O_21  and  C_22
REMARK    9  A    between atoms: N_24  and  C_25
REMARK                            x       y       z     vdW  Elec       q    Type
REMARK                         _______ _______ _______ _____ _____    ______ ____
ROOT
ATOM      1  C   UNL     1      44.989   6.930  12.683  0.00  0.00    +0.000 C 
ENDROOT
BRANCH   1   5
ATOM      2  C   UNL     1      49.277   7.768  12.872  0.00  0.00    +0.000 A 
ATOM      3  C   UNL     1      48.467   8.340  11.877  0.00  0.00    +0.000 A 
ATOM      4  C   UNL     1      47.101   8.084  11.816  0.00  0.00    +0.000 A 
ATOM      5  C   UNL     1      46.481   7.235  12.733  0.00  0.00    +0.000 A 
ATOM      6  C   UNL     1      47.285   6.653  13.722  0.00  0.00    +0.000 A 
ATOM      7  C   UNL     1      48.676   6.896  13.787  0.00  0.00    +0.000 A 
BRANCH   2   9
ATOM      8  C   UNL     1      50.970   9.195  13.724  0.00  0.00    +0.000 C 
ATOM      9  O   UNL     1      50.615   8.042  12.957  0.00  0.00    +0.000 OA
ENDBRANCH   2   9
BRANCH   7  10
ATOM     10  O   UNL     1      49.264   6.265  14.860  0.00  0.00    +0.000 OA
BRANCH  10  11
ATOM     11  C   UNL     1      48.577   6.141  16.128  0.00  0.00    +0.000 C 
ATOM     12  C   UNL     1      48.921   7.126  17.266  0.00  0.00    +0.000 C 
ATOM     13  N   UNL     1      49.376   6.021  18.127  0.00  0.00    +0.000 NA
ATOM     14  C   UNL     1      48.438   5.782  19.221  0.00  0.00    +0.000 C 
ATOM     15  C   UNL     1      49.166   5.045  17.048  0.00  0.00    +0.000 C 
ENDBRANCH  10  11
ENDBRANCH   7  10
ENDBRANCH   1   5
BRANCH   1  16
ATOM     16  C   UNL     1      44.551   6.336  11.341  0.00  0.00    +0.000 C 
BRANCH  16  17
ATOM     17  N   UNL     1      44.280   4.897  11.378  0.00  0.00    +0.000 N 
ATOM     18  C   UNL     1      44.854   4.269  10.244  0.00  0.00    +0.000 A 
ATOM     19  C   UNL     1      44.704   2.893  10.095  0.00  0.00    +0.000 A 
ATOM     20  C   UNL     1      45.265   2.255   8.986  0.00  0.00    +0.000 A 
ATOM     21  C   UNL     1      45.966   3.009   8.044  0.00  0.00    +0.000 A 
ATOM     22  C   UNL     1      46.069   4.372   8.260  0.00  0.00    +0.000 A 
ATOM     23  N   UNL     1      45.543   4.998   9.339  0.00  0.00    +0.000 NA
ATOM     24  H   UNL     1      43.285   4.694  11.385  0.00  0.00    +0.000 HD
BRANCH  21  25
ATOM     25  C   UNL     1      46.573   2.442   6.824  0.00  0.00    +0.000 C 
ATOM     26  N   UNL     1      47.122   1.192   6.921  0.00  0.00    +0.000 N 
ATOM     27  O   UNL     1      46.608   3.068   5.776  0.00  0.00    +0.000 OA
ATOM     28  H   UNL     1      47.319   0.747   7.805  0.00  0.00    +0.000 HD
ATOM     29  H   UNL     1      47.616   0.856   6.105  0.00  0.00    +0.000 HD
ENDBRANCH  21  25
ENDBRANCH  16  17
ENDBRANCH   1  16
TORSDOF 7
ENDMDL
MODEL 6
REMARK VINA RESULT:    -6.261      3.335      7.677
REMARK INTER + INTRA:          -9.451
REMARK INTER:                  -8.438
REMARK INTRA:                  -1.014
REMARK UNBOUND:                -0.628
REMARK  Name = 
REMARK  9 active torsions:
REMARK  status: ('A' for Active; 'I' for Inactive)
REMARK    1  A    between atoms: C_1  and  O_2
REMARK    2  A    between atoms: O_2  and  C_3
REMARK    3  A    between atoms: C_6  and  C_7
REMARK    4  A    between atoms: C_7  and  C_8
REMARK    5  A    between atoms: C_8  and  N_9
REMARK    6  A    between atoms: C_13  and  C_14
REMARK    7  A    between atoms: C_20  and  O_21
REMARK    8  A    between atoms: O_21  and  C_22
REMARK    9  A    between atoms: N_24  and  C_25
REMARK                            x       y       z     vdW  Elec       q    Type
REMARK                         _______ _______ _______ _____ _____    ______ ____
ROOT
ATOM      1  C   UNL     1      49.569   8.690  11.746  0.00  0.00    +0.000 C 
ENDROOT
BRANCH   1   5
ATOM      2  C   UNL     1      45.422  10.036  12.075  0.00  0.00    +0.000 A 
ATOM      3  C   UNL     1      46.460  10.939  11.794  0.00  0.00    +0.000 A 
ATOM      4  C   UNL     1      47.780  10.516  11.680  0.00  0.00    +0.000 A 
ATOM      5  C   UNL     1      48.131   9.178  11.856  0.00  0.00    +0.000 A 
ATOM      6  C   UNL     1      47.102   8.272  12.148  0.00  0.00    +0.000 A 
ATOM      7  C   UNL     1      45.757   8.691  12.278  0.00  0.00    +0.000 A 
BRANCH   2   9
ATOM      8  C   UNL     1      43.728  11.481  11.258  0.00  0.00    +0.000 C 
ATOM      9  O   UNL     1      44.117  10.440  12.156  0.00  0.00    +0.000 OA
ENDBRANCH   2   9
BRANCH   7  10
ATOM     10  O   UNL     1      44.906   7.637  12.519  0.00  0.00    +0.000 OA
BRANCH  10  11
ATOM     11  C   UNL     1      44.665   6.622  11.517  0.00  0.00    +0.000 C 
ATOM     12  C   UNL     1      43.256   6.000  11.403  0.00  0.00    +0.000 C 
ATOM     13  N   UNL     1      43.787   4.662  11.718  0.00  0.00    +0.000 NA
ATOM     14  C   UNL     1      43.775   3.799  10.539  0.00  0.00    +0.000 C 
ATOM     15  C   UNL     1      45.133   5.209  11.941  0.00  0.00    +0.000 C 
ENDBRANCH  10  11
ENDBRANCH   7  10
ENDBRANCH   1   5
BRANCH   1  16
ATOM     16  C   UNL     1      49.829   7.424  12.570  0.00  0.00    +0.000 C 
BRANCH  16  17
ATOM     17  N   UNL     1      50.259   7.678  13.946  0.00  0.00    +0.000 N 
ATOM     18  C   UNL     1      49.496   6.887  14.844  0.00  0.00    +0.000 A 
ATOM     19  C   UNL     1      49.755   6.987  16.208  0.00  0.00    +0.000 A 
ATOM     20  C   UNL     1      49.017   6.213  17.106  0.00  0.00    +0.000 A 
ATOM     21  C   UNL     1      48.031   5.353  16.621  0.00  0.00    +0.000 A 
ATOM     22  C   UNL     1      47.831   5.312  15.253  0.00  0.00    +0.000 A 
ATOM     23  N   UNL     1      48.550   6.045  14.372  0.00  0.00    +0.000 NA
ATOM     24  H   UNL     1      50.149   8.653  14.209  0.00  0.00    +0.000 HD
BRANCH  21  25
ATOM     25  C   UNL     1      47.176   4.515  17.484  0.00  0.00    +0.000 C 
ATOM     26  N   UNL     1      46.895   4.988  18.738  0.00  0.00    +0.000 N 
ATOM     27  O   UNL     1      46.755   3.431  17.109  0.00  0.00    +0.000 OA
ATOM     28  H   UNL     1      47.403   5.749  19.162  0.00  0.00    +0.000 HD
ATOM     29  H   UNL     1      46.388   4.361  19.348  0.00  0.00    +0.000 HD
ENDBRANCH  21  25
ENDBRANCH  16  17
ENDBRANCH   1  16
TORSDOF 7
ENDMDL
MODEL 7
REMARK VINA RESULT:    -6.258      3.200      5.082
REMARK INTER + INTRA:          -9.448
REMARK INTER:                  -8.464
REMARK INTRA:                  -0.983
REMARK UNBOUND:                -0.628
REMARK  Name = 
REMARK  9 active torsions:
REMARK  status: ('A' for Active; 'I' for Inactive)
REMARK    1  A    between atoms: C_1  and  O_2
REMARK    2  A    between atoms: O_2  and  C_3
REMARK    3  A    between atoms: C_6  and  C_7
REMARK    4  A    between atoms: C_7  and  C_8
REMARK    5  A    between atoms: C_8  and  N_9
REMARK    6  A    between atoms: C_13  and  C_14
REMARK    7  A    between atoms: C_20  and  O_21
REMARK    8  A    between atoms: O_21  and  C_22
REMARK    9  A    between atoms: N_24  and  C_25
REMARK                            x       y       z     vdW  Elec       q    Type
REMARK                         _______ _______ _______ _____ _____    ______ ____
ROOT
ATOM      1  C   UNL     1      49.230   7.869  14.536  0.00  0.00    +0.000 C 
ENDROOT
BRANCH   1   5
ATOM      2  C   UNL     1      48.072   6.429  18.499  0.00  0.00    +0.000 A 
ATOM      3  C   UNL     1      48.391   7.779  18.280  0.00  0.00    +0.000 A 
ATOM      4  C   UNL     1      48.752   8.245  17.020  0.00  0.00    +0.000 A 
ATOM      5  C   UNL     1      48.828   7.387  15.924  0.00  0.00    +0.000 A 
ATOM      6  C   UNL     1      48.521   6.036  16.137  0.00  0.00    +0.000 A 
ATOM      7  C   UNL     1      48.164   5.547  17.415  0.00  0.00    +0.000 A 
BRANCH   2   9
ATOM      8  C   UNL     1      48.738   5.644  20.636  0.00  0.00    +0.000 C 
ATOM      9  O   UNL     1      47.683   5.970  19.728  0.00  0.00    +0.000 OA
ENDBRANCH   2   9
BRANCH   7  10
ATOM     10  O   UNL     1      47.858   4.206  17.391  0.00  0.00    +0.000 OA
BRANCH  10  11
ATOM     11  C   UNL     1      48.817   3.208  17.811  0.00  0.00    +0.000 C 
ATOM     12  C   UNL     1      50.319   3.564  17.810  0.00  0.00    +0.000 C 
ATOM     13  N   UNL     1      50.601   2.504  16.827  0.00  0.00    +0.000 NA
ATOM     14  C   UNL     1      51.323   1.392  17.442  0.00  0.00    +0.000 C 
ATOM     15  C   UNL     1      49.172   2.184  16.706  0.00  0.00    +0.000 C 
ENDBRANCH  10  11
ENDBRANCH   7  10
ENDBRANCH   1   5
BRANCH   1  16
ATOM     16  C   UNL     1      48.824   6.890  13.429  0.00  0.00    +0.000 C 
BRANCH  16  17
ATOM     17  N   UNL     1      47.805   7.406  12.513  0.00  0.00    +0.000 N 
ATOM     18  C   UNL     1      46.815   6.415  12.287  0.00  0.00    +0.000 A 
ATOM     19  C   UNL     1      45.753   6.714  11.437  0.00  0.00    +0.000 A 
ATOM     20  C   UNL     1      44.767   5.753  11.206  0.00  0.00    +0.000 A 
ATOM     21  C   UNL     1      44.862   4.508  11.829  0.00  0.00    +0.000 A 
ATOM     22  C   UNL     1      45.948   4.286  12.657  0.00  0.00    +0.000 A 
ATOM     23  N   UNL     1      46.902   5.215  12.902  0.00  0.00    +0.000 NA
ATOM     24  H   UNL     1      48.196   7.675  11.615  0.00  0.00    +0.000 HD
BRANCH  21  25
ATOM     25  C   UNL     1      43.892   3.413  11.631  0.00  0.00    +0.000 C 
ATOM     26  N   UNL     1      43.727   2.528  12.663  0.00  0.00    +0.000 N 
ATOM     27  O   UNL     1      43.278   3.283  10.584  0.00  0.00    +0.000 OA
ATOM     28  H   UNL     1      44.371   2.464  13.437  0.00  0.00    +0.000 HD
ATOM     29  H   UNL     1      43.131   1.732  12.478  0.00  0.00    +0.000 HD
ENDBRANCH  21  25
ENDBRANCH  16  17
ENDBRANCH   1  16
TORSDOF 7
ENDMDL
MODEL 8
REMARK VINA RESULT:    -6.054      4.206      7.894
REMARK INTER + INTRA:          -9.160
REMARK INTER:                  -7.978
REMARK INTRA:                  -1.182
REMARK UNBOUND:                -0.628
REMARK  Name = 
REMARK  9 active torsions:
REMARK  status: ('A' for Active; 'I' for Inactive)
REMARK    1  A    between atoms: C_1  and  O_2
REMARK    2  A    between atoms: O_2  and  C_3
REMARK    3  A    between atoms: C_6  and  C_7
REMARK    4  A    between atoms: C_7  and  C_8
REMARK    5  A    between atoms: C_8  and  N_9
REMARK    6  A    between atoms: C_13  and  C_14
REMARK    7  A    between atoms: C_20  and  O_21
REMARK    8  A    between atoms: O_21  and  C_22
REMARK    9  A    between atoms: N_24  and  C_25
REMARK                            x       y       z     vdW  Elec       q    Type
REMARK                         _______ _______ _______ _____ _____    ______ ____
ROOT
ATOM      1  C   UNL     1      48.602   7.354  12.370  0.00  0.00    +0.000 C 
ENDROOT
BRANCH   1   5
ATOM      2  C   UNL     1      45.228   4.620  12.885  0.00  0.00    +0.000 A 
ATOM      3  C   UNL     1      45.326   5.452  11.757  0.00  0.00    +0.000 A 
ATOM      4  C   UNL     1      46.400   6.317  11.584  0.00  0.00    +0.000 A 
ATOM      5  C   UNL     1      47.420   6.408  12.531  0.00  0.00    +0.000 A 
ATOM      6  C   UNL     1      47.324   5.589  13.664  0.00  0.00    +0.000 A 
ATOM      7  C   UNL     1      46.231   4.713  13.859  0.00  0.00    +0.000 A 
BRANCH   2   9
ATOM      8  C   UNL     1      43.468   3.404  11.861  0.00  0.00    +0.000 C 
ATOM      9  O   UNL     1      44.191   3.743  13.046  0.00  0.00    +0.000 OA
ENDBRANCH   2   9
BRANCH   7  10
ATOM     10  O   UNL     1      46.359   3.969  15.010  0.00  0.00    +0.000 OA
BRANCH  10  11
ATOM     11  C   UNL     1      47.486   4.149  15.899  0.00  0.00    +0.000 C 
ATOM     12  C   UNL     1      48.258   2.906  16.392  0.00  0.00    +0.000 C 
ATOM     13  N   UNL     1      47.916   3.211  17.792  0.00  0.00    +0.000 NA
ATOM     14  C   UNL     1      49.087   3.679  18.532  0.00  0.00    +0.000 C 
ATOM     15  C   UNL     1      47.082   4.349  17.380  0.00  0.00    +0.000 C 
ENDBRANCH  10  11
ENDBRANCH   7  10
ENDBRANCH   1   5
BRANCH   1  16
ATOM     16  C   UNL     1      49.252   7.722  13.709  0.00  0.00    +0.000 C 
BRANCH  16  17
ATOM     17  N   UNL     1      48.600   8.830  14.410  0.00  0.00    +0.000 N 
ATOM     18  C   UNL     1      48.590   8.578  15.806  0.00  0.00    +0.000 A 
ATOM     19  C   UNL     1      48.009   9.519  16.650  0.00  0.00    +0.000 A 
ATOM     20  C   UNL     1      47.993   9.290  18.028  0.00  0.00    +0.000 A 
ATOM     21  C   UNL     1      48.558   8.119  18.535  0.00  0.00    +0.000 A 
ATOM     22  C   UNL     1      49.114   7.231  17.631  0.00  0.00    +0.000 A 
ATOM     23  N   UNL     1      49.149   7.450  16.296  0.00  0.00    +0.000 NA
ATOM     24  H   UNL     1      47.641   8.967  14.104  0.00  0.00    +0.000 HD
BRANCH  21  25
ATOM     25  C   UNL     1      48.569   7.766  19.968  0.00  0.00    +0.000 C 
ATOM     26  N   UNL     1      47.707   6.785  20.378  0.00  0.00    +0.000 N 
ATOM     27  O   UNL     1      49.298   8.339  20.763  0.00  0.00    +0.000 OA
ATOM     28  H   UNL     1      46.940   6.458  19.810  0.00  0.00    +0.000 HD
ATOM     29  H   UNL     1      47.659   6.621  21.375  0.00  0.00    +0.000 HD
ENDBRANCH  21  25
ENDBRANCH  16  17
ENDBRANCH   1  16
TORSDOF 7
ENDMDL
