MODEL 1
REMARK VINA RESULT:    -7.847      0.000      0.000
REMARK INTER + INTRA:         -11.121
REMARK INTER:                 -10.370
REMARK INTRA:                  -0.750
REMARK UNBOUND:                -0.750
REMARK  Name = 
REMARK  7 active torsions:
REMARK  status: ('A' for Active; 'I' for Inactive)
REMARK    1  A    between atoms: C_1  and  S_2
REMARK    2  A    between atoms: S_2  and  C_5
REMARK    3  A    between atoms: N_7  and  C_8
REMARK    4  A    between atoms: C_8  and  C_9
REMARK    5  A    between atoms: C_12  and  C_13
REMARK    6  A    between atoms: C_13  and  C_14
REMARK    7  A    between atoms: C_14  and  N_15
REMARK                            x       y       z     vdW  Elec       q    Type
REMARK                         _______ _______ _______ _____ _____    ______ ____
ROOT
ATOM      1  C   UNL     1      45.910   7.177  12.198  0.00  0.00    +0.000 A 
ATOM      2  C   UNL     1      44.852   6.900  11.355  0.00  0.00    +0.000 A 
ATOM      3  N   UNL     1      44.629   5.546  11.386  0.00  0.00    +0.000 N 
ATOM      4  C   UNL     1      45.482   4.950  12.299  0.00  0.00    +0.000 A 
ATOM      5  C   UNL     1      45.599   3.613  12.717  0.00  0.00    +0.000 A 
ATOM      6  C   UNL     1      46.594   3.289  13.641  0.00  0.00    +0.000 A 
ATOM      7  C   UNL     1      47.446   4.263  14.144  0.00  0.00    +0.000 A 
ATOM      8  C   UNL     1      47.314   5.595  13.741  0.00  0.00    +0.000 A 
ATOM      9  C   UNL     1      46.319   5.956  12.803  0.00  0.00    +0.000 A 
ENDROOT
BRANCH   1  11
ATOM     10  C   UNL     1      48.240   8.635  11.798  0.00  0.00    +0.000 C 
ATOM     11  S   UNL     1      46.604   8.731  12.473  0.00  0.00    +0.000 S 
ATOM     12  O   UNL     1      46.691   8.853  13.915  0.00  0.00    +0.000 OA
ATOM     13  O   UNL     1      45.821   9.649  11.671  0.00  0.00    +0.000 OA
ENDBRANCH   1  11
BRANCH   3  14
ATOM     14  C   UNL     1      43.663   4.853  10.531  0.00  0.00    +0.000 C 
BRANCH  14  15
ATOM     15  C   UNL     1      44.391   3.988   9.528  0.00  0.00    +0.000 A 
ATOM     16  C   UNL     1      44.317   2.590   9.607  0.00  0.00    +0.000 A 
ATOM     17  C   UNL     1      45.172   1.790   8.851  0.00  0.00    +0.000 A 
ATOM     18  C   UNL     1      46.117   2.372   7.997  0.00  0.00    +0.000 A 
ATOM     19  C   UNL     1      46.113   3.762   7.828  0.00  0.00    +0.000 A 
ATOM     20  C   UNL     1      45.259   4.563   8.590  0.00  0.00    +0.000 A 
BRANCH  18  21
ATOM     21  C   UNL     1      47.180   1.519   7.352  0.00  0.00    +0.000 C 
BRANCH  21  22
ATOM     22  C   UNL     1      48.281   2.313   6.656  0.00  0.00    +0.000 C 
BRANCH  22  23
ATOM     23  N   UNL     1      48.413   1.882   5.263  0.00  0.00    +0.000 NA
ATOM     24  H   UNL     1      49.198   2.366   4.827  0.00  0.00    +0.000 HD
ATOM     25  H   UNL     1      47.580   2.163   4.743  0.00  0.00    +0.000 HD
ENDBRANCH  22  23
ENDBRANCH  21  22
ENDBRANCH  18  21
ENDBRANCH  14  15
ENDBRANCH   3  14
TORSDOF 6
ENDMDL
MODEL 2
REMARK VINA RESULT:    -7.827      2.510      3.400
REMARK INTER + INTRA:         -11.094
REMARK INTER:                 -10.859
REMARK INTRA:                  -0.235
REMARK UNBOUND:                -0.750
REMARK  Name = 
REMARK  7 active torsions:
REMARK  status: ('A' for Active; 'I' for Inactive)
REMARK    1  A    between atoms: C_1  and  S_2
REMARK    2  A    between atoms: S_2  and  C_5
REMARK    3  A    between atoms: N_7  and  C_8
REMARK    4  A    between atoms: C_8  and  C_9
REMARK    5  A    between atoms: C_12  and  C_13
REMARK    6  A    between atoms: C_13  and  C_14
REMARK    7  A    between atoms: C_14  and  N_15
REMARK                            x       y       z     vdW  Elec       q    Type
REMARK                         _______ _______ _______ _____ _____    ______ ____
ROOT
ATOM      1  C   UNL     1      46.891   4.733  14.306  0.00  0.00    +0.000 A 
ATOM      2  C   UNL     1      45.760   4.397  13.590  0.00  0.00    +0.000 A 
ATOM      3  N   UNL     1      45.662   5.255  12.522  0.00  0.00    +0.000 N 
ATOM      4  C   UNL     1      46.761   6.097  12.497  0.00  0.00    +0.000 A 
ATOM      5  C   UNL     1      47.135   7.098  11.583  0.00  0.00    +0.000 A 
ATOM      6  C   UNL     1      48.299   7.828  11.834  0.00  0.00    +0.000 A 
ATOM      7  C   UNL     1      49.076   7.568  12.956  0.00  0.00    +0.000 A 
ATOM      8  C   UNL     1      48.711   6.559  13.851  0.00  0.00    +0.000 A 
ATOM      9  C   UNL     1      47.536   5.805  13.628  0.00  0.00    +0.000 A 
ENDROOT
BRANCH   1  11
ATOM     10  C   UNL     1      48.491   5.168  16.535  0.00  0.00    +0.000 C 
ATOM     11  S   UNL     1      47.429   3.979  15.759  0.00  0.00    +0.000 S 
ATOM     12  O   UNL     1      48.222   2.847  15.324  0.00  0.00    +0.000 OA
ATOM     13  O   UNL     1      46.240   3.815  16.571  0.00  0.00    +0.000 OA
ENDBRANCH   1  11
BRANCH   3  14
ATOM     14  C   UNL     1      44.529   5.290  11.597  0.00  0.00    +0.000 C 
BRANCH  14  15
ATOM     15  C   UNL     1      44.835   4.453  10.376  0.00  0.00    +0.000 A 
ATOM     16  C   UNL     1      44.637   3.065  10.397  0.00  0.00    +0.000 A 
ATOM     17  C   UNL     1      45.144   2.261   9.376  0.00  0.00    +0.000 A 
ATOM     18  C   UNL     1      45.854   2.830   8.312  0.00  0.00    +0.000 A 
ATOM     19  C   UNL     1      45.951   4.224   8.229  0.00  0.00    +0.000 A 
ATOM     20  C   UNL     1      45.448   5.028   9.255  0.00  0.00    +0.000 A 
BRANCH  18  21
ATOM     21  C   UNL     1      46.585   1.946   7.333  0.00  0.00    +0.000 C 
BRANCH  21  22
ATOM     22  C   UNL     1      47.921   2.511   6.858  0.00  0.00    +0.000 C 
BRANCH  22  23
ATOM     23  N   UNL     1      48.406   1.757   5.701  0.00  0.00    +0.000 NA
ATOM     24  H   UNL     1      49.093   1.066   6.005  0.00  0.00    +0.000 HD
ATOM     25  H   UNL     1      48.898   2.390   5.069  0.00  0.00    +0.000 HD
ENDBRANCH  22  23
ENDBRANCH  21  22
ENDBRANCH  18  21
ENDBRANCH  14  15
ENDBRANCH   3  14
TORSDOF 6
ENDMDL
MODEL 3
REMARK VINA RESULT:    -7.579      1.769      3.026
REMARK INTER + INTRA:         -10.767
REMARK INTER:                 -10.483
REMARK INTRA:                  -0.283
REMARK UNBOUND:                -0.750
REMARK  Name = 
REMARK  7 active torsions:
REMARK  status: ('A' for Active; 'I' for Inactive)
REMARK    1  A    between atoms: C_1  and  S_2
REMARK    2  A    between atoms: S_2  and  C_5
REMARK    3  A    between atoms: N_7  and  C_8
REMARK    4  A    between atoms: C_8  and  C_9
REMARK    5  A    between atoms: C_12  and  C_13
REMARK    6  A    between atoms: C_13  and  C_14
REMARK    7  A    between atoms: C_14  and  N_15
REMARK                            x       y       z     vdW  Elec       q    Type
REMARK                         _______ _______ _______ _____ _____    ______ ____
ROOT
ATOM      1  C   UNL     1      46.594   6.335  12.772  0.00  0.00    +0.000 A 
ATOM      2  C   UNL     1      45.914   5.265  12.226  0.00  0.00    +0.000 A 
ATOM      3  N   UNL     1      44.824   5.756  11.550  0.00  0.00    +0.000 N 
ATOM      4  C   UNL     1      44.833   7.140  11.588  0.00  0.00    +0.000 A 
ATOM      5  C   UNL     1      43.969   8.084  11.007  0.00  0.00    +0.000 A 
ATOM      6  C   UNL     1      44.204   9.439  11.250  0.00  0.00    +0.000 A 
ATOM      7  C   UNL     1      45.269   9.848  12.041  0.00  0.00    +0.000 A 
ATOM      8  C   UNL     1      46.137   8.907  12.601  0.00  0.00    +0.000 A 
ATOM      9  C   UNL     1      45.925   7.527  12.378  0.00  0.00    +0.000 A 
ENDROOT
BRANCH   1  11
ATOM     10  C   UNL     1      47.995   7.715  14.734  0.00  0.00    +0.000 C 
ATOM     11  S   UNL     1      48.010   6.240  13.751  0.00  0.00    +0.000 S 
ATOM     12  O   UNL     1      49.116   6.301  12.818  0.00  0.00    +0.000 OA
ATOM     13  O   UNL     1      47.801   5.099  14.620  0.00  0.00    +0.000 OA
ENDBRANCH   1  11
BRANCH   3  14
ATOM     14  C   UNL     1      43.793   4.918  10.936  0.00  0.00    +0.000 C 
BRANCH  14  15
ATOM     15  C   UNL     1      44.404   4.064   9.848  0.00  0.00    +0.000 A 
ATOM     16  C   UNL     1      44.342   2.665   9.922  0.00  0.00    +0.000 A 
ATOM     17  C   UNL     1      45.109   1.874   9.066  0.00  0.00    +0.000 A 
ATOM     18  C   UNL     1      45.948   2.468   8.116  0.00  0.00    +0.000 A 
ATOM     19  C   UNL     1      45.923   3.858   7.961  0.00  0.00    +0.000 A 
ATOM     20  C   UNL     1      45.159   4.650   8.823  0.00  0.00    +0.000 A 
BRANCH  18  21
ATOM     21  C   UNL     1      46.934   1.623   7.346  0.00  0.00    +0.000 C 
BRANCH  21  22
ATOM     22  C   UNL     1      48.106   2.406   6.764  0.00  0.00    +0.000 C 
BRANCH  22  23
ATOM     23  N   UNL     1      48.460   1.883   5.444  0.00  0.00    +0.000 NA
ATOM     24  H   UNL     1      49.319   2.326   5.118  0.00  0.00    +0.000 HD
ATOM     25  H   UNL     1      47.733   2.139   4.774  0.00  0.00    +0.000 HD
ENDBRANCH  22  23
ENDBRANCH  21  22
ENDBRANCH  18  21
ENDBRANCH  14  15
ENDBRANCH   3  14
TORSDOF 6
ENDMDL
MODEL 4
REMARK VINA RESULT:    -7.040      1.688      2.729
REMARK INTER + INTRA:         -10.054
REMARK INTER:                  -9.547
REMARK INTRA:                  -0.507
REMARK UNBOUND:                -0.750
REMARK  Name = 
REMARK  7 active torsions:
REMARK  status: ('A' for Active; 'I' for Inactive)
REMARK    1  A    between atoms: C_1  and  S_2
REMARK    2  A    between atoms: S_2  and  C_5
REMARK    3  A    between atoms: N_7  and  C_8
REMARK    4  A    between atoms: C_8  and  C_9
REMARK    5  A    between atoms: C_12  and  C_13
REMARK    6  A    between atoms: C_13  and  C_14
REMARK    7  A    between atoms: C_14  and  N_15
REMARK                            x       y       z     vdW  Elec       q    Type
REMARK                         _______ _______ _______ _____ _____    ______ ____
ROOT
ATOM      1  C   UNL     1      44.614   8.493  11.416  0.00  0.00    +0.000 A 
ATOM      2  C   UNL     1      43.993   7.263  11.325  0.00  0.00    +0.000 A 
ATOM      3  N   UNL     1      44.909   6.299  11.668  0.00  0.00    +0.000 N 
ATOM      4  C   UNL     1      46.097   6.897  12.052  0.00  0.00    +0.000 A 
ATOM      5  C   UNL     1      47.297   6.342  12.530  0.00  0.00    +0.000 A 
ATOM      6  C   UNL     1      48.363   7.200  12.809  0.00  0.00    +0.000 A 
ATOM      7  C   UNL     1      48.241   8.571  12.627  0.00  0.00    +0.000 A 
ATOM      8  C   UNL     1      47.041   9.121  12.170  0.00  0.00    +0.000 A 
ATOM      9  C   UNL     1      45.943   8.279  11.874  0.00  0.00    +0.000 A 
ENDROOT
BRANCH   1  11
ATOM     10  C   UNL     1      42.192   9.661  10.719  0.00  0.00    +0.000 C 
ATOM     11  S   UNL     1      43.898  10.017  11.046  0.00  0.00    +0.000 S 
ATOM     12  O   UNL     1      44.538  10.444   9.818  0.00  0.00    +0.000 OA
ATOM     13  O   UNL     1      43.987  10.790  12.268  0.00  0.00    +0.000 OA
ENDBRANCH   1  11
BRANCH   3  14
ATOM     14  C   UNL     1      44.659   4.860  11.578  0.00  0.00    +0.000 C 
BRANCH  14  15
ATOM     15  C   UNL     1      44.893   4.384  10.162  0.00  0.00    +0.000 A 
ATOM     16  C   UNL     1      44.462   3.113   9.758  0.00  0.00    +0.000 A 
ATOM     17  C   UNL     1      44.887   2.571   8.545  0.00  0.00    +0.000 A 
ATOM     18  C   UNL     1      45.749   3.292   7.711  0.00  0.00    +0.000 A 
ATOM     19  C   UNL     1      46.087   4.605   8.056  0.00  0.00    +0.000 A 
ATOM     20  C   UNL     1      45.665   5.145   9.274  0.00  0.00    +0.000 A 
BRANCH  18  21
ATOM     21  C   UNL     1      46.379   2.622   6.515  0.00  0.00    +0.000 C 
BRANCH  21  22
ATOM     22  C   UNL     1      47.617   1.793   6.843  0.00  0.00    +0.000 C 
BRANCH  22  23
ATOM     23  N   UNL     1      48.561   1.827   5.725  0.00  0.00    +0.000 NA
ATOM     24  H   UNL     1      49.515   1.871   6.083  0.00  0.00    +0.000 HD
ATOM     25  H   UNL     1      48.417   2.683   5.189  0.00  0.00    +0.000 HD
ENDBRANCH  22  23
ENDBRANCH  21  22
ENDBRANCH  18  21
ENDBRANCH  14  15
ENDBRANCH   3  14
TORSDOF 6
ENDMDL
MODEL 5
REMARK VINA RESULT:    -5.835      3.660      6.713
REMARK INTER + INTRA:          -8.462
REMARK INTER:                  -7.779
REMARK INTRA:                  -0.683
REMARK UNBOUND:                -0.750
REMARK  Name = 
REMARK  7 active torsions:
REMARK  status: ('A' for Active; 'I' for Inactive)
REMARK    1  A    between atoms: C_1  and  S_2
REMARK    2  A    between atoms: S_2  and  C_5
REMARK    3  A    between atoms: N_7  and  C_8
REMARK    4  A    between atoms: C_8  and  C_9
REMARK    5  A    between atoms: C_12  and  C_13
REMARK    6  A    between atoms: C_13  and  C_14
REMARK    7  A    between atoms: C_14  and  N_15
REMARK                            x       y       z     vdW  Elec       q    Type
REMARK                         _______ _______ _______ _____ _____    ______ ____
ROOT
ATOM      1  C   UNL     1      45.434   4.473   9.396  0.00  0.00    +0.000 A 
ATOM      2  C   UNL     1      46.027   5.684   9.691  0.00  0.00    +0.000 A 
ATOM      3  N   UNL     1      45.646   6.045  10.960  0.00  0.00    +0.000 N 
ATOM      4  C   UNL     1      44.872   5.043  11.520  0.00  0.00    +0.000 A 
ATOM      5  C   UNL     1      44.297   4.925  12.798  0.00  0.00    +0.000 A 
ATOM      6  C   UNL     1      43.520   3.799  13.077  0.00  0.00    +0.000 A 
ATOM      7  C   UNL     1      43.323   2.813  12.120  0.00  0.00    +0.000 A 
ATOM      8  C   UNL     1      43.912   2.924  10.858  0.00  0.00    +0.000 A 
ATOM      9  C   UNL     1      44.701   4.054  10.541  0.00  0.00    +0.000 A 
ENDROOT
BRANCH   1  11
ATOM     10  C   UNL     1      46.115   1.992   8.349  0.00  0.00    +0.000 C 
ATOM     11  S   UNL     1      45.568   3.619   7.905  0.00  0.00    +0.000 S 
ATOM     12  O   UNL     1      46.624   4.295   7.178  0.00  0.00    +0.000 OA
ATOM     13  O   UNL     1      44.216   3.532   7.389  0.00  0.00    +0.000 OA
ENDBRANCH   1  11
BRANCH   3  14
ATOM     14  C   UNL     1      45.977   7.327  11.584  0.00  0.00    +0.000 C 
BRANCH  14  15
ATOM     15  C   UNL     1      47.310   7.228  12.290  0.00  0.00    +0.000 A 
ATOM     16  C   UNL     1      47.381   6.779  13.616  0.00  0.00    +0.000 A 
ATOM     17  C   UNL     1      48.559   6.918  14.350  0.00  0.00    +0.000 A 
ATOM     18  C   UNL     1      49.690   7.505  13.770  0.00  0.00    +0.000 A 
ATOM     19  C   UNL     1      49.658   7.845  12.413  0.00  0.00    +0.000 A 
ATOM     20  C   UNL     1      48.476   7.711  11.680  0.00  0.00    +0.000 A 
BRANCH  18  21
ATOM     21  C   UNL     1      50.884   7.853  14.625  0.00  0.00    +0.000 C 
BRANCH  21  22
ATOM     22  C   UNL     1      51.016   7.005  15.886  0.00  0.00    +0.000 C 
BRANCH  22  23
ATOM     23  N   UNL     1      50.820   7.834  17.076  0.00  0.00    +0.000 NA
ATOM     24  H   UNL     1      51.396   7.478  17.840  0.00  0.00    +0.000 HD
ATOM     25  H   UNL     1      49.851   7.753  17.387  0.00  0.00    +0.000 HD
ENDBRANCH  22  23
ENDBRANCH  21  22
ENDBRANCH  18  21
ENDBRANCH  14  15
ENDBRANCH   3  14
TORSDOF 6
ENDMDL
MODEL 6
REMARK VINA RESULT:    -5.707      3.980      7.706
REMARK INTER + INTRA:          -8.292
REMARK INTER:                  -7.570
REMARK INTRA:                  -0.723
REMARK UNBOUND:                -0.750
REMARK  Name = 
REMARK  7 active torsions:
REMARK  status: ('A' for Active; 'I' for Inactive)
REMARK    1  A    between atoms: C_1  and  S_2
REMARK    2  A    between atoms: S_2  and  C_5
REMARK    3  A    between atoms: N_7  and  C_8
REMARK    4  A    between atoms: C_8  and  C_9
REMARK    5  A    between atoms: C_12  and  C_13
REMARK    6  A    between atoms: C_13  and  C_14
REMARK    7  A    between atoms: C_14  and  N_15
REMARK                            x       y       z     vdW  Elec       q    Type
REMARK                         _______ _______ _______ _____ _____    ______ ____
ROOT
ATOM      1  C   UNL     1      44.677   5.645  11.856  0.00  0.00    +0.000 A 
ATOM      2  C   UNL     1      45.759   5.027  12.450  0.00  0.00    +0.000 A 
ATOM      3  N   UNL     1      46.681   5.995  12.761  0.00  0.00    +0.000 N 
ATOM      4  C   UNL     1      46.175   7.244  12.444  0.00  0.00    +0.000 A 
ATOM      5  C   UNL     1      46.715   8.531  12.620  0.00  0.00    +0.000 A 
ATOM      6  C   UNL     1      45.983   9.628  12.161  0.00  0.00    +0.000 A 
ATOM      7  C   UNL     1      44.747   9.457  11.551  0.00  0.00    +0.000 A 
ATOM      8  C   UNL     1      44.206   8.179  11.396  0.00  0.00    +0.000 A 
ATOM      9  C   UNL     1      44.923   7.045  11.845  0.00  0.00    +0.000 A 
ENDROOT
BRANCH   1  11
ATOM     10  C   UNL     1      43.375   3.190  11.848  0.00  0.00    +0.000 C 
ATOM     11  S   UNL     1      43.271   4.855  11.245  0.00  0.00    +0.000 S 
ATOM     12  O   UNL     1      43.438   4.850   9.806  0.00  0.00    +0.000 OA
ATOM     13  O   UNL     1      42.150   5.514  11.886  0.00  0.00    +0.000 OA
ENDBRANCH   1  11
BRANCH   3  14
ATOM     14  C   UNL     1      48.015   5.717  13.297  0.00  0.00    +0.000 C 
BRANCH  14  15
ATOM     15  C   UNL     1      47.994   5.815  14.805  0.00  0.00    +0.000 A 
ATOM     16  C   UNL     1      48.632   6.879  15.458  0.00  0.00    +0.000 A 
ATOM     17  C   UNL     1      48.832   6.848  16.838  0.00  0.00    +0.000 A 
ATOM     18  C   UNL     1      48.394   5.753  17.593  0.00  0.00    +0.000 A 
ATOM     19  C   UNL     1      47.654   4.747  16.962  0.00  0.00    +0.000 A 
ATOM     20  C   UNL     1      47.459   4.776  15.579  0.00  0.00    +0.000 A 
BRANCH  18  21
ATOM     21  C   UNL     1      48.803   5.620  19.039  0.00  0.00    +0.000 C 
BRANCH  21  22
ATOM     22  C   UNL     1      49.238   4.213  19.438  0.00  0.00    +0.000 C 
BRANCH  22  23
ATOM     23  N   UNL     1      48.368   3.694  20.494  0.00  0.00    +0.000 NA
ATOM     24  H   UNL     1      48.883   3.022  21.063  0.00  0.00    +0.000 HD
ATOM     25  H   UNL     1      47.595   3.179  20.072  0.00  0.00    +0.000 HD
ENDBRANCH  22  23
ENDBRANCH  21  22
ENDBRANCH  18  21
ENDBRANCH  14  15
ENDBRANCH   3  14
TORSDOF 6
ENDMDL
MODEL 7
REMARK VINA RESULT:    -5.689      2.331      4.053
REMARK INTER + INTRA:          -8.268
REMARK INTER:                  -7.640
REMARK INTRA:                  -0.628
REMARK UNBOUND:                -0.750
REMARK  Name = 
REMARK  7 active torsions:
REMARK  status: ('A' for Active; 'I' for Inactive)
REMARK    1  A    between atoms: C_1  and  S_2
REMARK    2  A    between atoms: S_2  and  C_5
REMARK    3  A    between atoms: N_7  and  C_8
REMARK    4  A    between atoms: C_8  and  C_9
REMARK    5  A    between atoms: C_12  and  C_13
REMARK    6  A    between atoms: C_13  and  C_14
REMARK    7  A    between atoms: C_14  and  N_15
REMARK                            x       y       z     vdW  Elec       q    Type
REMARK                         _______ _______ _______ _____ _____    ______ ____
ROOT
ATOM      1  C   UNL     1      48.106   7.876  13.622  0.00  0.00    +0.000 A 
ATOM      2  C   UNL     1      47.299   6.760  13.529  0.00  0.00    +0.000 A 
ATOM      3  N   UNL     1      46.134   7.131  12.904  0.00  0.00    +0.000 N 
ATOM      4  C   UNL     1      46.209   8.459  12.523  0.00  0.00    +0.000 A 
ATOM      5  C   UNL     1      45.301   9.270  11.818  0.00  0.00    +0.000 A 
ATOM      6  C   UNL     1      45.631  10.610  11.606  0.00  0.00    +0.000 A 
ATOM      7  C   UNL     1      46.831  11.132  12.073  0.00  0.00    +0.000 A 
ATOM      8  C   UNL     1      47.738  10.318  12.755  0.00  0.00    +0.000 A 
ATOM      9  C   UNL     1      47.432   8.958  12.991  0.00  0.00    +0.000 A 
ENDROOT
BRANCH   1  11
ATOM     10  C   UNL     1      49.528   9.195  15.611  0.00  0.00    +0.000 C 
ATOM     11  S   UNL     1      49.660   7.940  14.366  0.00  0.00    +0.000 S 
ATOM     12  O   UNL     1      50.557   8.396  13.323  0.00  0.00    +0.000 OA
ATOM     13  O   UNL     1      49.829   6.655  15.015  0.00  0.00    +0.000 OA
ENDBRANCH   1  11
BRANCH   3  14
ATOM     14  C   UNL     1      44.979   6.248  12.728  0.00  0.00    +0.000 C 
BRANCH  14  15
ATOM     15  C   UNL     1      45.203   5.338  11.542  0.00  0.00    +0.000 A 
ATOM     16  C   UNL     1      45.739   5.841  10.349  0.00  0.00    +0.000 A 
ATOM     17  C   UNL     1      45.718   5.077   9.182  0.00  0.00    +0.000 A 
ATOM     18  C   UNL     1      45.163   3.792   9.188  0.00  0.00    +0.000 A 
ATOM     19  C   UNL     1      44.734   3.243  10.402  0.00  0.00    +0.000 A 
ATOM     20  C   UNL     1      44.751   4.011  11.569  0.00  0.00    +0.000 A 
BRANCH  18  21
ATOM     21  C   UNL     1      44.942   3.059   7.888  0.00  0.00    +0.000 C 
BRANCH  21  22
ATOM     22  C   UNL     1      46.101   3.173   6.902  0.00  0.00    +0.000 C 
BRANCH  22  23
ATOM     23  N   UNL     1      47.182   2.264   7.284  0.00  0.00    +0.000 NA
ATOM     24  H   UNL     1      48.074   2.634   6.954  0.00  0.00    +0.000 HD
ATOM     25  H   UNL     1      47.052   1.368   6.812  0.00  0.00    +0.000 HD
ENDBRANCH  22  23
ENDBRANCH  21  22
ENDBRANCH  18  21
ENDBRANCH  14  15
ENDBRANCH   3  14
TORSDOF 6
ENDMDL
MODEL 8
REMARK VINA RESULT:    -5.548      4.370      8.062
REMARK INTER + INTRA:          -8.082
REMARK INTER:                  -7.421
REMARK INTRA:                  -0.660
REMARK UNBOUND:                -0.750
REMARK  Name = 
REMARK  7 active torsions:
REMARK  status: ('A' for Active; 'I' for Inactive)
REMARK    1  A    between atoms: C_1  and  S_2
REMARK    2  A    between atoms: S_2  and  C_5
REMARK    3  A    between atoms: N_7  and  C_8
REMARK    4  A    between atoms: C_8  and  C_9
REMARK    5  A    between atoms: C_12  and  C_13
REMARK    6  A    between atoms: C_13  and  C_14
REMARK    7  A    between atoms: C_14  and  N_15
REMARK                            x       y       z     vdW  Elec       q    Type
REMARK                         _______ _______ _______ _____ _____    ______ ____
ROOT
ATOM      1  C   UNL     1      46.081   5.501  12.540  0.00  0.00    +0.000 A 
ATOM      2  C   UNL     1      47.303   5.535  13.181  0.00  0.00    +0.000 A 
ATOM      3  N   UNL     1      47.732   6.839  13.207  0.00  0.00    +0.000 N 
ATOM      4  C   UNL     1      46.764   7.662  12.656  0.00  0.00    +0.000 A 
ATOM      5  C   UNL     1      46.718   9.059  12.507  0.00  0.00    +0.000 A 
ATOM      6  C   UNL     1      45.612   9.623  11.867  0.00  0.00    +0.000 A 
ATOM      7  C   UNL     1      44.577   8.827  11.395  0.00  0.00    +0.000 A 
ATOM      8  C   UNL     1      44.618   7.440  11.563  0.00  0.00    +0.000 A 
ATOM      9  C   UNL     1      45.726   6.836  12.203  0.00  0.00    +0.000 A 
ENDROOT
BRANCH   1  11
ATOM     10  C   UNL     1      43.587   4.370  13.007  0.00  0.00    +0.000 C 
ATOM     11  S   UNL     1      45.148   4.088  12.216  0.00  0.00    +0.000 S 
ATOM     12  O   UNL     1      45.841   3.015  12.901  0.00  0.00    +0.000 OA
ATOM     13  O   UNL     1      44.949   4.079  10.780  0.00  0.00    +0.000 OA
ENDBRANCH   1  11
BRANCH   3  14
ATOM     14  C   UNL     1      49.044   7.262  13.699  0.00  0.00    +0.000 C 
BRANCH  14  15
ATOM     15  C   UNL     1      49.013   7.387  15.206  0.00  0.00    +0.000 A 
ATOM     16  C   UNL     1      49.411   6.316  16.017  0.00  0.00    +0.000 A 
ATOM     17  C   UNL     1      49.155   6.329  17.388  0.00  0.00    +0.000 A 
ATOM     18  C   UNL     1      48.498   7.417  17.975  0.00  0.00    +0.000 A 
ATOM     19  C   UNL     1      48.205   8.537  17.189  0.00  0.00    +0.000 A 
ATOM     20  C   UNL     1      48.457   8.521  15.815  0.00  0.00    +0.000 A 
BRANCH  18  21
ATOM     21  C   UNL     1      48.028   7.334  19.406  0.00  0.00    +0.000 C 
BRANCH  21  22
ATOM     22  C   UNL     1      47.471   5.970  19.802  0.00  0.00    +0.000 C 
BRANCH  22  23
ATOM     23  N   UNL     1      46.368   5.597  18.915  0.00  0.00    +0.000 NA
ATOM     24  H   UNL     1      45.908   4.759  19.274  0.00  0.00    +0.000 HD
ATOM     25  H   UNL     1      46.742   5.347  17.999  0.00  0.00    +0.000 HD
ENDBRANCH  22  23
ENDBRANCH  21  22
ENDBRANCH  18  21
ENDBRANCH  14  15
ENDBRANCH   3  14
TORSDOF 6
ENDMDL
MODEL 9
REMARK VINA RESULT:    -5.505      4.591      6.558
REMARK INTER + INTRA:          -8.026
REMARK INTER:                  -7.552
REMARK INTRA:                  -0.473
REMARK UNBOUND:                -0.750
REMARK  Name = 
REMARK  7 active torsions:
REMARK  status: ('A' for Active; 'I' for Inactive)
REMARK    1  A    between atoms: C_1  and  S_2
REMARK    2  A    between atoms: S_2  and  C_5
REMARK    3  A    between atoms: N_7  and  C_8
REMARK    4  A    between atoms: C_8  and  C_9
REMARK    5  A    between atoms: C_12  and  C_13
REMARK    6  A    between atoms: C_13  and  C_14
REMARK    7  A    between atoms: C_14  and  N_15
REMARK                            x       y       z     vdW  Elec       q    Type
REMARK                         _______ _______ _______ _____ _____    ______ ____
ROOT
ATOM      1  C   UNL     1      48.180   5.221  16.000  0.00  0.00    +0.000 A 
ATOM      2  C   UNL     1      48.208   5.693  14.703  0.00  0.00    +0.000 A 
ATOM      3  N   UNL     1      48.504   7.033  14.747  0.00  0.00    +0.000 N 
ATOM      4  C   UNL     1      48.744   7.418  16.055  0.00  0.00    +0.000 A 
ATOM      5  C   UNL     1      49.128   8.657  16.597  0.00  0.00    +0.000 A 
ATOM      6  C   UNL     1      49.261   8.765  17.983  0.00  0.00    +0.000 A 
ATOM      7  C   UNL     1      49.028   7.674  18.809  0.00  0.00    +0.000 A 
ATOM      8  C   UNL     1      48.665   6.439  18.266  0.00  0.00    +0.000 A 
ATOM      9  C   UNL     1      48.517   6.297  16.866  0.00  0.00    +0.000 A 
ENDROOT
BRANCH   1  11
ATOM     10  C   UNL     1      49.183   3.092  17.477  0.00  0.00    +0.000 C 
ATOM     11  S   UNL     1      47.810   3.606  16.480  0.00  0.00    +0.000 S 
ATOM     12  O   UNL     1      47.803   2.841  15.249  0.00  0.00    +0.000 OA
ATOM     13  O   UNL     1      46.636   3.715  17.322  0.00  0.00    +0.000 OA
ENDBRANCH   1  11
BRANCH   3  14
ATOM     14  C   UNL     1      48.507   7.912  13.577  0.00  0.00    +0.000 C 
BRANCH  14  15
ATOM     15  C   UNL     1      47.236   7.716  12.782  0.00  0.00    +0.000 A 
ATOM     16  C   UNL     1      46.080   8.443  13.098  0.00  0.00    +0.000 A 
ATOM     17  C   UNL     1      44.848   8.095  12.542  0.00  0.00    +0.000 A 
ATOM     18  C   UNL     1      44.751   7.015  11.657  0.00  0.00    +0.000 A 
ATOM     19  C   UNL     1      45.920   6.363  11.250  0.00  0.00    +0.000 A 
ATOM     20  C   UNL     1      47.152   6.709  11.811  0.00  0.00    +0.000 A 
BRANCH  18  21
ATOM     21  C   UNL     1      43.396   6.506  11.232  0.00  0.00    +0.000 C 
BRANCH  21  22
ATOM     22  C   UNL     1      43.001   5.177  11.867  0.00  0.00    +0.000 C 
BRANCH  22  23
ATOM     23  N   UNL     1      42.677   5.367  13.281  0.00  0.00    +0.000 NA
ATOM     24  H   UNL     1      41.702   5.654  13.374  0.00  0.00    +0.000 HD
ATOM     25  H   UNL     1      43.238   6.133  13.655  0.00  0.00    +0.000 HD
ENDBRANCH  22  23
ENDBRANCH  21  22
ENDBRANCH  18  21
ENDBRANCH  14  15
ENDBRANCH   3  14
TORSDOF 6
ENDMDL
