MODEL 1
REMARK VINA RESULT:    -7.975      0.000      0.000
REMARK INTER + INTRA:          -9.930
REMARK INTER:                  -9.840
REMARK INTRA:                  -0.090
REMARK UNBOUND:                -0.090
REMARK  Name = 
REMARK  4 active torsions:
REMARK  status: ('A' for Active; 'I' for Inactive)
REMARK    1  A    between atoms: C_2  and  C_4
REMARK    2  A    between atoms: C_8  and  N_9
REMARK    3  A    between atoms: N_9  and  C_10
REMARK    4  A    between atoms: C_10  and  C_11
REMARK                            x       y       z     vdW  Elec       q    Type
REMARK                         _______ _______ _______ _____ _____    ______ ____
ROOT
ATOM      1  C   UNL     1      46.453   2.336   7.712  0.00  0.00    +0.000 A 
ATOM      2  C   UNL     1      46.380   3.680   7.379  0.00  0.00    +0.000 A 
ATOM      3  N   UNL     1      45.576   4.562   8.017  0.00  0.00    +0.000 NA
ATOM      4  C   UNL     1      44.839   4.070   9.043  0.00  0.00    +0.000 A 
ATOM      5  C   UNL     1      44.868   2.747   9.506  0.00  0.00    +0.000 A 
ATOM      6  C   UNL     1      45.685   1.870   8.788  0.00  0.00    +0.000 A 
ENDROOT
BRANCH   1   8
ATOM      7  N   UNL     1      48.513   2.010   6.463  0.00  0.00    +0.000 N 
ATOM      8  C   UNL     1      47.350   1.461   6.931  0.00  0.00    +0.000 C 
ATOM      9  O   UNL     1      47.087   0.282   6.738  0.00  0.00    +0.000 OA
ATOM     10  H   UNL     1      49.165   1.364   6.033  0.00  0.00    +0.000 HD
ATOM     11  H   UNL     1      48.891   2.871   6.830  0.00  0.00    +0.000 HD
ENDBRANCH   1   8
BRANCH   5  12
ATOM     12  N   UNL     1      44.010   2.354  10.535  0.00  0.00    +0.000 N 
ATOM     13  H   UNL     1      43.313   1.679  10.220  0.00  0.00    +0.000 HD
BRANCH  12  14
ATOM     14  C   UNL     1      43.485   3.326  11.484  0.00  0.00    +0.000 C 
BRANCH  14  15
ATOM     15  C   UNL     1      44.610   3.944  12.270  0.00  0.00    +0.000 A 
ATOM     16  C   UNL     1      45.712   3.195  12.699  0.00  0.00    +0.000 A 
ATOM     17  C   UNL     1      46.742   3.819  13.399  0.00  0.00    +0.000 A 
ATOM     18  C   UNL     1      46.632   5.175  13.640  0.00  0.00    +0.000 A 
ATOM     19 CL   UNL     1      47.857   6.025  14.486  0.00  0.00    +0.000 Cl
ATOM     20  N   UNL     1      45.594   5.938  13.238  0.00  0.00    +0.000 NA
ATOM     21  C   UNL     1      44.610   5.306  12.563  0.00  0.00    +0.000 A 
ENDBRANCH  14  15
ENDBRANCH  12  14
ENDBRANCH   5  12
TORSDOF 4
ENDMDL
MODEL 2
REMARK VINA RESULT:    -7.947      1.544      2.063
REMARK INTER + INTRA:          -9.895
REMARK INTER:                  -9.477
REMARK INTRA:                  -0.418
REMARK UNBOUND:                -0.090
REMARK  Name = 
REMARK  4 active torsions:
REMARK  status: ('A' for Active; 'I' for Inactive)
REMARK    1  A    between atoms: C_2  and  C_4
REMARK    2  A    between atoms: C_8  and  N_9
REMARK    3  A    between atoms: N_9  and  C_10
REMARK    4  A    between atoms: C_10  and  C_11
REMARK                            x       y       z     vdW  Elec       q    Type
REMARK                         _______ _______ _______ _____ _____    ______ ____
ROOT
ATOM      1  C   UNL     1      46.557   2.565   7.151  0.00  0.00    +0.000 A 
ATOM      2  C   UNL     1      46.404   1.350   7.799  0.00  0.00    +0.000 A 
ATOM      3  N   UNL     1      45.542   1.156   8.824  0.00  0.00    +0.000 NA
ATOM      4  C   UNL     1      44.791   2.225   9.187  0.00  0.00    +0.000 A 
ATOM      5  C   UNL     1      44.818   3.485   8.575  0.00  0.00    +0.000 A 
ATOM      6  C   UNL     1      45.753   3.642   7.548  0.00  0.00    +0.000 A 
ENDROOT
BRANCH   1   8
ATOM      7  N   UNL     1      48.863   2.488   6.384  0.00  0.00    +0.000 N 
ATOM      8  C   UNL     1      47.546   2.666   6.058  0.00  0.00    +0.000 C 
ATOM      9  O   UNL     1      47.204   2.864   4.901  0.00  0.00    +0.000 OA
ATOM     10  H   UNL     1      49.509   2.444   5.605  0.00  0.00    +0.000 HD
ATOM     11  H   UNL     1      49.153   2.054   7.249  0.00  0.00    +0.000 HD
ENDBRANCH   1   8
BRANCH   5  12
ATOM     12  N   UNL     1      44.037   4.522   9.088  0.00  0.00    +0.000 N 
ATOM     13  H   UNL     1      44.319   5.434   8.728  0.00  0.00    +0.000 HD
BRANCH  12  14
ATOM     14  C   UNL     1      43.659   4.549  10.495  0.00  0.00    +0.000 C 
BRANCH  14  15
ATOM     15  C   UNL     1      44.812   5.036  11.332  0.00  0.00    +0.000 A 
ATOM     16  C   UNL     1      45.672   6.047  10.890  0.00  0.00    +0.000 A 
ATOM     17  C   UNL     1      46.708   6.483  11.714  0.00  0.00    +0.000 A 
ATOM     18  C   UNL     1      46.840   5.890  12.955  0.00  0.00    +0.000 A 
ATOM     19 CL   UNL     1      48.081   6.371  14.036  0.00  0.00    +0.000 Cl
ATOM     20  N   UNL     1      46.030   4.919  13.426  0.00  0.00    +0.000 NA
ATOM     21  C   UNL     1      45.036   4.516  12.605  0.00  0.00    +0.000 A 
ENDBRANCH  14  15
ENDBRANCH  12  14
ENDBRANCH   5  12
TORSDOF 4
ENDMDL
MODEL 3
REMARK VINA RESULT:    -7.847      3.313      6.043
REMARK INTER + INTRA:          -9.772
REMARK INTER:                  -9.350
REMARK INTRA:                  -0.422
REMARK UNBOUND:                -0.090
REMARK  Name = 
REMARK  4 active torsions:
REMARK  status: ('A' for Active; 'I' for Inactive)
REMARK    1  A    between atoms: C_2  and  C_4
REMARK    2  A    between atoms: C_8  and  N_9
REMARK    3  A    between atoms: N_9  and  C_10
REMARK    4  A    between atoms: C_10  and  C_11
REMARK                            x       y       z     vdW  Elec       q    Type
REMARK                         _______ _______ _______ _____ _____    ______ ____
ROOT
ATOM      1  C   UNL     1      46.637   4.840  13.441  0.00  0.00    +0.000 A 
ATOM      2  C   UNL     1      47.193   6.045  13.043  0.00  0.00    +0.000 A 
ATOM      3  N   UNL     1      46.800   6.716  11.936  0.00  0.00    +0.000 NA
ATOM      4  C   UNL     1      45.791   6.159  11.222  0.00  0.00    +0.000 A 
ATOM      5  C   UNL     1      45.116   4.976  11.553  0.00  0.00    +0.000 A 
ATOM      6  C   UNL     1      45.588   4.303  12.683  0.00  0.00    +0.000 A 
ENDROOT
BRANCH   1   8
ATOM      7  N   UNL     1      47.152   4.910  15.817  0.00  0.00    +0.000 N 
ATOM      8  C   UNL     1      47.163   4.185  14.657  0.00  0.00    +0.000 C 
ATOM      9  O   UNL     1      47.559   3.028  14.640  0.00  0.00    +0.000 OA
ATOM     10  H   UNL     1      47.406   4.404  16.657  0.00  0.00    +0.000 HD
ATOM     11  H   UNL     1      46.589   5.740  15.930  0.00  0.00    +0.000 HD
ENDBRANCH   1   8
BRANCH   5  12
ATOM     12  N   UNL     1      44.134   4.475  10.696  0.00  0.00    +0.000 N 
ATOM     13  H   UNL     1      43.201   4.808  10.940  0.00  0.00    +0.000 HD
BRANCH  12  14
ATOM     14  C   UNL     1      44.155   3.083  10.266  0.00  0.00    +0.000 C 
BRANCH  14  15
ATOM     15  C   UNL     1      45.056   2.923   9.071  0.00  0.00    +0.000 A 
ATOM     16  C   UNL     1      45.688   1.708   8.780  0.00  0.00    +0.000 A 
ATOM     17  C   UNL     1      46.490   1.601   7.646  0.00  0.00    +0.000 A 
ATOM     18  C   UNL     1      46.627   2.716   6.842  0.00  0.00    +0.000 A 
ATOM     19 CL   UNL     1      47.588   2.671   5.423  0.00  0.00    +0.000 Cl
ATOM     20  N   UNL     1      46.031   3.903   7.079  0.00  0.00    +0.000 NA
ATOM     21  C   UNL     1      45.261   3.978   8.186  0.00  0.00    +0.000 A 
ENDBRANCH  14  15
ENDBRANCH  12  14
ENDBRANCH   5  12
TORSDOF 4
ENDMDL
MODEL 4
REMARK VINA RESULT:    -7.560      3.610      6.124
REMARK INTER + INTRA:          -9.418
REMARK INTER:                  -8.891
REMARK INTRA:                  -0.527
REMARK UNBOUND:                -0.090
REMARK  Name = 
REMARK  4 active torsions:
REMARK  status: ('A' for Active; 'I' for Inactive)
REMARK    1  A    between atoms: C_2  and  C_4
REMARK    2  A    between atoms: C_8  and  N_9
REMARK    3  A    between atoms: N_9  and  C_10
REMARK    4  A    between atoms: C_10  and  C_11
REMARK                            x       y       z     vdW  Elec       q    Type
REMARK                         _______ _______ _______ _____ _____    ______ ____
ROOT
ATOM      1  C   UNL     1      47.352   6.038  12.967  0.00  0.00    +0.000 A 
ATOM      2  C   UNL     1      46.982   5.157  13.972  0.00  0.00    +0.000 A 
ATOM      3  N   UNL     1      45.835   4.439  13.947  0.00  0.00    +0.000 NA
ATOM      4  C   UNL     1      45.048   4.602  12.855  0.00  0.00    +0.000 A 
ATOM      5  C   UNL     1      45.340   5.419  11.755  0.00  0.00    +0.000 A 
ATOM      6  C   UNL     1      46.517   6.167  11.849  0.00  0.00    +0.000 A 
ENDROOT
BRANCH   1   8
ATOM      7  N   UNL     1      48.961   7.642  12.102  0.00  0.00    +0.000 N 
ATOM      8  C   UNL     1      48.617   6.786  13.112  0.00  0.00    +0.000 C 
ATOM      9  O   UNL     1      49.316   6.674  14.110  0.00  0.00    +0.000 OA
ATOM     10  H   UNL     1      49.768   8.229  12.276  0.00  0.00    +0.000 HD
ATOM     11  H   UNL     1      48.293   7.966  11.417  0.00  0.00    +0.000 HD
ENDBRANCH   1   8
BRANCH   5  12
ATOM     12  N   UNL     1      44.412   5.546  10.720  0.00  0.00    +0.000 N 
ATOM     13  H   UNL     1      43.774   6.328  10.866  0.00  0.00    +0.000 HD
BRANCH  12  14
ATOM     14  C   UNL     1      43.765   4.374  10.146  0.00  0.00    +0.000 C 
BRANCH  14  15
ATOM     15  C   UNL     1      44.727   3.635   9.253  0.00  0.00    +0.000 A 
ATOM     16  C   UNL     1      45.482   4.293   8.276  0.00  0.00    +0.000 A 
ATOM     17  C   UNL     1      46.380   3.570   7.493  0.00  0.00    +0.000 A 
ATOM     18  C   UNL     1      46.490   2.212   7.723  0.00  0.00    +0.000 A 
ATOM     19 CL   UNL     1      47.576   1.247   6.812  0.00  0.00    +0.000 Cl
ATOM     20  N   UNL     1      45.790   1.538   8.658  0.00  0.00    +0.000 NA
ATOM     21  C   UNL     1      44.926   2.265   9.400  0.00  0.00    +0.000 A 
ENDBRANCH  14  15
ENDBRANCH  12  14
ENDBRANCH   5  12
TORSDOF 4
ENDMDL
MODEL 5
REMARK VINA RESULT:    -7.492      3.446      6.331
REMARK INTER + INTRA:          -9.334
REMARK INTER:                  -8.808
REMARK INTRA:                  -0.526
REMARK UNBOUND:                -0.090
REMARK  Name = 
REMARK  4 active torsions:
REMARK  status: ('A' for Active; 'I' for Inactive)
REMARK    1  A    between atoms: C_2  and  C_4
REMARK    2  A    between atoms: C_8  and  N_9
REMARK    3  A    between atoms: N_9  and  C_10
REMARK    4  A    between atoms: C_10  and  C_11
REMARK                            x       y       z     vdW  Elec       q    Type
REMARK                         _______ _______ _______ _____ _____    ______ ____
ROOT
ATOM      1  C   UNL     1      45.757   6.339  12.649  0.00  0.00    +0.000 A 
ATOM      2  C   UNL     1      46.781   5.993  13.516  0.00  0.00    +0.000 A 
ATOM      3  N   UNL     1      47.148   4.714  13.761  0.00  0.00    +0.000 NA
ATOM      4  C   UNL     1      46.471   3.754  13.084  0.00  0.00    +0.000 A 
ATOM      5  C   UNL     1      45.457   3.982  12.144  0.00  0.00    +0.000 A 
ATOM      6  C   UNL     1      45.090   5.318  11.959  0.00  0.00    +0.000 A 
ENDROOT
BRANCH   1   8
ATOM      7  N   UNL     1      45.928   8.645  13.400  0.00  0.00    +0.000 N 
ATOM      8  C   UNL     1      45.428   7.769  12.476  0.00  0.00    +0.000 C 
ATOM      9  O   UNL     1      44.765   8.163  11.527  0.00  0.00    +0.000 OA
ATOM     10  H   UNL     1      45.788   9.628  13.197  0.00  0.00    +0.000 HD
ATOM     11  H   UNL     1      46.690   8.405  14.017  0.00  0.00    +0.000 HD
ENDBRANCH   1   8
BRANCH   5  12
ATOM     12  N   UNL     1      44.794   2.900  11.563  0.00  0.00    +0.000 N 
ATOM     13  H   UNL     1      45.337   2.038  11.619  0.00  0.00    +0.000 HD
BRANCH  12  14
ATOM     14  C   UNL     1      44.078   3.049  10.303  0.00  0.00    +0.000 C 
BRANCH  14  15
ATOM     15  C   UNL     1      45.029   2.908   9.145  0.00  0.00    +0.000 A 
ATOM     16  C   UNL     1      45.439   4.011   8.386  0.00  0.00    +0.000 A 
ATOM     17  C   UNL     1      46.343   3.834   7.342  0.00  0.00    +0.000 A 
ATOM     18  C   UNL     1      46.808   2.555   7.098  0.00  0.00    +0.000 A 
ATOM     19 CL   UNL     1      47.929   2.248   5.838  0.00  0.00    +0.000 Cl
ATOM     20  N   UNL     1      46.448   1.466   7.807  0.00  0.00    +0.000 NA
ATOM     21  C   UNL     1      45.569   1.668   8.813  0.00  0.00    +0.000 A 
ENDBRANCH  14  15
ENDBRANCH  12  14
ENDBRANCH   5  12
TORSDOF 4
ENDMDL
MODEL 6
REMARK VINA RESULT:    -7.410      3.523      6.260
REMARK INTER + INTRA:          -9.233
REMARK INTER:                  -8.754
REMARK INTRA:                  -0.478
REMARK UNBOUND:                -0.090
REMARK  Name = 
REMARK  4 active torsions:
REMARK  status: ('A' for Active; 'I' for Inactive)
REMARK    1  A    between atoms: C_2  and  C_4
REMARK    2  A    between atoms: C_8  and  N_9
REMARK    3  A    between atoms: N_9  and  C_10
REMARK    4  A    between atoms: C_10  and  C_11
REMARK                            x       y       z     vdW  Elec       q    Type
REMARK                         _______ _______ _______ _____ _____    ______ ____
ROOT
ATOM      1  C   UNL     1      46.245   6.258  13.032  0.00  0.00    +0.000 A 
ATOM      2  C   UNL     1      47.266   5.777  13.837  0.00  0.00    +0.000 A 
ATOM      3  N   UNL     1      47.494   4.460  14.044  0.00  0.00    +0.000 NA
ATOM      4  C   UNL     1      46.674   3.599  13.392  0.00  0.00    +0.000 A 
ATOM      5  C   UNL     1      45.644   3.962  12.513  0.00  0.00    +0.000 A 
ATOM      6  C   UNL     1      45.427   5.335  12.366  0.00  0.00    +0.000 A 
ENDROOT
BRANCH   1   8
ATOM      7  N   UNL     1      44.818   8.186  12.632  0.00  0.00    +0.000 N 
ATOM      8  C   UNL     1      46.077   7.719  12.898  0.00  0.00    +0.000 C 
ATOM      9  O   UNL     1      47.015   8.488  13.053  0.00  0.00    +0.000 OA
ATOM     10  H   UNL     1      44.705   9.192  12.661  0.00  0.00    +0.000 HD
ATOM     11  H   UNL     1      43.992   7.624  12.775  0.00  0.00    +0.000 HD
ENDBRANCH   1   8
BRANCH   5  12
ATOM     12  N   UNL     1      44.829   2.976  11.954  0.00  0.00    +0.000 N 
ATOM     13  H   UNL     1      45.289   2.066  11.922  0.00  0.00    +0.000 HD
BRANCH  12  14
ATOM     14  C   UNL     1      44.018   3.254  10.776  0.00  0.00    +0.000 C 
BRANCH  14  15
ATOM     15  C   UNL     1      44.857   3.144   9.531  0.00  0.00    +0.000 A 
ATOM     16  C   UNL     1      45.364   1.918   9.086  0.00  0.00    +0.000 A 
ATOM     17  C   UNL     1      46.111   1.864   7.912  0.00  0.00    +0.000 A 
ATOM     18  C   UNL     1      46.320   3.043   7.223  0.00  0.00    +0.000 A 
ATOM     19 CL   UNL     1      47.221   3.068   5.764  0.00  0.00    +0.000 Cl
ATOM     20  N   UNL     1      45.844   4.245   7.609  0.00  0.00    +0.000 NA
ATOM     21  C   UNL     1      45.125   4.267   8.752  0.00  0.00    +0.000 A 
ENDBRANCH  14  15
ENDBRANCH  12  14
ENDBRANCH   5  12
TORSDOF 4
ENDMDL
MODEL 7
REMARK VINA RESULT:    -7.309      3.554      6.178
REMARK INTER + INTRA:          -9.108
REMARK INTER:                  -8.681
REMARK INTRA:                  -0.427
REMARK UNBOUND:                -0.090
REMARK  Name = 
REMARK  4 active torsions:
REMARK  status: ('A' for Active; 'I' for Inactive)
REMARK    1  A    between atoms: C_2  and  C_4
REMARK    2  A    between atoms: C_8  and  N_9
REMARK    3  A    between atoms: N_9  and  C_10
REMARK    4  A    between atoms: C_10  and  C_11
REMARK                            x       y       z     vdW  Elec       q    Type
REMARK                         _______ _______ _______ _____ _____    ______ ____
ROOT
ATOM      1  C   UNL     1      46.622   6.675  12.847  0.00  0.00    +0.000 A 
ATOM      2  C   UNL     1      46.279   8.013  12.969  0.00  0.00    +0.000 A 
ATOM      3  N   UNL     1      45.269   8.588  12.277  0.00  0.00    +0.000 NA
ATOM      4  C   UNL     1      44.565   7.773  11.452  0.00  0.00    +0.000 A 
ATOM      5  C   UNL     1      44.782   6.398  11.286  0.00  0.00    +0.000 A 
ATOM      6  C   UNL     1      45.861   5.864  11.994  0.00  0.00    +0.000 A 
ENDROOT
BRANCH   1   8
ATOM      7  N   UNL     1      47.477   5.578  14.842  0.00  0.00    +0.000 N 
ATOM      8  C   UNL     1      47.760   6.161  13.636  0.00  0.00    +0.000 C 
ATOM      9  O   UNL     1      48.908   6.219  13.217  0.00  0.00    +0.000 OA
ATOM     10  H   UNL     1      48.257   5.130  15.308  0.00  0.00    +0.000 HD
ATOM     11  H   UNL     1      46.550   5.265  15.087  0.00  0.00    +0.000 HD
ENDBRANCH   1   8
BRANCH   5  12
ATOM     12  N   UNL     1      44.025   5.685  10.355  0.00  0.00    +0.000 N 
ATOM     13  H   UNL     1      43.142   6.147  10.138  0.00  0.00    +0.000 HD
BRANCH  12  14
ATOM     14  C   UNL     1      43.911   4.235  10.436  0.00  0.00    +0.000 C 
BRANCH  14  15
ATOM     15  C   UNL     1      44.812   3.585   9.420  0.00  0.00    +0.000 A 
ATOM     16  C   UNL     1      45.479   4.330   8.440  0.00  0.00    +0.000 A 
ATOM     17  C   UNL     1      46.324   3.687   7.539  0.00  0.00    +0.000 A 
ATOM     18  C   UNL     1      46.473   2.318   7.655  0.00  0.00    +0.000 A 
ATOM     19 CL   UNL     1      47.499   1.447   6.594  0.00  0.00    +0.000 Cl
ATOM     20  N   UNL     1      45.857   1.562   8.587  0.00  0.00    +0.000 NA
ATOM     21  C   UNL     1      45.043   2.212   9.446  0.00  0.00    +0.000 A 
ENDBRANCH  14  15
ENDBRANCH  12  14
ENDBRANCH   5  12
TORSDOF 4
ENDMDL
MODEL 8
REMARK VINA RESULT:    -6.118      4.237      7.396
REMARK INTER + INTRA:          -7.639
REMARK INTER:                  -7.302
REMARK INTRA:                  -0.337
REMARK UNBOUND:                -0.090
REMARK  Name = 
REMARK  4 active torsions:
REMARK  status: ('A' for Active; 'I' for Inactive)
REMARK    1  A    between atoms: C_2  and  C_4
REMARK    2  A    between atoms: C_8  and  N_9
REMARK    3  A    between atoms: N_9  and  C_10
REMARK    4  A    between atoms: C_10  and  C_11
REMARK                            x       y       z     vdW  Elec       q    Type
REMARK                         _______ _______ _______ _____ _____    ______ ____
ROOT
ATOM      1  C   UNL     1      47.853   4.563  16.606  0.00  0.00    +0.000 A 
ATOM      2  C   UNL     1      48.919   5.393  16.914  0.00  0.00    +0.000 A 
ATOM      3  N   UNL     1      49.393   6.339  16.072  0.00  0.00    +0.000 NA
ATOM      4  C   UNL     1      48.749   6.464  14.885  0.00  0.00    +0.000 A 
ATOM      5  C   UNL     1      47.631   5.722  14.483  0.00  0.00    +0.000 A 
ATOM      6  C   UNL     1      47.206   4.733  15.374  0.00  0.00    +0.000 A 
ENDROOT
BRANCH   1   8
ATOM      7  N   UNL     1      48.149   3.476  18.761  0.00  0.00    +0.000 N 
ATOM      8  C   UNL     1      47.435   3.549  17.596  0.00  0.00    +0.000 C 
ATOM      9  O   UNL     1      46.467   2.826  17.402  0.00  0.00    +0.000 OA
ATOM     10  H   UNL     1      47.774   2.858  19.470  0.00  0.00    +0.000 HD
ATOM     11  H   UNL     1      48.756   4.221  19.071  0.00  0.00    +0.000 HD
ENDBRANCH   1   8
BRANCH   5  12
ATOM     12  N   UNL     1      47.099   5.906  13.205  0.00  0.00    +0.000 N 
ATOM     13  H   UNL     1      47.483   6.729  12.741  0.00  0.00    +0.000 HD
BRANCH  12  14
ATOM     14  C   UNL     1      45.678   5.711  12.950  0.00  0.00    +0.000 C 
BRANCH  14  15
ATOM     15  C   UNL     1      45.475   5.069  11.604  0.00  0.00    +0.000 A 
ATOM     16  C   UNL     1      44.887   3.806  11.467  0.00  0.00    +0.000 A 
ATOM     17  C   UNL     1      44.694   3.267  10.197  0.00  0.00    +0.000 A 
ATOM     18  C   UNL     1      45.095   4.017   9.108  0.00  0.00    +0.000 A 
ATOM     19 CL   UNL     1      44.888   3.434   7.509  0.00  0.00    +0.000 Cl
ATOM     20  N   UNL     1      45.657   5.240   9.191  0.00  0.00    +0.000 NA
ATOM     21  C   UNL     1      45.833   5.737  10.435  0.00  0.00    +0.000 A 
ENDBRANCH  14  15
ENDBRANCH  12  14
ENDBRANCH   5  12
TORSDOF 4
ENDMDL
MODEL 9
REMARK VINA RESULT:    -6.108      3.675      5.215
REMARK INTER + INTRA:          -7.626
REMARK INTER:                  -7.347
REMARK INTRA:                  -0.280
REMARK UNBOUND:                -0.090
REMARK  Name = 
REMARK  4 active torsions:
REMARK  status: ('A' for Active; 'I' for Inactive)
REMARK    1  A    between atoms: C_2  and  C_4
REMARK    2  A    between atoms: C_8  and  N_9
REMARK    3  A    between atoms: N_9  and  C_10
REMARK    4  A    between atoms: C_10  and  C_11
REMARK                            x       y       z     vdW  Elec       q    Type
REMARK                         _______ _______ _______ _____ _____    ______ ____
ROOT
ATOM      1  C   UNL     1      45.079   4.834  11.143  0.00  0.00    +0.000 A 
ATOM      2  C   UNL     1      45.763   5.881  10.544  0.00  0.00    +0.000 A 
ATOM      3  N   UNL     1      46.665   6.649  11.195  0.00  0.00    +0.000 NA
ATOM      4  C   UNL     1      46.902   6.331  12.492  0.00  0.00    +0.000 A 
ATOM      5  C   UNL     1      46.315   5.266  13.189  0.00  0.00    +0.000 A 
ATOM      6  C   UNL     1      45.362   4.529  12.482  0.00  0.00    +0.000 A 
ENDROOT
BRANCH   1   8
ATOM      7  N   UNL     1      44.016   4.372   9.006  0.00  0.00    +0.000 N 
ATOM      8  C   UNL     1      44.099   4.076  10.339  0.00  0.00    +0.000 C 
ATOM      9  O   UNL     1      43.411   3.193  10.834  0.00  0.00    +0.000 OA
ATOM     10  H   UNL     1      43.424   3.762   8.455  0.00  0.00    +0.000 HD
ATOM     11  H   UNL     1      44.741   4.877   8.518  0.00  0.00    +0.000 HD
ENDBRANCH   1   8
BRANCH   5  12
ATOM     12  N   UNL     1      46.598   5.085  14.544  0.00  0.00    +0.000 N 
ATOM     13  H   UNL     1      47.039   5.905  14.961  0.00  0.00    +0.000 HD
BRANCH  12  14
ATOM     14  C   UNL     1      47.144   3.826  15.032  0.00  0.00    +0.000 C 
BRANCH  14  15
ATOM     15  C   UNL     1      47.726   4.011  16.409  0.00  0.00    +0.000 A 
ATOM     16  C   UNL     1      47.928   2.932  17.277  0.00  0.00    +0.000 A 
ATOM     17  C   UNL     1      48.497   3.150  18.530  0.00  0.00    +0.000 A 
ATOM     18  C   UNL     1      48.845   4.445  18.866  0.00  0.00    +0.000 A 
ATOM     19 CL   UNL     1      49.557   4.803  20.384  0.00  0.00    +0.000 Cl
ATOM     20  N   UNL     1      48.676   5.512  18.059  0.00  0.00    +0.000 NA
ATOM     21  C   UNL     1      48.122   5.270  16.851  0.00  0.00    +0.000 A 
ENDBRANCH  14  15
ENDBRANCH  12  14
ENDBRANCH   5  12
TORSDOF 4
ENDMDL
