MODEL 1
REMARK VINA RESULT:    -8.379      0.000      0.000
REMARK INTER + INTRA:         -11.605
REMARK INTER:                 -10.828
REMARK INTRA:                  -0.777
REMARK UNBOUND:                -0.777
REMARK  Name = 
REMARK  5 active torsions:
REMARK  status: ('A' for Active; 'I' for Inactive)
REMARK    1  A    between atoms: C_2  and  C_17
REMARK    2  A    between atoms: N_3  and  C_4
REMARK    3  A    between atoms: C_4  and  C_5
REMARK    4  A    between atoms: C_8  and  C_9
REMARK    5  A    between atoms: C_9  and  C_10
REMARK                            x       y       z     vdW  Elec       q    Type
REMARK                         _______ _______ _______ _____ _____    ______ ____
ROOT
ATOM      1  O   UNL     1      46.900   3.239  13.935  0.00  0.00    +0.000 OA
ATOM      2  C   UNL     1      46.656   4.389  14.277  0.00  0.00    +0.000 C 
ATOM      3  N   UNL     1      45.493   5.036  13.943  0.00  0.00    +0.000 N 
ATOM      4  H   UNL     1      45.434   6.043  14.051  0.00  0.00    +0.000 HD
ENDROOT
BRANCH   2   5
ATOM      5  C   UNL     1      47.581   5.148  15.113  0.00  0.00    +0.000 A 
ATOM      6  C   UNL     1      48.335   6.186  14.584  0.00  0.00    +0.000 A 
ATOM      7  S   UNL     1      49.305   6.971  15.750  0.00  0.00    +0.000 S 
ATOM      8  C   UNL     1      48.732   5.957  16.993  0.00  0.00    +0.000 A 
ATOM      9  N   UNL     1      49.135   6.114  18.281  0.00  0.00    +0.000 NA
ATOM     10  C   UNL     1      48.593   5.292  19.113  0.00  0.00    +0.000 A 
ATOM     11  N   UNL     1      47.691   4.310  18.776  0.00  0.00    +0.000 N 
ATOM     12  C   UNL     1      47.318   4.060  17.482  0.00  0.00    +0.000 A 
ATOM     13  O   UNL     1      46.647   3.077  17.205  0.00  0.00    +0.000 OA
ATOM     14  C   UNL     1      47.850   5.006  16.520  0.00  0.00    +0.000 A 
ATOM     15  H   UNL     1      47.340   3.664  19.465  0.00  0.00    +0.000 HD
ENDBRANCH   2   5
BRANCH   3  16
ATOM     16  C   UNL     1      44.503   4.421  13.104  0.00  0.00    +0.000 C 
BRANCH  16  17
ATOM     17  C   UNL     1      44.870   4.475  11.651  0.00  0.00    +0.000 A 
ATOM     18  C   UNL     1      45.553   5.573  11.131  0.00  0.00    +0.000 A 
ATOM     19  C   UNL     1      45.946   5.584   9.795  0.00  0.00    +0.000 A 
ATOM     20  C   UNL     1      45.671   4.472   9.002  0.00  0.00    +0.000 A 
ATOM     21  N   UNL     1      44.963   3.415   9.472  0.00  0.00    +0.000 NA
ATOM     22  C   UNL     1      44.569   3.445  10.769  0.00  0.00    +0.000 A 
BRANCH  20  23
ATOM     23  C   UNL     1      46.223   4.358   7.593  0.00  0.00    +0.000 C 
BRANCH  23  24
ATOM     24  C   UNL     1      45.946   2.981   6.940  0.00  0.00    +0.000 C 
ATOM     25  C   UNL     1      46.587   2.814   5.566  0.00  0.00    +0.000 C 
ATOM     26  C   UNL     1      47.985   2.328   5.885  0.00  0.00    +0.000 C 
ATOM     27  C   UNL     1      47.811   1.501   7.146  0.00  0.00    +0.000 C 
ATOM     28  N   UNL     1      46.493   1.837   7.694  0.00  0.00    +0.000 NA
ATOM     29  H   UNL     1      46.540   2.011   8.695  0.00  0.00    +0.000 HD
ENDBRANCH  23  24
ENDBRANCH  20  23
ENDBRANCH  16  17
ENDBRANCH   3  16
TORSDOF 5
ENDMDL
MODEL 2
REMARK VINA RESULT:    -7.622      2.002      3.151
REMARK INTER + INTRA:         -10.627
REMARK INTER:                  -9.871
REMARK INTRA:                  -0.756
REMARK UNBOUND:                -0.777
REMARK  Name = 
REMARK  5 active torsions:
REMARK  status: ('A' for Active; 'I' for Inactive)
REMARK    1  A    between atoms: C_2  and  C_17
REMARK    2  A    between atoms: N_3  and  C_4
REMARK    3  A    between atoms: C_4  and  C_5
REMARK    4  A    between atoms: C_8  and  C_9
REMARK    5  A    between atoms: C_9  and  C_10
REMARK                            x       y       z     vdW  Elec       q    Type
REMARK                         _______ _______ _______ _____ _____    ______ ____
ROOT
ATOM      1  O   UNL     1      46.536   3.524  13.804  0.00  0.00    +0.000 OA
ATOM      2  C   UNL     1      46.428   4.735  13.957  0.00  0.00    +0.000 C 
ATOM      3  N   UNL     1      45.273   5.421  13.681  0.00  0.00    +0.000 N 
ATOM      4  H   UNL     1      45.300   6.433  13.606  0.00  0.00    +0.000 HD
ENDROOT
BRANCH   2   5
ATOM      5  C   UNL     1      47.525   5.535  14.491  0.00  0.00    +0.000 A 
ATOM      6  C   UNL     1      47.954   5.375  15.802  0.00  0.00    +0.000 A 
ATOM      7  S   UNL     1      49.284   6.370  16.198  0.00  0.00    +0.000 S 
ATOM      8  C   UNL     1      49.333   7.027  14.626  0.00  0.00    +0.000 A 
ATOM      9  N   UNL     1      50.279   7.933  14.265  0.00  0.00    +0.000 NA
ATOM     10  C   UNL     1      50.207   8.316  13.036  0.00  0.00    +0.000 A 
ATOM     11  N   UNL     1      49.263   7.889  12.132  0.00  0.00    +0.000 N 
ATOM     12  C   UNL     1      48.242   7.042  12.471  0.00  0.00    +0.000 A 
ATOM     13  O   UNL     1      47.330   6.818  11.689  0.00  0.00    +0.000 OA
ATOM     14  C   UNL     1      48.324   6.531  13.826  0.00  0.00    +0.000 A 
ATOM     15  H   UNL     1      49.227   8.264  11.197  0.00  0.00    +0.000 HD
ENDBRANCH   2   5
BRANCH   3  16
ATOM     16  C   UNL     1      44.121   4.767  13.125  0.00  0.00    +0.000 C 
BRANCH  16  17
ATOM     17  C   UNL     1      44.299   4.428  11.676  0.00  0.00    +0.000 A 
ATOM     18  C   UNL     1      44.872   5.345  10.796  0.00  0.00    +0.000 A 
ATOM     19  C   UNL     1      45.092   4.995   9.466  0.00  0.00    +0.000 A 
ATOM     20  C   UNL     1      44.757   3.711   9.042  0.00  0.00    +0.000 A 
ATOM     21  N   UNL     1      44.152   2.820   9.867  0.00  0.00    +0.000 NA
ATOM     22  C   UNL     1      43.924   3.199  11.149  0.00  0.00    +0.000 A 
BRANCH  20  23
ATOM     23  C   UNL     1      45.129   3.221   7.655  0.00  0.00    +0.000 C 
BRANCH  23  24
ATOM     24  C   UNL     1      46.630   3.407   7.324  0.00  0.00    +0.000 C 
ATOM     25  C   UNL     1      47.424   2.105   7.324  0.00  0.00    +0.000 C 
ATOM     26  C   UNL     1      47.229   1.572   5.920  0.00  0.00    +0.000 C 
ATOM     27  C   UNL     1      47.127   2.820   5.062  0.00  0.00    +0.000 C 
ATOM     28  N   UNL     1      46.886   3.942   5.973  0.00  0.00    +0.000 NA
ATOM     29  H   UNL     1      46.134   4.539   5.637  0.00  0.00    +0.000 HD
ENDBRANCH  23  24
ENDBRANCH  20  23
ENDBRANCH  16  17
ENDBRANCH   3  16
TORSDOF 5
ENDMDL
MODEL 3
REMARK VINA RESULT:    -7.539      4.144      8.541
REMARK INTER + INTRA:         -10.520
REMARK INTER:                  -9.745
REMARK INTRA:                  -0.775
REMARK UNBOUND:                -0.777
REMARK  Name = 
REMARK  5 active torsions:
REMARK  status: ('A' for Active; 'I' for Inactive)
REMARK    1  A    between atoms: C_2  and  C_17
REMARK    2  A    between atoms: N_3  and  C_4
REMARK    3  A    between atoms: C_4  and  C_5
REMARK    4  A    between atoms: C_8  and  C_9
REMARK    5  A    between atoms: C_9  and  C_10
REMARK                            x       y       z     vdW  Elec       q    Type
REMARK                         _______ _______ _______ _____ _____    ______ ____
ROOT
ATOM      1  O   UNL     1      47.187   3.050  14.100  0.00  0.00    +0.000 OA
ATOM      2  C   UNL     1      46.861   4.132  14.573  0.00  0.00    +0.000 C 
ATOM      3  N   UNL     1      46.849   4.383  15.921  0.00  0.00    +0.000 N 
ATOM      4  H   UNL     1      46.363   5.202  16.272  0.00  0.00    +0.000 HD
ENDROOT
BRANCH   2   5
ATOM      5  C   UNL     1      46.497   5.258  13.718  0.00  0.00    +0.000 A 
ATOM      6  C   UNL     1      47.385   6.302  13.496  0.00  0.00    +0.000 A 
ATOM      7  S   UNL     1      46.776   7.481  12.421  0.00  0.00    +0.000 S 
ATOM      8  C   UNL     1      45.321   6.620  12.211  0.00  0.00    +0.000 A 
ATOM      9  N   UNL     1      44.350   7.062  11.369  0.00  0.00    +0.000 NA
ATOM     10  C   UNL     1      43.320   6.290  11.293  0.00  0.00    +0.000 A 
ATOM     11  N   UNL     1      43.160   5.118  11.994  0.00  0.00    +0.000 N 
ATOM     12  C   UNL     1      44.073   4.675  12.914  0.00  0.00    +0.000 A 
ATOM     13  O   UNL     1      43.820   3.722  13.636  0.00  0.00    +0.000 OA
ATOM     14  C   UNL     1      45.280   5.476  12.982  0.00  0.00    +0.000 A 
ATOM     15  H   UNL     1      42.309   4.583  11.930  0.00  0.00    +0.000 HD
ENDBRANCH   2   5
BRANCH   3  16
ATOM     16  C   UNL     1      47.159   3.361  16.882  0.00  0.00    +0.000 C 
BRANCH  16  17
ATOM     17  C   UNL     1      48.635   3.153  17.041  0.00  0.00    +0.000 A 
ATOM     18  C   UNL     1      49.429   4.127  17.644  0.00  0.00    +0.000 A 
ATOM     19  C   UNL     1      50.787   3.896  17.846  0.00  0.00    +0.000 A 
ATOM     20  C   UNL     1      51.327   2.670  17.463  0.00  0.00    +0.000 A 
ATOM     21  N   UNL     1      50.585   1.728  16.829  0.00  0.00    +0.000 NA
ATOM     22  C   UNL     1      49.272   1.993  16.620  0.00  0.00    +0.000 A 
BRANCH  20  23
ATOM     23  C   UNL     1      52.756   2.299  17.811  0.00  0.00    +0.000 C 
BRANCH  23  24
ATOM     24  C   UNL     1      53.188   0.928  17.235  0.00  0.00    +0.000 C 
ATOM     25  C   UNL     1      54.667   0.855  16.868  0.00  0.00    +0.000 C 
ATOM     26  C   UNL     1      55.335   0.465  18.170  0.00  0.00    +0.000 C 
ATOM     27  C   UNL     1      54.310  -0.415  18.863  0.00  0.00    +0.000 C 
ATOM     28  N   UNL     1      53.033  -0.196  18.178  0.00  0.00    +0.000 NA
ATOM     29  H   UNL     1      52.275  -0.053  18.841  0.00  0.00    +0.000 HD
ENDBRANCH  23  24
ENDBRANCH  20  23
ENDBRANCH  16  17
ENDBRANCH   3  16
TORSDOF 5
ENDMDL
MODEL 4
REMARK VINA RESULT:    -6.948      3.986      9.159
REMARK INTER + INTRA:          -9.756
REMARK INTER:                  -8.784
REMARK INTRA:                  -0.972
REMARK UNBOUND:                -0.777
REMARK  Name = 
REMARK  5 active torsions:
REMARK  status: ('A' for Active; 'I' for Inactive)
REMARK    1  A    between atoms: C_2  and  C_17
REMARK    2  A    between atoms: N_3  and  C_4
REMARK    3  A    between atoms: C_4  and  C_5
REMARK    4  A    between atoms: C_8  and  C_9
REMARK    5  A    between atoms: C_9  and  C_10
REMARK                            x       y       z     vdW  Elec       q    Type
REMARK                         _______ _______ _______ _____ _____    ______ ____
ROOT
ATOM      1  O   UNL     1      47.166   3.226  13.886  0.00  0.00    +0.000 OA
ATOM      2  C   UNL     1      46.693   4.245  14.375  0.00  0.00    +0.000 C 
ATOM      3  N   UNL     1      46.700   4.498  15.722  0.00  0.00    +0.000 N 
ATOM      4  H   UNL     1      46.105   5.230  16.096  0.00  0.00    +0.000 HD
ENDROOT
BRANCH   2   5
ATOM      5  C   UNL     1      46.119   5.295  13.539  0.00  0.00    +0.000 A 
ATOM      6  C   UNL     1      46.833   6.450  13.252  0.00  0.00    +0.000 A 
ATOM      7  S   UNL     1      45.995   7.515  12.212  0.00  0.00    +0.000 S 
ATOM      8  C   UNL     1      44.667   6.454  12.104  0.00  0.00    +0.000 A 
ATOM      9  N   UNL     1      43.591   6.741  11.325  0.00  0.00    +0.000 NA
ATOM     10  C   UNL     1      42.679   5.829  11.321  0.00  0.00    +0.000 A 
ATOM     11  N   UNL     1      42.732   4.657  12.039  0.00  0.00    +0.000 N 
ATOM     12  C   UNL     1      43.756   4.363  12.900  0.00  0.00    +0.000 A 
ATOM     13  O   UNL     1      43.688   3.394  13.643  0.00  0.00    +0.000 OA
ATOM     14  C   UNL     1      44.838   5.327  12.883  0.00  0.00    +0.000 A 
ATOM     15  H   UNL     1      41.963   4.006  12.034  0.00  0.00    +0.000 HD
ENDBRANCH   2   5
BRANCH   3  16
ATOM     16  C   UNL     1      47.209   3.543  16.667  0.00  0.00    +0.000 C 
BRANCH  16  17
ATOM     17  C   UNL     1      48.667   3.743  16.956  0.00  0.00    +0.000 A 
ATOM     18  C   UNL     1      49.214   5.024  16.990  0.00  0.00    +0.000 A 
ATOM     19  C   UNL     1      50.555   5.203  17.324  0.00  0.00    +0.000 A 
ATOM     20  C   UNL     1      51.324   4.088  17.648  0.00  0.00    +0.000 A 
ATOM     21  N   UNL     1      50.826   2.829  17.571  0.00  0.00    +0.000 NA
ATOM     22  C   UNL     1      49.525   2.684  17.216  0.00  0.00    +0.000 A 
BRANCH  20  23
ATOM     23  C   UNL     1      52.737   4.238  18.181  0.00  0.00    +0.000 C 
BRANCH  23  24
ATOM     24  C   UNL     1      52.834   4.040  19.713  0.00  0.00    +0.000 C 
ATOM     25  C   UNL     1      53.793   5.009  20.397  0.00  0.00    +0.000 C 
ATOM     26  C   UNL     1      52.936   6.230  20.657  0.00  0.00    +0.000 C 
ATOM     27  C   UNL     1      51.551   5.663  20.909  0.00  0.00    +0.000 C 
ATOM     28  N   UNL     1      51.568   4.277  20.432  0.00  0.00    +0.000 NA
ATOM     29  H   UNL     1      50.748   4.068  19.866  0.00  0.00    +0.000 HD
ENDBRANCH  23  24
ENDBRANCH  20  23
ENDBRANCH  16  17
ENDBRANCH   3  16
TORSDOF 5
ENDMDL
MODEL 5
REMARK VINA RESULT:    -6.856      3.196      8.263
REMARK INTER + INTRA:          -9.637
REMARK INTER:                  -8.642
REMARK INTRA:                  -0.995
REMARK UNBOUND:                -0.777
REMARK  Name = 
REMARK  5 active torsions:
REMARK  status: ('A' for Active; 'I' for Inactive)
REMARK    1  A    between atoms: C_2  and  C_17
REMARK    2  A    between atoms: N_3  and  C_4
REMARK    3  A    between atoms: C_4  and  C_5
REMARK    4  A    between atoms: C_8  and  C_9
REMARK    5  A    between atoms: C_9  and  C_10
REMARK                            x       y       z     vdW  Elec       q    Type
REMARK                         _______ _______ _______ _____ _____    ______ ____
ROOT
ATOM      1  O   UNL     1      45.621   7.759  11.799  0.00  0.00    +0.000 OA
ATOM      2  C   UNL     1      46.255   6.798  11.381  0.00  0.00    +0.000 C 
ATOM      3  N   UNL     1      47.613   6.679  11.527  0.00  0.00    +0.000 N 
ATOM      4  H   UNL     1      48.117   5.993  10.976  0.00  0.00    +0.000 HD
ENDROOT
BRANCH   2   5
ATOM      5  C   UNL     1      45.592   5.676  10.725  0.00  0.00    +0.000 A 
ATOM      6  C   UNL     1      45.737   5.457   9.361  0.00  0.00    +0.000 A 
ATOM      7  S   UNL     1      44.922   4.059   8.816  0.00  0.00    +0.000 S 
ATOM      8  C   UNL     1      44.370   3.699  10.388  0.00  0.00    +0.000 A 
ATOM      9  N   UNL     1      43.631   2.588  10.643  0.00  0.00    +0.000 NA
ATOM     10  C   UNL     1      43.312   2.435  11.883  0.00  0.00    +0.000 A 
ATOM     11  N   UNL     1      43.650   3.301  12.897  0.00  0.00    +0.000 N 
ATOM     12  C   UNL     1      44.321   4.474  12.675  0.00  0.00    +0.000 A 
ATOM     13  O   UNL     1      44.456   5.294  13.571  0.00  0.00    +0.000 OA
ATOM     14  C   UNL     1      44.761   4.654  11.305  0.00  0.00    +0.000 A 
ATOM     15  H   UNL     1      43.327   3.153  13.840  0.00  0.00    +0.000 HD
ENDBRANCH   2   5
BRANCH   3  16
ATOM     16  C   UNL     1      48.401   7.719  12.130  0.00  0.00    +0.000 C 
BRANCH  16  17
ATOM     17  C   UNL     1      48.920   7.333  13.483  0.00  0.00    +0.000 A 
ATOM     18  C   UNL     1      50.146   7.817  13.937  0.00  0.00    +0.000 A 
ATOM     19  C   UNL     1      50.589   7.505  15.220  0.00  0.00    +0.000 A 
ATOM     20  C   UNL     1      49.777   6.730  16.044  0.00  0.00    +0.000 A 
ATOM     21  N   UNL     1      48.605   6.205  15.606  0.00  0.00    +0.000 NA
ATOM     22  C   UNL     1      48.213   6.503  14.342  0.00  0.00    +0.000 A 
BRANCH  20  23
ATOM     23  C   UNL     1      50.129   6.501  17.503  0.00  0.00    +0.000 C 
BRANCH  23  24
ATOM     24  C   UNL     1      50.585   5.052  17.800  0.00  0.00    +0.000 C 
ATOM     25  C   UNL     1      50.404   4.638  19.257  0.00  0.00    +0.000 C 
ATOM     26  C   UNL     1      48.972   4.149  19.312  0.00  0.00    +0.000 C 
ATOM     27  C   UNL     1      48.736   3.543  17.940  0.00  0.00    +0.000 C 
ATOM     28  N   UNL     1      49.819   4.020  17.074  0.00  0.00    +0.000 NA
ATOM     29  H   UNL     1      49.462   4.349  16.180  0.00  0.00    +0.000 HD
ENDBRANCH  23  24
ENDBRANCH  20  23
ENDBRANCH  16  17
ENDBRANCH   3  16
TORSDOF 5
ENDMDL
MODEL 6
REMARK VINA RESULT:    -6.795      1.755      2.117
REMARK INTER + INTRA:          -9.558
REMARK INTER:                  -8.911
REMARK INTRA:                  -0.647
REMARK UNBOUND:                -0.777
REMARK  Name = 
REMARK  5 active torsions:
REMARK  status: ('A' for Active; 'I' for Inactive)
REMARK    1  A    between atoms: C_2  and  C_17
REMARK    2  A    between atoms: N_3  and  C_4
REMARK    3  A    between atoms: C_4  and  C_5
REMARK    4  A    between atoms: C_8  and  C_9
REMARK    5  A    between atoms: C_9  and  C_10
REMARK                            x       y       z     vdW  Elec       q    Type
REMARK                         _______ _______ _______ _____ _____    ______ ____
ROOT
ATOM      1  O   UNL     1      46.266   7.803  13.364  0.00  0.00    +0.000 OA
ATOM      2  C   UNL     1      46.986   6.881  13.729  0.00  0.00    +0.000 C 
ATOM      3  N   UNL     1      46.587   5.569  13.706  0.00  0.00    +0.000 N 
ATOM      4  H   UNL     1      47.120   4.876  14.222  0.00  0.00    +0.000 HD
ENDROOT
BRANCH   2   5
ATOM      5  C   UNL     1      48.354   7.116  14.180  0.00  0.00    +0.000 A 
ATOM      6  C   UNL     1      49.201   7.964  13.480  0.00  0.00    +0.000 A 
ATOM      7  S   UNL     1      50.732   8.138  14.216  0.00  0.00    +0.000 S 
ATOM      8  C   UNL     1      50.298   7.101  15.497  0.00  0.00    +0.000 A 
ATOM      9  N   UNL     1      51.152   6.841  16.520  0.00  0.00    +0.000 NA
ATOM     10  C   UNL     1      50.672   6.063  17.429  0.00  0.00    +0.000 A 
ATOM     11  N   UNL     1      49.416   5.503  17.405  0.00  0.00    +0.000 N 
ATOM     12  C   UNL     1      48.552   5.670  16.356  0.00  0.00    +0.000 A 
ATOM     13  O   UNL     1      47.516   5.025  16.292  0.00  0.00    +0.000 OA
ATOM     14  C   UNL     1      49.023   6.594  15.343  0.00  0.00    +0.000 A 
ATOM     15  H   UNL     1      49.116   4.861  18.121  0.00  0.00    +0.000 HD
ENDBRANCH   2   5
BRANCH   3  16
ATOM     16  C   UNL     1      45.259   5.191  13.310  0.00  0.00    +0.000 C 
BRANCH  16  17
ATOM     17  C   UNL     1      45.184   4.784  11.869  0.00  0.00    +0.000 A 
ATOM     18  C   UNL     1      45.433   5.710  10.856  0.00  0.00    +0.000 A 
ATOM     19  C   UNL     1      45.426   5.306   9.523  0.00  0.00    +0.000 A 
ATOM     20  C   UNL     1      45.195   3.966   9.225  0.00  0.00    +0.000 A 
ATOM     21  N   UNL     1      44.900   3.059  10.190  0.00  0.00    +0.000 NA
ATOM     22  C   UNL     1      44.886   3.486  11.477  0.00  0.00    +0.000 A 
BRANCH  20  23
ATOM     23  C   UNL     1      45.342   3.440   7.810  0.00  0.00    +0.000 C 
BRANCH  23  24
ATOM     24  C   UNL     1      46.784   3.565   7.260  0.00  0.00    +0.000 C 
ATOM     25  C   UNL     1      47.566   2.255   7.285  0.00  0.00    +0.000 C 
ATOM     26  C   UNL     1      47.178   1.586   5.983  0.00  0.00    +0.000 C 
ATOM     27  C   UNL     1      46.963   2.742   5.023  0.00  0.00    +0.000 C 
ATOM     28  N   UNL     1      46.853   3.955   5.838  0.00  0.00    +0.000 NA
ATOM     29  H   UNL     1      46.065   4.529   5.548  0.00  0.00    +0.000 HD
ENDBRANCH  23  24
ENDBRANCH  20  23
ENDBRANCH  16  17
ENDBRANCH   3  16
TORSDOF 5
ENDMDL
MODEL 7
REMARK VINA RESULT:    -6.661      3.689      5.874
REMARK INTER + INTRA:          -9.385
REMARK INTER:                  -8.465
REMARK INTRA:                  -0.920
REMARK UNBOUND:                -0.777
REMARK  Name = 
REMARK  5 active torsions:
REMARK  status: ('A' for Active; 'I' for Inactive)
REMARK    1  A    between atoms: C_2  and  C_17
REMARK    2  A    between atoms: N_3  and  C_4
REMARK    3  A    between atoms: C_4  and  C_5
REMARK    4  A    between atoms: C_8  and  C_9
REMARK    5  A    between atoms: C_9  and  C_10
REMARK                            x       y       z     vdW  Elec       q    Type
REMARK                         _______ _______ _______ _____ _____    ______ ____
ROOT
ATOM      1  O   UNL     1      51.495   6.184  16.613  0.00  0.00    +0.000 OA
ATOM      2  C   UNL     1      51.225   5.261  17.372  0.00  0.00    +0.000 C 
ATOM      3  N   UNL     1      49.957   5.027  17.840  0.00  0.00    +0.000 N 
ATOM      4  H   UNL     1      49.824   4.406  18.631  0.00  0.00    +0.000 HD
ENDROOT
BRANCH   2   5
ATOM      5  C   UNL     1      52.243   4.309  17.805  0.00  0.00    +0.000 A 
ATOM      6  C   UNL     1      53.444   4.744  18.347  0.00  0.00    +0.000 A 
ATOM      7  S   UNL     1      54.461   3.462  18.836  0.00  0.00    +0.000 S 
ATOM      8  C   UNL     1      53.318   2.295  18.353  0.00  0.00    +0.000 A 
ATOM      9  N   UNL     1      53.542   0.967  18.530  0.00  0.00    +0.000 NA
ATOM     10  C   UNL     1      52.574   0.208  18.143  0.00  0.00    +0.000 A 
ATOM     11  N   UNL     1      51.401   0.653  17.578  0.00  0.00    +0.000 N 
ATOM     12  C   UNL     1      51.166   1.974  17.304  0.00  0.00    +0.000 A 
ATOM     13  O   UNL     1      50.189   2.312  16.652  0.00  0.00    +0.000 OA
ATOM     14  C   UNL     1      52.198   2.871  17.786  0.00  0.00    +0.000 A 
ATOM     15  H   UNL     1      50.702   0.006  17.248  0.00  0.00    +0.000 HD
ENDBRANCH   2   5
BRANCH   3  16
ATOM     16  C   UNL     1      48.861   5.898  17.518  0.00  0.00    +0.000 C 
BRANCH  16  17
ATOM     17  C   UNL     1      48.224   5.556  16.205  0.00  0.00    +0.000 A 
ATOM     18  C   UNL     1      47.501   4.375  16.052  0.00  0.00    +0.000 A 
ATOM     19  C   UNL     1      46.858   4.098  14.848  0.00  0.00    +0.000 A 
ATOM     20  C   UNL     1      46.928   5.031  13.817  0.00  0.00    +0.000 A 
ATOM     21  N   UNL     1      47.667   6.163  13.924  0.00  0.00    +0.000 NA
ATOM     22  C   UNL     1      48.305   6.392  15.099  0.00  0.00    +0.000 A 
BRANCH  20  23
ATOM     23  C   UNL     1      46.111   4.862  12.549  0.00  0.00    +0.000 C 
BRANCH  23  24
ATOM     24  C   UNL     1      45.018   3.773  12.669  0.00  0.00    +0.000 C 
ATOM     25  C   UNL     1      43.604   4.333  12.788  0.00  0.00    +0.000 C 
ATOM     26  C   UNL     1      43.179   4.534  11.349  0.00  0.00    +0.000 C 
ATOM     27  C   UNL     1      43.879   3.415  10.597  0.00  0.00    +0.000 C 
ATOM     28  N   UNL     1      44.917   2.890  11.490  0.00  0.00    +0.000 NA
ATOM     29  H   UNL     1      45.804   2.778  11.004  0.00  0.00    +0.000 HD
ENDBRANCH  23  24
ENDBRANCH  20  23
ENDBRANCH  16  17
ENDBRANCH   3  16
TORSDOF 5
ENDMDL
MODEL 8
REMARK VINA RESULT:    -6.561      4.260      8.638
REMARK INTER + INTRA:          -9.256
REMARK INTER:                  -8.324
REMARK INTRA:                  -0.933
REMARK UNBOUND:                -0.777
REMARK  Name = 
REMARK  5 active torsions:
REMARK  status: ('A' for Active; 'I' for Inactive)
REMARK    1  A    between atoms: C_2  and  C_17
REMARK    2  A    between atoms: N_3  and  C_4
REMARK    3  A    between atoms: C_4  and  C_5
REMARK    4  A    between atoms: C_8  and  C_9
REMARK    5  A    between atoms: C_9  and  C_10
REMARK                            x       y       z     vdW  Elec       q    Type
REMARK                         _______ _______ _______ _____ _____    ______ ____
ROOT
ATOM      1  O   UNL     1      47.156   3.232  14.040  0.00  0.00    +0.000 OA
ATOM      2  C   UNL     1      46.960   4.368  14.453  0.00  0.00    +0.000 C 
ATOM      3  N   UNL     1      46.992   4.694  15.785  0.00  0.00    +0.000 N 
ATOM      4  H   UNL     1      46.606   5.580  16.092  0.00  0.00    +0.000 HD
ENDROOT
BRANCH   2   5
ATOM      5  C   UNL     1      46.716   5.479  13.539  0.00  0.00    +0.000 A 
ATOM      6  C   UNL     1      45.622   5.474  12.684  0.00  0.00    +0.000 A 
ATOM      7  S   UNL     1      45.500   6.895  11.745  0.00  0.00    +0.000 S 
ATOM      8  C   UNL     1      46.893   7.560  12.467  0.00  0.00    +0.000 A 
ATOM      9  N   UNL     1      47.336   8.803  12.141  0.00  0.00    +0.000 NA
ATOM     10  C   UNL     1      48.383   9.181  12.792  0.00  0.00    +0.000 A 
ATOM     11  N   UNL     1      49.043   8.424  13.732  0.00  0.00    +0.000 N 
ATOM     12  C   UNL     1      48.683   7.138  14.032  0.00  0.00    +0.000 A 
ATOM     13  O   UNL     1      49.390   6.442  14.746  0.00  0.00    +0.000 OA
ATOM     14  C   UNL     1      47.468   6.695  13.375  0.00  0.00    +0.000 A 
ATOM     15  H   UNL     1      49.888   8.756  14.170  0.00  0.00    +0.000 HD
ENDBRANCH   2   5
BRANCH   3  16
ATOM     16  C   UNL     1      47.195   3.698  16.800  0.00  0.00    +0.000 C 
BRANCH  16  17
ATOM     17  C   UNL     1      48.642   3.346  16.977  0.00  0.00    +0.000 A 
ATOM     18  C   UNL     1      49.528   4.254  17.555  0.00  0.00    +0.000 A 
ATOM     19  C   UNL     1      50.855   3.894  17.775  0.00  0.00    +0.000 A 
ATOM     20  C   UNL     1      51.270   2.608  17.435  0.00  0.00    +0.000 A 
ATOM     21  N   UNL     1      50.440   1.726  16.825  0.00  0.00    +0.000 NA
ATOM     22  C   UNL     1      49.160   2.116  16.598  0.00  0.00    +0.000 A 
BRANCH  20  23
ATOM     23  C   UNL     1      52.653   2.106  17.805  0.00  0.00    +0.000 C 
BRANCH  23  24
ATOM     24  C   UNL     1      53.475   3.131  18.625  0.00  0.00    +0.000 C 
ATOM     25  C   UNL     1      54.307   2.501  19.737  0.00  0.00    +0.000 C 
ATOM     26  C   UNL     1      55.590   2.103  19.038  0.00  0.00    +0.000 C 
ATOM     27  C   UNL     1      55.773   3.166  17.969  0.00  0.00    +0.000 C 
ATOM     28  N   UNL     1      54.488   3.858  17.836  0.00  0.00    +0.000 NA
ATOM     29  H   UNL     1      54.223   3.967  16.859  0.00  0.00    +0.000 HD
ENDBRANCH  23  24
ENDBRANCH  20  23
ENDBRANCH  16  17
ENDBRANCH   3  16
TORSDOF 5
ENDMDL
MODEL 9
REMARK VINA RESULT:    -5.937      4.250      8.969
REMARK INTER + INTRA:          -8.449
REMARK INTER:                  -7.165
REMARK INTRA:                  -1.284
REMARK UNBOUND:                -0.777
REMARK  Name = 
REMARK  5 active torsions:
REMARK  status: ('A' for Active; 'I' for Inactive)
REMARK    1  A    between atoms: C_2  and  C_17
REMARK    2  A    between atoms: N_3  and  C_4
REMARK    3  A    between atoms: C_4  and  C_5
REMARK    4  A    between atoms: C_8  and  C_9
REMARK    5  A    between atoms: C_9  and  C_10
REMARK                            x       y       z     vdW  Elec       q    Type
REMARK                         _______ _______ _______ _____ _____    ______ ____
ROOT
ATOM      1  O   UNL     1      47.251   3.069  13.936  0.00  0.00    +0.000 OA
ATOM      2  C   UNL     1      46.864   4.122  14.431  0.00  0.00    +0.000 C 
ATOM      3  N   UNL     1      46.957   4.394  15.771  0.00  0.00    +0.000 N 
ATOM      4  H   UNL     1      46.426   5.165  16.162  0.00  0.00    +0.000 HD
ENDROOT
BRANCH   2   5
ATOM      5  C   UNL     1      46.309   5.191  13.607  0.00  0.00    +0.000 A 
ATOM      6  C   UNL     1      45.067   5.055  13.002  0.00  0.00    +0.000 A 
ATOM      7  S   UNL     1      44.589   6.447  12.135  0.00  0.00    +0.000 S 
ATOM      8  C   UNL     1      46.019   7.271  12.558  0.00  0.00    +0.000 A 
ATOM      9  N   UNL     1      46.240   8.554  12.169  0.00  0.00    +0.000 NA
ATOM     10  C   UNL     1      47.351   9.054  12.590  0.00  0.00    +0.000 A 
ATOM     11  N   UNL     1      48.276   8.384  13.357  0.00  0.00    +0.000 N 
ATOM     12  C   UNL     1      48.136   7.067  13.704  0.00  0.00    +0.000 A 
ATOM     13  O   UNL     1      49.051   6.461  14.241  0.00  0.00    +0.000 OA
ATOM     14  C   UNL     1      46.867   6.484  13.310  0.00  0.00    +0.000 A 
ATOM     15  H   UNL     1      49.151   8.813  13.613  0.00  0.00    +0.000 HD
ENDBRANCH   2   5
BRANCH   3  16
ATOM     16  C   UNL     1      47.458   3.424  16.705  0.00  0.00    +0.000 C 
BRANCH  16  17
ATOM     17  C   UNL     1      48.413   4.022  17.695  0.00  0.00    +0.000 A 
ATOM     18  C   UNL     1      49.772   3.715  17.645  0.00  0.00    +0.000 A 
ATOM     19  C   UNL     1      50.660   4.326  18.528  0.00  0.00    +0.000 A 
ATOM     20  C   UNL     1      50.172   5.264  19.434  0.00  0.00    +0.000 A 
ATOM     21  N   UNL     1      48.847   5.540  19.535  0.00  0.00    +0.000 NA
ATOM     22  C   UNL     1      48.003   4.908  18.682  0.00  0.00    +0.000 A 
BRANCH  20  23
ATOM     23  C   UNL     1      51.111   6.082  20.300  0.00  0.00    +0.000 C 
BRANCH  23  24
ATOM     24  C   UNL     1      51.110   7.589  19.945  0.00  0.00    +0.000 C 
ATOM     25  C   UNL     1      52.506   8.186  19.798  0.00  0.00    +0.000 C 
ATOM     26  C   UNL     1      52.864   7.896  18.355  0.00  0.00    +0.000 C 
ATOM     27  C   UNL     1      51.536   7.964  17.624  0.00  0.00    +0.000 C 
ATOM     28  N   UNL     1      50.486   7.900  18.645  0.00  0.00    +0.000 NA
ATOM     29  H   UNL     1      49.757   7.239  18.389  0.00  0.00    +0.000 HD
ENDBRANCH  23  24
ENDBRANCH  20  23
ENDBRANCH  16  17
ENDBRANCH   3  16
TORSDOF 5
ENDMDL
