MODEL 1
REMARK VINA RESULT:    -9.087      0.000      0.000
REMARK INTER + INTRA:         -13.481
REMARK INTER:                 -12.805
REMARK INTRA:                  -0.676
REMARK UNBOUND:                -0.676
REMARK  Name = 
REMARK  7 active torsions:
REMARK  status: ('A' for Active; 'I' for Inactive)
REMARK    1  A    between atoms: C_2  and  C_20
REMARK    2  A    between atoms: N_3  and  C_4
REMARK    3  A    between atoms: C_4  and  C_5
REMARK    4  A    between atoms: C_8  and  C_9
REMARK    5  A    between atoms: C_9  and  O_10
REMARK    6  A    between atoms: O_10  and  C_11
REMARK    7  A    between atoms: C_11  and  C_12
REMARK                            x       y       z     vdW  Elec       q    Type
REMARK                         _______ _______ _______ _____ _____    ______ ____
ROOT
ATOM      1  C   UNL     1      46.044   4.418  14.810  0.00  0.00    +0.000 C 
ENDROOT
BRANCH   1   2
ATOM      2  C   UNL     1      46.244   4.705  13.312  0.00  0.00    +0.000 C 
ATOM      3  C   UNL     1      45.839   3.512  12.425  0.00  0.00    +0.000 C 
ATOM      4  C   UNL     1      44.328   3.286  12.407  0.00  0.00    +0.000 C 
ATOM      5  C   UNL     1      43.550   4.545  11.988  0.00  0.00    +0.000 C 
ATOM      6  C   UNL     1      43.951   5.738  12.869  0.00  0.00    +0.000 C 
ATOM      7  C   UNL     1      45.464   5.965  12.908  0.00  0.00    +0.000 C 
BRANCH   5   8
ATOM      8  C   UNL     1      43.714   4.888  10.497  0.00  0.00    +0.000 C 
BRANCH   8   9
ATOM      9  O   UNL     1      44.183   3.743   9.789  0.00  0.00    +0.000 OA
BRANCH   9  10
ATOM     10  C   UNL     1      44.552   4.064   8.449  0.00  0.00    +0.000 C 
BRANCH  10  11
ATOM     11  C   UNL     1      45.586   3.081   7.987  0.00  0.00    +0.000 A 
ATOM     12  C   UNL     1      46.563   3.432   7.052  0.00  0.00    +0.000 A 
ATOM     13  C   UNL     1      47.499   2.486   6.642  0.00  0.00    +0.000 A 
ATOM     14  C   UNL     1      47.422   1.212   7.180  0.00  0.00    +0.000 A 
ATOM     15  N   UNL     1      46.492   0.834   8.083  0.00  0.00    +0.000 NA
ATOM     16  C   UNL     1      45.602   1.777   8.468  0.00  0.00    +0.000 A 
ENDBRANCH  10  11
ENDBRANCH   9  10
ENDBRANCH   8   9
ENDBRANCH   5   8
ENDBRANCH   1   2
BRANCH   1  19
ATOM     17  O   UNL     1      46.597   3.352  17.360  0.00  0.00    +0.000 OA
ATOM     18  C   UNL     1      47.464   3.997  16.779  0.00  0.00    +0.000 C 
ATOM     19  N   UNL     1      47.264   4.575  15.556  0.00  0.00    +0.000 N 
ATOM     20  H   UNL     1      48.053   4.955  15.043  0.00  0.00    +0.000 HD
BRANCH  18  21
ATOM     21  C   UNL     1      48.782   4.224  17.372  0.00  0.00    +0.000 A 
ATOM     22  C   UNL     1      49.054   5.398  18.058  0.00  0.00    +0.000 A 
ATOM     23  S   UNL     1      50.636   5.450  18.696  0.00  0.00    +0.000 S 
ATOM     24  C   UNL     1      50.995   3.904  18.092  0.00  0.00    +0.000 A 
ATOM     25  N   UNL     1      52.205   3.320  18.318  0.00  0.00    +0.000 NA
ATOM     26  C   UNL     1      52.321   2.131  17.825  0.00  0.00    +0.000 A 
ATOM     27  N   UNL     1      51.351   1.474  17.120  0.00  0.00    +0.000 N 
ATOM     28  C   UNL     1      50.137   2.045  16.818  0.00  0.00    +0.000 A 
ATOM     29  O   UNL     1      49.342   1.467  16.085  0.00  0.00    +0.000 OA
ATOM     30  C   UNL     1      49.938   3.363  17.391  0.00  0.00    +0.000 A 
ATOM     31  H   UNL     1      51.515   0.559  16.728  0.00  0.00    +0.000 HD
ENDBRANCH  18  21
ENDBRANCH   1  19
TORSDOF 7
ENDMDL
MODEL 2
REMARK VINA RESULT:    -8.762      2.026      2.750
REMARK INTER + INTRA:         -13.024
REMARK INTER:                 -11.795
REMARK INTRA:                  -1.229
REMARK UNBOUND:                -0.676
REMARK  Name = 
REMARK  7 active torsions:
REMARK  status: ('A' for Active; 'I' for Inactive)
REMARK    1  A    between atoms: C_2  and  C_20
REMARK    2  A    between atoms: N_3  and  C_4
REMARK    3  A    between atoms: C_4  and  C_5
REMARK    4  A    between atoms: C_8  and  C_9
REMARK    5  A    between atoms: C_9  and  O_10
REMARK    6  A    between atoms: O_10  and  C_11
REMARK    7  A    between atoms: C_11  and  C_12
REMARK                            x       y       z     vdW  Elec       q    Type
REMARK                         _______ _______ _______ _____ _____    ______ ____
ROOT
ATOM      1  C   UNL     1      46.611   7.548  12.831  0.00  0.00    +0.000 C 
ENDROOT
BRANCH   1   2
ATOM      2  C   UNL     1      45.186   7.030  12.575  0.00  0.00    +0.000 C 
ATOM      3  C   UNL     1      44.835   6.988  11.075  0.00  0.00    +0.000 C 
ATOM      4  C   UNL     1      45.603   5.898  10.328  0.00  0.00    +0.000 C 
ATOM      5  C   UNL     1      45.411   4.507  10.957  0.00  0.00    +0.000 C 
ATOM      6  C   UNL     1      45.758   4.545  12.452  0.00  0.00    +0.000 C 
ATOM      7  C   UNL     1      45.007   5.643  13.209  0.00  0.00    +0.000 C 
BRANCH   5   8
ATOM      8  C   UNL     1      43.999   3.935  10.738  0.00  0.00    +0.000 C 
BRANCH   8   9
ATOM      9  O   UNL     1      43.936   3.282   9.472  0.00  0.00    +0.000 OA
BRANCH   9  10
ATOM     10  C   UNL     1      44.727   2.095   9.450  0.00  0.00    +0.000 C 
BRANCH  10  11
ATOM     11  C   UNL     1      45.676   2.172   8.292  0.00  0.00    +0.000 A 
ATOM     12  C   UNL     1      45.780   3.322   7.506  0.00  0.00    +0.000 A 
ATOM     13  C   UNL     1      46.667   3.350   6.434  0.00  0.00    +0.000 A 
ATOM     14  C   UNL     1      47.421   2.216   6.178  0.00  0.00    +0.000 A 
ATOM     15  N   UNL     1      47.348   1.085   6.912  0.00  0.00    +0.000 NA
ATOM     16  C   UNL     1      46.484   1.092   7.952  0.00  0.00    +0.000 A 
ENDBRANCH  10  11
ENDBRANCH   9  10
ENDBRANCH   8   9
ENDBRANCH   5   8
ENDBRANCH   1   2
BRANCH   1  19
ATOM     17  O   UNL     1      48.987   6.150  13.422  0.00  0.00    +0.000 OA
ATOM     18  C   UNL     1      48.272   6.532  14.342  0.00  0.00    +0.000 C 
ATOM     19  N   UNL     1      47.088   7.186  14.139  0.00  0.00    +0.000 N 
ATOM     20  H   UNL     1      46.615   7.625  14.922  0.00  0.00    +0.000 HD
BRANCH  18  21
ATOM     21  C   UNL     1      48.621   6.285  15.741  0.00  0.00    +0.000 A 
ATOM     22  C   UNL     1      49.227   7.274  16.502  0.00  0.00    +0.000 A 
ATOM     23  S   UNL     1      49.522   6.792  18.113  0.00  0.00    +0.000 S 
ATOM     24  C   UNL     1      48.835   5.263  17.845  0.00  0.00    +0.000 A 
ATOM     25  N   UNL     1      48.738   4.345  18.848  0.00  0.00    +0.000 NA
ATOM     26  C   UNL     1      48.164   3.240  18.504  0.00  0.00    +0.000 A 
ATOM     27  N   UNL     1      47.688   2.958  17.253  0.00  0.00    +0.000 N 
ATOM     28  C   UNL     1      47.815   3.828  16.196  0.00  0.00    +0.000 A 
ATOM     29  O   UNL     1      47.480   3.490  15.066  0.00  0.00    +0.000 OA
ATOM     30  C   UNL     1      48.410   5.106  16.542  0.00  0.00    +0.000 A 
ATOM     31  H   UNL     1      47.282   2.060  17.035  0.00  0.00    +0.000 HD
ENDBRANCH  18  21
ENDBRANCH   1  19
TORSDOF 7
ENDMDL
MODEL 3
REMARK VINA RESULT:    -7.901      1.505      2.135
REMARK INTER + INTRA:         -11.810
REMARK INTER:                 -10.833
REMARK INTRA:                  -0.977
REMARK UNBOUND:                -0.676
REMARK  Name = 
REMARK  7 active torsions:
REMARK  status: ('A' for Active; 'I' for Inactive)
REMARK    1  A    between atoms: C_2  and  C_20
REMARK    2  A    between atoms: N_3  and  C_4
REMARK    3  A    between atoms: C_4  and  C_5
REMARK    4  A    between atoms: C_8  and  C_9
REMARK    5  A    between atoms: C_9  and  O_10
REMARK    6  A    between atoms: O_10  and  C_11
REMARK    7  A    between atoms: C_11  and  C_12
REMARK                            x       y       z     vdW  Elec       q    Type
REMARK                         _______ _______ _______ _____ _____    ______ ____
ROOT
ATOM      1  C   UNL     1      45.954   4.590  14.721  0.00  0.00    +0.000 C 
ENDROOT
BRANCH   1   2
ATOM      2  C   UNL     1      46.030   5.116  13.277  0.00  0.00    +0.000 C 
ATOM      3  C   UNL     1      46.004   3.982  12.235  0.00  0.00    +0.000 C 
ATOM      4  C   UNL     1      44.638   3.300  12.150  0.00  0.00    +0.000 C 
ATOM      5  C   UNL     1      43.499   4.297  11.877  0.00  0.00    +0.000 C 
ATOM      6  C   UNL     1      43.522   5.431  12.913  0.00  0.00    +0.000 C 
ATOM      7  C   UNL     1      44.889   6.111  13.019  0.00  0.00    +0.000 C 
BRANCH   5   8
ATOM      8  C   UNL     1      43.523   4.864  10.446  0.00  0.00    +0.000 C 
BRANCH   8   9
ATOM      9  O   UNL     1      44.001   3.870   9.543  0.00  0.00    +0.000 OA
BRANCH   9  10
ATOM     10  C   UNL     1      45.053   4.368   8.717  0.00  0.00    +0.000 C 
BRANCH  10  11
ATOM     11  C   UNL     1      45.767   3.205   8.096  0.00  0.00    +0.000 A 
ATOM     12  C   UNL     1      46.483   3.337   6.904  0.00  0.00    +0.000 A 
ATOM     13  C   UNL     1      47.124   2.230   6.356  0.00  0.00    +0.000 A 
ATOM     14  C   UNL     1      47.022   1.018   7.019  0.00  0.00    +0.000 A 
ATOM     15  N   UNL     1      46.338   0.849   8.171  0.00  0.00    +0.000 NA
ATOM     16  C   UNL     1      45.733   1.945   8.684  0.00  0.00    +0.000 A 
ENDBRANCH  10  11
ENDBRANCH   9  10
ENDBRANCH   8   9
ENDBRANCH   5   8
ENDBRANCH   1   2
BRANCH   1  19
ATOM     17  O   UNL     1      46.580   3.383  17.190  0.00  0.00    +0.000 OA
ATOM     18  C   UNL     1      47.475   3.906  16.534  0.00  0.00    +0.000 C 
ATOM     19  N   UNL     1      47.249   4.541  15.344  0.00  0.00    +0.000 N 
ATOM     20  H   UNL     1      48.034   4.813  14.762  0.00  0.00    +0.000 HD
BRANCH  18  21
ATOM     21  C   UNL     1      48.862   3.917  16.998  0.00  0.00    +0.000 A 
ATOM     22  C   UNL     1      49.501   2.735  17.341  0.00  0.00    +0.000 A 
ATOM     23  S   UNL     1      51.121   2.966  17.827  0.00  0.00    +0.000 S 
ATOM     24  C   UNL     1      51.020   4.642  17.576  0.00  0.00    +0.000 A 
ATOM     25  N   UNL     1      52.097   5.453  17.780  0.00  0.00    +0.000 NA
ATOM     26  C   UNL     1      51.879   6.699  17.518  0.00  0.00    +0.000 A 
ATOM     27  N   UNL     1      50.690   7.215  17.084  0.00  0.00    +0.000 N 
ATOM     28  C   UNL     1      49.562   6.446  16.920  0.00  0.00    +0.000 A 
ATOM     29  O   UNL     1      48.486   6.967  16.643  0.00  0.00    +0.000 OA
ATOM     30  C   UNL     1      49.766   5.029  17.156  0.00  0.00    +0.000 A 
ATOM     31  H   UNL     1      50.570   8.206  16.931  0.00  0.00    +0.000 HD
ENDBRANCH  18  21
ENDBRANCH   1  19
TORSDOF 7
ENDMDL
MODEL 4
REMARK VINA RESULT:    -7.833      2.147      2.660
REMARK INTER + INTRA:         -11.714
REMARK INTER:                 -10.833
REMARK INTRA:                  -0.881
REMARK UNBOUND:                -0.676
REMARK  Name = 
REMARK  7 active torsions:
REMARK  status: ('A' for Active; 'I' for Inactive)
REMARK    1  A    between atoms: C_2  and  C_20
REMARK    2  A    between atoms: N_3  and  C_4
REMARK    3  A    between atoms: C_4  and  C_5
REMARK    4  A    between atoms: C_8  and  C_9
REMARK    5  A    between atoms: C_9  and  O_10
REMARK    6  A    between atoms: O_10  and  C_11
REMARK    7  A    between atoms: C_11  and  C_12
REMARK                            x       y       z     vdW  Elec       q    Type
REMARK                         _______ _______ _______ _____ _____    ______ ____
ROOT
ATOM      1  C   UNL     1      47.414   7.449  13.666  0.00  0.00    +0.000 C 
ENDROOT
BRANCH   1   2
ATOM      2  C   UNL     1      47.482   6.185  12.790  0.00  0.00    +0.000 C 
ATOM      3  C   UNL     1      46.634   5.030  13.356  0.00  0.00    +0.000 C 
ATOM      4  C   UNL     1      45.134   5.298  13.242  0.00  0.00    +0.000 C 
ATOM      5  C   UNL     1      44.702   5.615  11.799  0.00  0.00    +0.000 C 
ATOM      6  C   UNL     1      45.545   6.766  11.230  0.00  0.00    +0.000 C 
ATOM      7  C   UNL     1      47.051   6.516  11.354  0.00  0.00    +0.000 C 
BRANCH   5   8
ATOM      8  C   UNL     1      44.753   4.389  10.870  0.00  0.00    +0.000 C 
BRANCH   8   9
ATOM      9  O   UNL     1      45.124   4.797   9.556  0.00  0.00    +0.000 OA
BRANCH   9  10
ATOM     10  C   UNL     1      44.551   3.952   8.558  0.00  0.00    +0.000 C 
BRANCH  10  11
ATOM     11  C   UNL     1      45.606   3.006   8.067  0.00  0.00    +0.000 A 
ATOM     12  C   UNL     1      46.578   3.407   7.147  0.00  0.00    +0.000 A 
ATOM     13  C   UNL     1      47.534   2.495   6.709  0.00  0.00    +0.000 A 
ATOM     14  C   UNL     1      47.482   1.202   7.204  0.00  0.00    +0.000 A 
ATOM     15  N   UNL     1      46.559   0.776   8.092  0.00  0.00    +0.000 NA
ATOM     16  C   UNL     1      45.648   1.687   8.506  0.00  0.00    +0.000 A 
ENDBRANCH  10  11
ENDBRANCH   9  10
ENDBRANCH   8   9
ENDBRANCH   5   8
ENDBRANCH   1   2
BRANCH   1  19
ATOM     17  O   UNL     1      50.111   7.461  14.485  0.00  0.00    +0.000 OA
ATOM     18  C   UNL     1      49.232   7.263  15.318  0.00  0.00    +0.000 C 
ATOM     19  N   UNL     1      47.904   7.208  14.996  0.00  0.00    +0.000 N 
ATOM     20  H   UNL     1      47.207   7.207  15.734  0.00  0.00    +0.000 HD
BRANCH  18  21
ATOM     21  C   UNL     1      49.547   7.037  16.729  0.00  0.00    +0.000 A 
ATOM     22  C   UNL     1      50.185   8.017  17.475  0.00  0.00    +0.000 A 
ATOM     23  S   UNL     1      50.431   7.564  19.102  0.00  0.00    +0.000 S 
ATOM     24  C   UNL     1      49.679   6.061  18.861  0.00  0.00    +0.000 A 
ATOM     25  N   UNL     1      49.524   5.176  19.885  0.00  0.00    +0.000 NA
ATOM     26  C   UNL     1      48.906   4.090  19.559  0.00  0.00    +0.000 A 
ATOM     27  N   UNL     1      48.438   3.797  18.308  0.00  0.00    +0.000 N 
ATOM     28  C   UNL     1      48.621   4.632  17.232  0.00  0.00    +0.000 A 
ATOM     29  O   UNL     1      48.290   4.280  16.104  0.00  0.00    +0.000 OA
ATOM     30  C   UNL     1      49.269   5.890  17.556  0.00  0.00    +0.000 A 
ATOM     31  H   UNL     1      47.994   2.913  18.105  0.00  0.00    +0.000 HD
ENDBRANCH  18  21
ENDBRANCH   1  19
TORSDOF 7
ENDMDL
MODEL 5
REMARK VINA RESULT:    -7.447      1.793      2.111
REMARK INTER + INTRA:         -11.171
REMARK INTER:                 -10.429
REMARK INTRA:                  -0.742
REMARK UNBOUND:                -0.676
REMARK  Name = 
REMARK  7 active torsions:
REMARK  status: ('A' for Active; 'I' for Inactive)
REMARK    1  A    between atoms: C_2  and  C_20
REMARK    2  A    between atoms: N_3  and  C_4
REMARK    3  A    between atoms: C_4  and  C_5
REMARK    4  A    between atoms: C_8  and  C_9
REMARK    5  A    between atoms: C_9  and  O_10
REMARK    6  A    between atoms: O_10  and  C_11
REMARK    7  A    between atoms: C_11  and  C_12
REMARK                            x       y       z     vdW  Elec       q    Type
REMARK                         _______ _______ _______ _____ _____    ______ ____
ROOT
ATOM      1  C   UNL     1      48.197   7.046  14.430  0.00  0.00    +0.000 C 
ENDROOT
BRANCH   1   2
ATOM      2  C   UNL     1      48.276   6.279  13.099  0.00  0.00    +0.000 C 
ATOM      3  C   UNL     1      47.372   5.032  13.083  0.00  0.00    +0.000 C 
ATOM      4  C   UNL     1      45.886   5.391  13.042  0.00  0.00    +0.000 C 
ATOM      5  C   UNL     1      45.537   6.316  11.863  0.00  0.00    +0.000 C 
ATOM      6  C   UNL     1      46.437   7.560  11.875  0.00  0.00    +0.000 C 
ATOM      7  C   UNL     1      47.928   7.213  11.932  0.00  0.00    +0.000 C 
BRANCH   5   8
ATOM      8  C   UNL     1      45.603   5.606  10.499  0.00  0.00    +0.000 C 
BRANCH   8   9
ATOM      9  O   UNL     1      44.751   4.463  10.510  0.00  0.00    +0.000 OA
BRANCH   9  10
ATOM     10  C   UNL     1      44.259   4.157   9.206  0.00  0.00    +0.000 C 
BRANCH  10  11
ATOM     11  C   UNL     1      45.250   3.268   8.516  0.00  0.00    +0.000 A 
ATOM     12  C   UNL     1      46.130   3.764   7.551  0.00  0.00    +0.000 A 
ATOM     13  C   UNL     1      47.028   2.902   6.926  0.00  0.00    +0.000 A 
ATOM     14  C   UNL     1      47.011   1.565   7.286  0.00  0.00    +0.000 A 
ATOM     15  N   UNL     1      46.176   1.047   8.212  0.00  0.00    +0.000 NA
ATOM     16  C   UNL     1      45.321   1.910   8.807  0.00  0.00    +0.000 A 
ENDBRANCH  10  11
ENDBRANCH   9  10
ENDBRANCH   8   9
ENDBRANCH   5   8
ENDBRANCH   1   2
BRANCH   1  19
ATOM     17  O   UNL     1      48.237   5.759  16.937  0.00  0.00    +0.000 OA
ATOM     18  C   UNL     1      49.291   6.153  16.449  0.00  0.00    +0.000 C 
ATOM     19  N   UNL     1      49.353   6.815  15.254  0.00  0.00    +0.000 N 
ATOM     20  H   UNL     1      50.253   6.975  14.814  0.00  0.00    +0.000 HD
BRANCH  18  21
ATOM     21  C   UNL     1      50.571   5.968  17.132  0.00  0.00    +0.000 A 
ATOM     22  C   UNL     1      51.339   7.063  17.500  0.00  0.00    +0.000 A 
ATOM     23  S   UNL     1      52.778   6.630  18.309  0.00  0.00    +0.000 S 
ATOM     24  C   UNL     1      52.409   4.976  18.207  0.00  0.00    +0.000 A 
ATOM     25  N   UNL     1      53.231   4.033  18.748  0.00  0.00    +0.000 NA
ATOM     26  C   UNL     1      52.804   2.821  18.621  0.00  0.00    +0.000 A 
ATOM     27  N   UNL     1      51.643   2.457  17.998  0.00  0.00    +0.000 N 
ATOM     28  C   UNL     1      50.811   3.366  17.388  0.00  0.00    +0.000 A 
ATOM     29  O   UNL     1      49.841   2.987  16.739  0.00  0.00    +0.000 OA
ATOM     30  C   UNL     1      51.222   4.749  17.544  0.00  0.00    +0.000 A 
ATOM     31  H   UNL     1      51.381   1.487  17.897  0.00  0.00    +0.000 HD
ENDBRANCH  18  21
ENDBRANCH   1  19
TORSDOF 7
ENDMDL
MODEL 6
REMARK VINA RESULT:    -7.301      3.412      8.790
REMARK INTER + INTRA:         -10.964
REMARK INTER:                  -9.809
REMARK INTRA:                  -1.155
REMARK UNBOUND:                -0.676
REMARK  Name = 
REMARK  7 active torsions:
REMARK  status: ('A' for Active; 'I' for Inactive)
REMARK    1  A    between atoms: C_2  and  C_20
REMARK    2  A    between atoms: N_3  and  C_4
REMARK    3  A    between atoms: C_4  and  C_5
REMARK    4  A    between atoms: C_8  and  C_9
REMARK    5  A    between atoms: C_9  and  O_10
REMARK    6  A    between atoms: O_10  and  C_11
REMARK    7  A    between atoms: C_11  and  C_12
REMARK                            x       y       z     vdW  Elec       q    Type
REMARK                         _______ _______ _______ _____ _____    ______ ____
ROOT
ATOM      1  C   UNL     1      47.253   8.165  11.738  0.00  0.00    +0.000 C 
ENDROOT
BRANCH   1   2
ATOM      2  C   UNL     1      48.721   8.011  12.172  0.00  0.00    +0.000 C 
ATOM      3  C   UNL     1      49.206   9.191  13.036  0.00  0.00    +0.000 C 
ATOM      4  C   UNL     1      48.565   9.199  14.423  0.00  0.00    +0.000 C 
ATOM      5  C   UNL     1      48.772   7.872  15.174  0.00  0.00    +0.000 C 
ATOM      6  C   UNL     1      48.290   6.692  14.316  0.00  0.00    +0.000 C 
ATOM      7  C   UNL     1      48.914   6.683  12.917  0.00  0.00    +0.000 C 
BRANCH   5   8
ATOM      8  C   UNL     1      50.225   7.657  15.632  0.00  0.00    +0.000 C 
BRANCH   8   9
ATOM      9  O   UNL     1      50.457   6.269  15.862  0.00  0.00    +0.000 OA
BRANCH   9  10
ATOM     10  C   UNL     1      50.306   5.929  17.239  0.00  0.00    +0.000 C 
BRANCH  10  11
ATOM     11  C   UNL     1      49.280   4.843  17.356  0.00  0.00    +0.000 A 
ATOM     12  C   UNL     1      49.621   3.495  17.221  0.00  0.00    +0.000 A 
ATOM     13  C   UNL     1      48.635   2.517  17.327  0.00  0.00    +0.000 A 
ATOM     14  C   UNL     1      47.332   2.924  17.558  0.00  0.00    +0.000 A 
ATOM     15  N   UNL     1      46.961   4.215  17.692  0.00  0.00    +0.000 NA
ATOM     16  C   UNL     1      47.942   5.141  17.594  0.00  0.00    +0.000 A 
ENDBRANCH  10  11
ENDBRANCH   9  10
ENDBRANCH   8   9
ENDBRANCH   5   8
ENDBRANCH   1   2
BRANCH   1  19
ATOM     17  O   UNL     1      44.477   7.748  11.492  0.00  0.00    +0.000 OA
ATOM     18  C   UNL     1      45.230   6.780  11.495  0.00  0.00    +0.000 C 
ATOM     19  N   UNL     1      46.584   6.895  11.644  0.00  0.00    +0.000 N 
ATOM     20  H   UNL     1      47.179   6.089  11.478  0.00  0.00    +0.000 HD
BRANCH  18  21
ATOM     21  C   UNL     1      44.725   5.413  11.371  0.00  0.00    +0.000 A 
ATOM     22  C   UNL     1      43.987   4.837  12.395  0.00  0.00    +0.000 A 
ATOM     23  S   UNL     1      43.471   3.250  12.037  0.00  0.00    +0.000 S 
ATOM     24  C   UNL     1      44.199   3.294  10.504  0.00  0.00    +0.000 A 
ATOM     25  N   UNL     1      44.105   2.239   9.646  0.00  0.00    +0.000 NA
ATOM     26  C   UNL     1      44.681   2.430   8.506  0.00  0.00    +0.000 A 
ATOM     27  N   UNL     1      45.351   3.565   8.143  0.00  0.00    +0.000 N 
ATOM     28  C   UNL     1      45.522   4.631   8.995  0.00  0.00    +0.000 A 
ATOM     29  O   UNL     1      46.228   5.581   8.672  0.00  0.00    +0.000 OA
ATOM     30  C   UNL     1      44.851   4.487  10.274  0.00  0.00    +0.000 A 
ATOM     31  H   UNL     1      45.814   3.641   7.249  0.00  0.00    +0.000 HD
ENDBRANCH  18  21
ENDBRANCH   1  19
TORSDOF 7
ENDMDL
MODEL 7
REMARK VINA RESULT:    -7.208      3.863      5.081
REMARK INTER + INTRA:         -10.834
REMARK INTER:                  -9.612
REMARK INTRA:                  -1.221
REMARK UNBOUND:                -0.676
REMARK  Name = 
REMARK  7 active torsions:
REMARK  status: ('A' for Active; 'I' for Inactive)
REMARK    1  A    between atoms: C_2  and  C_20
REMARK    2  A    between atoms: N_3  and  C_4
REMARK    3  A    between atoms: C_4  and  C_5
REMARK    4  A    between atoms: C_8  and  C_9
REMARK    5  A    between atoms: C_9  and  O_10
REMARK    6  A    between atoms: O_10  and  C_11
REMARK    7  A    between atoms: C_11  and  C_12
REMARK                            x       y       z     vdW  Elec       q    Type
REMARK                         _______ _______ _______ _____ _____    ______ ____
ROOT
ATOM      1  C   UNL     1      46.473   5.609  13.986  0.00  0.00    +0.000 C 
ENDROOT
BRANCH   1   2
ATOM      2  C   UNL     1      45.125   5.724  13.253  0.00  0.00    +0.000 C 
ATOM      3  C   UNL     1      45.239   6.509  11.932  0.00  0.00    +0.000 C 
ATOM      4  C   UNL     1      46.008   5.738  10.860  0.00  0.00    +0.000 C 
ATOM      5  C   UNL     1      45.414   4.342  10.599  0.00  0.00    +0.000 C 
ATOM      6  C   UNL     1      45.299   3.557  11.913  0.00  0.00    +0.000 C 
ATOM      7  C   UNL     1      44.543   4.326  13.000  0.00  0.00    +0.000 C 
BRANCH   5   8
ATOM      8  C   UNL     1      44.060   4.390   9.869  0.00  0.00    +0.000 C 
BRANCH   8   9
ATOM      9  O   UNL     1      44.218   3.926   8.531  0.00  0.00    +0.000 OA
BRANCH   9  10
ATOM     10  C   UNL     1      44.574   2.545   8.489  0.00  0.00    +0.000 C 
BRANCH  10  11
ATOM     11  C   UNL     1      45.790   2.389   7.626  0.00  0.00    +0.000 A 
ATOM     12  C   UNL     1      46.067   3.277   6.584  0.00  0.00    +0.000 A 
ATOM     13  C   UNL     1      47.202   3.091   5.800  0.00  0.00    +0.000 A 
ATOM     14  C   UNL     1      48.024   2.012   6.082  0.00  0.00    +0.000 A 
ATOM     15  N   UNL     1      47.791   1.132   7.079  0.00  0.00    +0.000 NA
ATOM     16  C   UNL     1      46.684   1.344   7.828  0.00  0.00    +0.000 A 
ENDBRANCH  10  11
ENDBRANCH   9  10
ENDBRANCH   8   9
ENDBRANCH   5   8
ENDBRANCH   1   2
BRANCH   1  19
ATOM     17  O   UNL     1      49.010   6.082  15.118  0.00  0.00    +0.000 OA
ATOM     18  C   UNL     1      48.392   7.018  14.621  0.00  0.00    +0.000 C 
ATOM     19  N   UNL     1      47.143   6.878  14.082  0.00  0.00    +0.000 N 
ATOM     20  H   UNL     1      46.742   7.636  13.540  0.00  0.00    +0.000 HD
BRANCH  18  21
ATOM     21  C   UNL     1      48.939   8.374  14.596  0.00  0.00    +0.000 A 
ATOM     22  C   UNL     1      49.205   9.050  15.777  0.00  0.00    +0.000 A 
ATOM     23  S   UNL     1      49.865  10.604  15.525  0.00  0.00    +0.000 S 
ATOM     24  C   UNL     1      49.832  10.410  13.839  0.00  0.00    +0.000 A 
ATOM     25  N   UNL     1      50.300  11.383  13.006  0.00  0.00    +0.000 NA
ATOM     26  C   UNL     1      50.241  11.082  11.752  0.00  0.00    +0.000 A 
ATOM     27  N   UNL     1      49.750   9.909  11.247  0.00  0.00    +0.000 N 
ATOM     28  C   UNL     1      49.215   8.924  12.043  0.00  0.00    +0.000 A 
ATOM     29  O   UNL     1      48.679   7.940  11.543  0.00  0.00    +0.000 OA
ATOM     30  C   UNL     1      49.302   9.194  13.467  0.00  0.00    +0.000 A 
ATOM     31  H   UNL     1      49.695   9.746  10.252  0.00  0.00    +0.000 HD
ENDBRANCH  18  21
ENDBRANCH   1  19
TORSDOF 7
ENDMDL
MODEL 8
REMARK VINA RESULT:    -7.083      4.016      9.597
REMARK INTER + INTRA:         -10.657
REMARK INTER:                  -9.134
REMARK INTRA:                  -1.523
REMARK UNBOUND:                -0.676
REMARK  Name = 
REMARK  7 active torsions:
REMARK  status: ('A' for Active; 'I' for Inactive)
REMARK    1  A    between atoms: C_2  and  C_20
REMARK    2  A    between atoms: N_3  and  C_4
REMARK    3  A    between atoms: C_4  and  C_5
REMARK    4  A    between atoms: C_8  and  C_9
REMARK    5  A    between atoms: C_9  and  O_10
REMARK    6  A    between atoms: O_10  and  C_11
REMARK    7  A    between atoms: C_11  and  C_12
REMARK                            x       y       z     vdW  Elec       q    Type
REMARK                         _______ _______ _______ _____ _____    ______ ____
ROOT
ATOM      1  C   UNL     1      47.295   3.483  16.522  0.00  0.00    +0.000 C 
ENDROOT
BRANCH   1   2
ATOM      2  C   UNL     1      47.780   4.145  17.823  0.00  0.00    +0.000 C 
ATOM      3  C   UNL     1      48.855   3.310  18.544  0.00  0.00    +0.000 C 
ATOM      4  C   UNL     1      50.186   3.301  17.792  0.00  0.00    +0.000 C 
ATOM      5  C   UNL     1      50.715   4.719  17.514  0.00  0.00    +0.000 C 
ATOM      6  C   UNL     1      49.645   5.556  16.796  0.00  0.00    +0.000 C 
ATOM      7  C   UNL     1      48.302   5.560  17.532  0.00  0.00    +0.000 C 
BRANCH   5   8
ATOM      8  C   UNL     1      51.211   5.438  18.781  0.00  0.00    +0.000 C 
BRANCH   8   9
ATOM      9  O   UNL     1      51.527   6.793  18.473  0.00  0.00    +0.000 OA
BRANCH   9  10
ATOM     10  C   UNL     1      51.262   7.661  19.574  0.00  0.00    +0.000 C 
BRANCH  10  11
ATOM     11  C   UNL     1      49.842   8.133  19.482  0.00  0.00    +0.000 A 
ATOM     12  C   UNL     1      48.888   7.773  20.438  0.00  0.00    +0.000 A 
ATOM     13  C   UNL     1      47.578   8.224  20.311  0.00  0.00    +0.000 A 
ATOM     14  C   UNL     1      47.261   9.020  19.222  0.00  0.00    +0.000 A 
ATOM     15  N   UNL     1      48.153   9.388  18.277  0.00  0.00    +0.000 NA
ATOM     16  C   UNL     1      49.420   8.941  18.432  0.00  0.00    +0.000 A 
ENDBRANCH  10  11
ENDBRANCH   9  10
ENDBRANCH   8   9
ENDBRANCH   5   8
ENDBRANCH   1   2
BRANCH   1  19
ATOM     17  O   UNL     1      47.235   3.245  13.714  0.00  0.00    +0.000 OA
ATOM     18  C   UNL     1      46.746   4.239  14.242  0.00  0.00    +0.000 C 
ATOM     19  N   UNL     1      46.765   4.446  15.593  0.00  0.00    +0.000 N 
ATOM     20  H   UNL     1      46.210   5.194  15.996  0.00  0.00    +0.000 HD
BRANCH  18  21
ATOM     21  C   UNL     1      46.128   5.304  13.452  0.00  0.00    +0.000 A 
ATOM     22  C   UNL     1      46.811   6.485  13.203  0.00  0.00    +0.000 A 
ATOM     23  S   UNL     1      45.925   7.580  12.241  0.00  0.00    +0.000 S 
ATOM     24  C   UNL     1      44.617   6.505  12.114  0.00  0.00    +0.000 A 
ATOM     25  N   UNL     1      43.512   6.819  11.381  0.00  0.00    +0.000 NA
ATOM     26  C   UNL     1      42.614   5.891  11.350  0.00  0.00    +0.000 A 
ATOM     27  N   UNL     1      42.707   4.686  11.989  0.00  0.00    +0.000 N 
ATOM     28  C   UNL     1      43.775   4.348  12.787  0.00  0.00    +0.000 A 
ATOM     29  O   UNL     1      43.765   3.307  13.435  0.00  0.00    +0.000 OA
ATOM     30  C   UNL     1      44.835   5.339  12.816  0.00  0.00    +0.000 A 
ATOM     31  H   UNL     1      41.954   4.014  11.959  0.00  0.00    +0.000 HD
ENDBRANCH  18  21
ENDBRANCH   1  19
TORSDOF 7
ENDMDL
MODEL 9
REMARK VINA RESULT:    -6.853      3.853      9.703
REMARK INTER + INTRA:         -10.333
REMARK INTER:                  -9.270
REMARK INTRA:                  -1.063
REMARK UNBOUND:                -0.676
REMARK  Name = 
REMARK  7 active torsions:
REMARK  status: ('A' for Active; 'I' for Inactive)
REMARK    1  A    between atoms: C_2  and  C_20
REMARK    2  A    between atoms: N_3  and  C_4
REMARK    3  A    between atoms: C_4  and  C_5
REMARK    4  A    between atoms: C_8  and  C_9
REMARK    5  A    between atoms: C_9  and  O_10
REMARK    6  A    between atoms: O_10  and  C_11
REMARK    7  A    between atoms: C_11  and  C_12
REMARK                            x       y       z     vdW  Elec       q    Type
REMARK                         _______ _______ _______ _____ _____    ______ ____
ROOT
ATOM      1  C   UNL     1      47.551   3.666  16.396  0.00  0.00    +0.000 C 
ENDROOT
BRANCH   1   2
ATOM      2  C   UNL     1      47.904   4.331  17.738  0.00  0.00    +0.000 C 
ATOM      3  C   UNL     1      48.930   3.516  18.548  0.00  0.00    +0.000 C 
ATOM      4  C   UNL     1      50.322   3.539  17.916  0.00  0.00    +0.000 C 
ATOM      5  C   UNL     1      50.841   4.970  17.691  0.00  0.00    +0.000 C 
ATOM      6  C   UNL     1      49.820   5.788  16.885  0.00  0.00    +0.000 C 
ATOM      7  C   UNL     1      48.418   5.758  17.499  0.00  0.00    +0.000 C 
BRANCH   5   8
ATOM      8  C   UNL     1      51.208   5.692  19.000  0.00  0.00    +0.000 C 
BRANCH   8   9
ATOM      9  O   UNL     1      52.092   4.878  19.766  0.00  0.00    +0.000 OA
BRANCH   9  10
ATOM     10  C   UNL     1      53.428   4.936  19.270  0.00  0.00    +0.000 C 
BRANCH  10  11
ATOM     11  C   UNL     1      53.921   3.537  19.052  0.00  0.00    +0.000 A 
ATOM     12  C   UNL     1      54.017   2.986  17.772  0.00  0.00    +0.000 A 
ATOM     13  C   UNL     1      54.470   1.679  17.614  0.00  0.00    +0.000 A 
ATOM     14  C   UNL     1      54.808   0.961  18.749  0.00  0.00    +0.000 A 
ATOM     15  N   UNL     1      54.727   1.456  20.002  0.00  0.00    +0.000 NA
ATOM     16  C   UNL     1      54.292   2.731  20.123  0.00  0.00    +0.000 A 
ENDBRANCH  10  11
ENDBRANCH   9  10
ENDBRANCH   8   9
ENDBRANCH   5   8
ENDBRANCH   1   2
BRANCH   1  19
ATOM     17  O   UNL     1      47.124   3.250  13.641  0.00  0.00    +0.000 OA
ATOM     18  C   UNL     1      46.762   4.305  14.151  0.00  0.00    +0.000 C 
ATOM     19  N   UNL     1      46.962   4.598  15.472  0.00  0.00    +0.000 N 
ATOM     20  H   UNL     1      46.504   5.405  15.884  0.00  0.00    +0.000 HD
BRANCH  18  21
ATOM     21  C   UNL     1      46.109   5.354  13.368  0.00  0.00    +0.000 A 
ATOM     22  C   UNL     1      46.768   6.544  13.094  0.00  0.00    +0.000 A 
ATOM     23  S   UNL     1      45.843   7.617  12.143  0.00  0.00    +0.000 S 
ATOM     24  C   UNL     1      44.550   6.521  12.055  0.00  0.00    +0.000 A 
ATOM     25  N   UNL     1      43.424   6.812  11.345  0.00  0.00    +0.000 NA
ATOM     26  C   UNL     1      42.539   5.870  11.343  0.00  0.00    +0.000 A 
ATOM     27  N   UNL     1      42.666   4.672  11.989  0.00  0.00    +0.000 N 
ATOM     28  C   UNL     1      43.757   4.357  12.764  0.00  0.00    +0.000 A 
ATOM     29  O   UNL     1      43.778   3.322  13.421  0.00  0.00    +0.000 OA
ATOM     30  C   UNL     1      44.802   5.364  12.761  0.00  0.00    +0.000 A 
ATOM     31  H   UNL     1      41.922   3.989  11.981  0.00  0.00    +0.000 HD
ENDBRANCH  18  21
ENDBRANCH   1  19
TORSDOF 7
ENDMDL
