MODEL 1
REMARK VINA RESULT:    -8.007      0.000      0.000
REMARK INTER + INTRA:         -12.265
REMARK INTER:                 -11.518
REMARK INTRA:                  -0.747
REMARK UNBOUND:                -0.747
REMARK  Name = 
REMARK  9 active torsions:
REMARK  status: ('A' for Active; 'I' for Inactive)
REMARK    1  A    between atoms: N_1  and  C_2
REMARK    2  A    between atoms: C_2  and  C_3
REMARK    3  A    between atoms: C_6  and  O_7
REMARK    4  A    between atoms: O_7  and  C_8
REMARK    5  A    between atoms: C_8  and  C_9
REMARK    6  A    between atoms: C_9  and  O_10
REMARK    7  A    between atoms: C_9  and  C_11
REMARK    8  A    between atoms: C_14  and  C_15
REMARK    9  A    between atoms: C_15  and  O_17
REMARK                            x       y       z     vdW  Elec       q    Type
REMARK                         _______ _______ _______ _____ _____    ______ ____
ROOT
ATOM      1  C   UNL     1      43.682   3.857  10.489  0.00  0.00    +0.000 C 
ENDROOT
BRANCH   1   2
ATOM      2  C   UNL     1      44.681   3.468   9.419  0.00  0.00    +0.000 A 
ATOM      3  C   UNL     1      45.306   4.426   8.602  0.00  0.00    +0.000 A 
ATOM      4  C   UNL     1      46.252   4.047   7.644  0.00  0.00    +0.000 A 
ATOM      5  C   UNL     1      46.583   2.695   7.475  0.00  0.00    +0.000 A 
ATOM      6  C   UNL     1      45.944   1.748   8.268  0.00  0.00    +0.000 A 
ATOM      7  F   UNL     1      46.226   0.443   8.131  0.00  0.00    +0.000 F 
ATOM      8  C   UNL     1      45.004   2.120   9.228  0.00  0.00    +0.000 A 
BRANCH   5   9
ATOM      9  C   UNL     1      47.609   2.340   6.461  0.00  0.00    +0.000 C 
ATOM     10  O   UNL     1      48.437   1.465   6.659  0.00  0.00    +0.000 OA
BRANCH   9  11
ATOM     11  O   UNL     1      47.565   3.039   5.309  0.00  0.00    +0.000 OA
ATOM     12  H   UNL     1      48.343   2.941   4.722  0.00  0.00    +0.000 HD
ENDBRANCH   9  11
ENDBRANCH   5   9
ENDBRANCH   1   2
BRANCH   1  13
ATOM     13  O   UNL     1      43.148   5.143  10.182  0.00  0.00    +0.000 OA
ATOM     14  H   UNL     1      43.167   5.227   9.212  0.00  0.00    +0.000 HD
ENDBRANCH   1  13
BRANCH   1  15
ATOM     15  C   UNL     1      44.242   3.801  11.924  0.00  0.00    +0.000 C 
BRANCH  15  16
ATOM     16  O   UNL     1      44.373   5.116  12.476  0.00  0.00    +0.000 OA
BRANCH  16  20
ATOM     17  C   UNL     1      48.219   6.746  12.756  0.00  0.00    +0.000 A 
ATOM     18  C   UNL     1      47.784   5.848  13.740  0.00  0.00    +0.000 A 
ATOM     19  C   UNL     1      46.514   5.269  13.673  0.00  0.00    +0.000 A 
ATOM     20  C   UNL     1      45.652   5.582  12.622  0.00  0.00    +0.000 A 
ATOM     21  C   UNL     1      46.087   6.459  11.625  0.00  0.00    +0.000 A 
ATOM     22  C   UNL     1      47.359   7.039  11.690  0.00  0.00    +0.000 A 
BRANCH  17  23
ATOM     23  C   UNL     1      49.567   7.408  12.875  0.00  0.00    +0.000 C 
BRANCH  23  24
ATOM     24  N   UNL     1      50.161   7.187  14.188  0.00  0.00    +0.000 NA
ATOM     25  H   UNL     1      50.941   7.830  14.312  0.00  0.00    +0.000 HD
ATOM     26  H   UNL     1      50.554   6.248  14.216  0.00  0.00    +0.000 HD
ENDBRANCH  23  24
ENDBRANCH  17  23
ENDBRANCH  16  20
ENDBRANCH  15  16
ENDBRANCH   1  15
TORSDOF 9
ENDMDL
MODEL 2
REMARK VINA RESULT:    -7.930      0.891      1.144
REMARK INTER + INTRA:         -12.154
REMARK INTER:                 -11.378
REMARK INTRA:                  -0.776
REMARK UNBOUND:                -0.747
REMARK  Name = 
REMARK  9 active torsions:
REMARK  status: ('A' for Active; 'I' for Inactive)
REMARK    1  A    between atoms: N_1  and  C_2
REMARK    2  A    between atoms: C_2  and  C_3
REMARK    3  A    between atoms: C_6  and  O_7
REMARK    4  A    between atoms: O_7  and  C_8
REMARK    5  A    between atoms: C_8  and  C_9
REMARK    6  A    between atoms: C_9  and  O_10
REMARK    7  A    between atoms: C_9  and  C_11
REMARK    8  A    between atoms: C_14  and  C_15
REMARK    9  A    between atoms: C_15  and  O_17
REMARK                            x       y       z     vdW  Elec       q    Type
REMARK                         _______ _______ _______ _____ _____    ______ ____
ROOT
ATOM      1  C   UNL     1      44.195   3.306  10.843  0.00  0.00    +0.000 C 
ENDROOT
BRANCH   1   2
ATOM      2  C   UNL     1      45.003   3.088   9.580  0.00  0.00    +0.000 A 
ATOM      3  C   UNL     1      45.435   4.161   8.781  0.00  0.00    +0.000 A 
ATOM      4  C   UNL     1      46.210   3.940   7.638  0.00  0.00    +0.000 A 
ATOM      5  C   UNL     1      46.556   2.634   7.262  0.00  0.00    +0.000 A 
ATOM      6  C   UNL     1      46.106   1.574   8.041  0.00  0.00    +0.000 A 
ATOM      7  F   UNL     1      46.409   0.309   7.711  0.00  0.00    +0.000 F 
ATOM      8  C   UNL     1      45.338   1.789   9.185  0.00  0.00    +0.000 A 
BRANCH   5   9
ATOM      9  C   UNL     1      47.399   2.447   6.053  0.00  0.00    +0.000 C 
ATOM     10  O   UNL     1      47.052   2.847   4.954  0.00  0.00    +0.000 OA
BRANCH   9  11
ATOM     11  O   UNL     1      48.574   1.813   6.247  0.00  0.00    +0.000 OA
ATOM     12  H   UNL     1      48.658   1.321   7.090  0.00  0.00    +0.000 HD
ENDBRANCH   9  11
ENDBRANCH   5   9
ENDBRANCH   1   2
BRANCH   1  13
ATOM     13  O   UNL     1      43.344   2.182  11.051  0.00  0.00    +0.000 OA
ATOM     14  H   UNL     1      43.667   1.733  11.853  0.00  0.00    +0.000 HD
ENDBRANCH   1  13
BRANCH   1  15
ATOM     15  C   UNL     1      43.406   4.630  10.866  0.00  0.00    +0.000 C 
BRANCH  15  16
ATOM     16  O   UNL     1      43.674   5.366  12.065  0.00  0.00    +0.000 OA
BRANCH  16  20
ATOM     17  C   UNL     1      47.666   6.469  12.676  0.00  0.00    +0.000 A 
ATOM     18  C   UNL     1      47.073   5.543  13.545  0.00  0.00    +0.000 A 
ATOM     19  C   UNL     1      45.749   5.136  13.364  0.00  0.00    +0.000 A 
ATOM     20  C   UNL     1      44.990   5.653  12.313  0.00  0.00    +0.000 A 
ATOM     21  C   UNL     1      45.582   6.560  11.430  0.00  0.00    +0.000 A 
ATOM     22  C   UNL     1      46.908   6.967  11.609  0.00  0.00    +0.000 A 
BRANCH  17  23
ATOM     23  C   UNL     1      49.076   6.943  12.920  0.00  0.00    +0.000 C 
BRANCH  23  24
ATOM     24  N   UNL     1      49.508   6.666  14.284  0.00  0.00    +0.000 NA
ATOM     25  H   UNL     1      50.513   6.506  14.288  0.00  0.00    +0.000 HD
ATOM     26  H   UNL     1      49.076   5.797  14.594  0.00  0.00    +0.000 HD
ENDBRANCH  23  24
ENDBRANCH  17  23
ENDBRANCH  16  20
ENDBRANCH  15  16
ENDBRANCH   1  15
TORSDOF 9
ENDMDL
MODEL 3
REMARK VINA RESULT:    -7.924      3.370      6.270
REMARK INTER + INTRA:         -12.146
REMARK INTER:                 -11.319
REMARK INTRA:                  -0.827
REMARK UNBOUND:                -0.747
REMARK  Name = 
REMARK  9 active torsions:
REMARK  status: ('A' for Active; 'I' for Inactive)
REMARK    1  A    between atoms: N_1  and  C_2
REMARK    2  A    between atoms: C_2  and  C_3
REMARK    3  A    between atoms: C_6  and  O_7
REMARK    4  A    between atoms: O_7  and  C_8
REMARK    5  A    between atoms: C_8  and  C_9
REMARK    6  A    between atoms: C_9  and  O_10
REMARK    7  A    between atoms: C_9  and  C_11
REMARK    8  A    between atoms: C_14  and  C_15
REMARK    9  A    between atoms: C_15  and  O_17
REMARK                            x       y       z     vdW  Elec       q    Type
REMARK                         _______ _______ _______ _____ _____    ______ ____
ROOT
ATOM      1  C   UNL     1      43.357   5.460  12.028  0.00  0.00    +0.000 C 
ENDROOT
BRANCH   1   2
ATOM      2  C   UNL     1      44.799   5.739  12.402  0.00  0.00    +0.000 A 
ATOM      3  C   UNL     1      45.511   6.822  11.857  0.00  0.00    +0.000 A 
ATOM      4  C   UNL     1      46.830   7.082  12.243  0.00  0.00    +0.000 A 
ATOM      5  C   UNL     1      47.469   6.252  13.175  0.00  0.00    +0.000 A 
ATOM      6  C   UNL     1      46.770   5.168  13.693  0.00  0.00    +0.000 A 
ATOM      7  F   UNL     1      47.348   4.345  14.582  0.00  0.00    +0.000 F 
ATOM      8  C   UNL     1      45.453   4.906  13.317  0.00  0.00    +0.000 A 
BRANCH   5   9
ATOM      9  C   UNL     1      48.863   6.579  13.573  0.00  0.00    +0.000 C 
ATOM     10  O   UNL     1      49.176   6.763  14.738  0.00  0.00    +0.000 OA
BRANCH   9  11
ATOM     11  O   UNL     1      49.760   6.652  12.569  0.00  0.00    +0.000 OA
ATOM     12  H   UNL     1      50.498   7.283  12.703  0.00  0.00    +0.000 HD
ENDBRANCH   9  11
ENDBRANCH   5   9
ENDBRANCH   1   2
BRANCH   1  13
ATOM     13  O   UNL     1      42.603   5.233  13.216  0.00  0.00    +0.000 OA
ATOM     14  H   UNL     1      42.580   6.080  13.696  0.00  0.00    +0.000 HD
ENDBRANCH   1  13
BRANCH   1  15
ATOM     15  C   UNL     1      43.181   4.312  11.014  0.00  0.00    +0.000 C 
BRANCH  15  16
ATOM     16  O   UNL     1      43.583   4.721   9.702  0.00  0.00    +0.000 OA
BRANCH  16  20
ATOM     17  C   UNL     1      46.356   2.149   7.907  0.00  0.00    +0.000 A 
ATOM     18  C   UNL     1      46.409   3.519   7.619  0.00  0.00    +0.000 A 
ATOM     19  C   UNL     1      45.513   4.412   8.212  0.00  0.00    +0.000 A 
ATOM     20  C   UNL     1      44.541   3.950   9.099  0.00  0.00    +0.000 A 
ATOM     21  C   UNL     1      44.495   2.588   9.408  0.00  0.00    +0.000 A 
ATOM     22  C   UNL     1      45.394   1.692   8.817  0.00  0.00    +0.000 A 
BRANCH  17  23
ATOM     23  C   UNL     1      47.290   1.190   7.215  0.00  0.00    +0.000 C 
BRANCH  23  24
ATOM     24  N   UNL     1      48.222   1.887   6.337  0.00  0.00    +0.000 NA
ATOM     25  H   UNL     1      48.154   2.888   6.508  0.00  0.00    +0.000 HD
ATOM     26  H   UNL     1      47.935   1.739   5.372  0.00  0.00    +0.000 HD
ENDBRANCH  23  24
ENDBRANCH  17  23
ENDBRANCH  16  20
ENDBRANCH  15  16
ENDBRANCH   1  15
TORSDOF 9
ENDMDL
MODEL 4
REMARK VINA RESULT:    -7.680      3.442      6.613
REMARK INTER + INTRA:         -11.794
REMARK INTER:                 -11.055
REMARK INTRA:                  -0.739
REMARK UNBOUND:                -0.747
REMARK  Name = 
REMARK  9 active torsions:
REMARK  status: ('A' for Active; 'I' for Inactive)
REMARK    1  A    between atoms: N_1  and  C_2
REMARK    2  A    between atoms: C_2  and  C_3
REMARK    3  A    between atoms: C_6  and  O_7
REMARK    4  A    between atoms: O_7  and  C_8
REMARK    5  A    between atoms: C_8  and  C_9
REMARK    6  A    between atoms: C_9  and  O_10
REMARK    7  A    between atoms: C_9  and  C_11
REMARK    8  A    between atoms: C_14  and  C_15
REMARK    9  A    between atoms: C_15  and  O_17
REMARK                            x       y       z     vdW  Elec       q    Type
REMARK                         _______ _______ _______ _____ _____    ______ ____
ROOT
ATOM      1  C   UNL     1      43.943   3.946  12.295  0.00  0.00    +0.000 C 
ENDROOT
BRANCH   1   2
ATOM      2  C   UNL     1      45.163   4.753  12.688  0.00  0.00    +0.000 A 
ATOM      3  C   UNL     1      46.000   4.365  13.749  0.00  0.00    +0.000 A 
ATOM      4  C   UNL     1      47.141   5.105  14.071  0.00  0.00    +0.000 A 
ATOM      5  C   UNL     1      47.462   6.261  13.345  0.00  0.00    +0.000 A 
ATOM      6  C   UNL     1      46.619   6.655  12.313  0.00  0.00    +0.000 A 
ATOM      7  F   UNL     1      46.886   7.760  11.598  0.00  0.00    +0.000 F 
ATOM      8  C   UNL     1      45.482   5.918  11.982  0.00  0.00    +0.000 A 
BRANCH   5   9
ATOM      9  C   UNL     1      48.696   7.004  13.708  0.00  0.00    +0.000 C 
ATOM     10  O   UNL     1      48.726   7.793  14.639  0.00  0.00    +0.000 OA
BRANCH   9  11
ATOM     11  O   UNL     1      49.782   6.749  12.949  0.00  0.00    +0.000 OA
ATOM     12  H   UNL     1      50.133   7.508  12.440  0.00  0.00    +0.000 HD
ENDBRANCH   9  11
ENDBRANCH   5   9
ENDBRANCH   1   2
BRANCH   1  13
ATOM     13  O   UNL     1      44.086   2.615  12.784  0.00  0.00    +0.000 OA
ATOM     14  H   UNL     1      45.040   2.466  12.908  0.00  0.00    +0.000 HD
ENDBRANCH   1  13
BRANCH   1  15
ATOM     15  C   UNL     1      43.633   3.967  10.784  0.00  0.00    +0.000 C 
BRANCH  15  16
ATOM     16  O   UNL     1      43.992   2.725  10.170  0.00  0.00    +0.000 OA
BRANCH  16  20
ATOM     17  C   UNL     1      46.579   2.704   6.879  0.00  0.00    +0.000 A 
ATOM     18  C   UNL     1      46.008   3.915   7.290  0.00  0.00    +0.000 A 
ATOM     19  C   UNL     1      45.154   3.967   8.395  0.00  0.00    +0.000 A 
ATOM     20  C   UNL     1      44.849   2.805   9.105  0.00  0.00    +0.000 A 
ATOM     21  C   UNL     1      45.433   1.597   8.713  0.00  0.00    +0.000 A 
ATOM     22  C   UNL     1      46.290   1.544   7.609  0.00  0.00    +0.000 A 
BRANCH  17  23
ATOM     23  C   UNL     1      47.450   2.654   5.650  0.00  0.00    +0.000 C 
BRANCH  23  24
ATOM     24  N   UNL     1      48.587   1.761   5.832  0.00  0.00    +0.000 NA
ATOM     25  H   UNL     1      49.447   2.303   5.788  0.00  0.00    +0.000 HD
ATOM     26  H   UNL     1      48.618   1.107   5.052  0.00  0.00    +0.000 HD
ENDBRANCH  23  24
ENDBRANCH  17  23
ENDBRANCH  16  20
ENDBRANCH  15  16
ENDBRANCH   1  15
TORSDOF 9
ENDMDL
MODEL 5
REMARK VINA RESULT:    -7.478      1.088      1.784
REMARK INTER + INTRA:         -11.505
REMARK INTER:                 -10.755
REMARK INTRA:                  -0.749
REMARK UNBOUND:                -0.747
REMARK  Name = 
REMARK  9 active torsions:
REMARK  status: ('A' for Active; 'I' for Inactive)
REMARK    1  A    between atoms: N_1  and  C_2
REMARK    2  A    between atoms: C_2  and  C_3
REMARK    3  A    between atoms: C_6  and  O_7
REMARK    4  A    between atoms: O_7  and  C_8
REMARK    5  A    between atoms: C_8  and  C_9
REMARK    6  A    between atoms: C_9  and  O_10
REMARK    7  A    between atoms: C_9  and  C_11
REMARK    8  A    between atoms: C_14  and  C_15
REMARK    9  A    between atoms: C_15  and  O_17
REMARK                            x       y       z     vdW  Elec       q    Type
REMARK                         _______ _______ _______ _____ _____    ______ ____
ROOT
ATOM      1  C   UNL     1      43.450   4.016  10.750  0.00  0.00    +0.000 C 
ENDROOT
BRANCH   1   2
ATOM      2  C   UNL     1      44.484   3.531   9.756  0.00  0.00    +0.000 A 
ATOM      3  C   UNL     1      44.648   2.167   9.460  0.00  0.00    +0.000 A 
ATOM      4  C   UNL     1      45.586   1.745   8.511  0.00  0.00    +0.000 A 
ATOM      5  C   UNL     1      46.390   2.682   7.848  0.00  0.00    +0.000 A 
ATOM      6  C   UNL     1      46.242   4.028   8.161  0.00  0.00    +0.000 A 
ATOM      7  F   UNL     1      46.998   4.957   7.555  0.00  0.00    +0.000 F 
ATOM      8  C   UNL     1      45.306   4.457   9.102  0.00  0.00    +0.000 A 
BRANCH   5   9
ATOM      9  C   UNL     1      47.356   2.191   6.832  0.00  0.00    +0.000 C 
ATOM     10  O   UNL     1      48.070   1.221   7.034  0.00  0.00    +0.000 OA
BRANCH   9  11
ATOM     11  O   UNL     1      47.392   2.879   5.673  0.00  0.00    +0.000 OA
ATOM     12  H   UNL     1      47.906   2.466   4.948  0.00  0.00    +0.000 HD
ENDBRANCH   9  11
ENDBRANCH   5   9
ENDBRANCH   1   2
BRANCH   1  13
ATOM     13  O   UNL     1      43.035   5.331  10.389  0.00  0.00    +0.000 OA
ATOM     14  H   UNL     1      43.470   5.536   9.543  0.00  0.00    +0.000 HD
ENDBRANCH   1  13
BRANCH   1  15
ATOM     15  C   UNL     1      43.909   3.947  12.221  0.00  0.00    +0.000 C 
BRANCH  15  16
ATOM     16  O   UNL     1      44.022   5.258  12.784  0.00  0.00    +0.000 OA
BRANCH  16  20
ATOM     17  C   UNL     1      47.934   6.748  12.733  0.00  0.00    +0.000 A 
ATOM     18  C   UNL     1      46.925   7.455  12.066  0.00  0.00    +0.000 A 
ATOM     19  C   UNL     1      45.604   7.000  12.074  0.00  0.00    +0.000 A 
ATOM     20  C   UNL     1      45.268   5.825  12.746  0.00  0.00    +0.000 A 
ATOM     21  C   UNL     1      46.265   5.126  13.433  0.00  0.00    +0.000 A 
ATOM     22  C   UNL     1      47.588   5.581  13.427  0.00  0.00    +0.000 A 
BRANCH  17  23
ATOM     23  C   UNL     1      49.364   7.219  12.665  0.00  0.00    +0.000 C 
BRANCH  23  24
ATOM     24  N   UNL     1      50.023   7.129  13.962  0.00  0.00    +0.000 NA
ATOM     25  H   UNL     1      49.415   7.532  14.672  0.00  0.00    +0.000 HD
ATOM     26  H   UNL     1      50.864   7.702  13.942  0.00  0.00    +0.000 HD
ENDBRANCH  23  24
ENDBRANCH  17  23
ENDBRANCH  16  20
ENDBRANCH  15  16
ENDBRANCH   1  15
TORSDOF 9
ENDMDL
MODEL 6
REMARK VINA RESULT:    -5.974      4.334      7.816
REMARK INTER + INTRA:          -9.341
REMARK INTER:                  -8.821
REMARK INTRA:                  -0.519
REMARK UNBOUND:                -0.747
REMARK  Name = 
REMARK  9 active torsions:
REMARK  status: ('A' for Active; 'I' for Inactive)
REMARK    1  A    between atoms: N_1  and  C_2
REMARK    2  A    between atoms: C_2  and  C_3
REMARK    3  A    between atoms: C_6  and  O_7
REMARK    4  A    between atoms: O_7  and  C_8
REMARK    5  A    between atoms: C_8  and  C_9
REMARK    6  A    between atoms: C_9  and  O_10
REMARK    7  A    between atoms: C_9  and  C_11
REMARK    8  A    between atoms: C_14  and  C_15
REMARK    9  A    between atoms: C_15  and  O_17
REMARK                            x       y       z     vdW  Elec       q    Type
REMARK                         _______ _______ _______ _____ _____    ______ ____
ROOT
ATOM      1  C   UNL     1      46.567   5.461  13.529  0.00  0.00    +0.000 C 
ENDROOT
BRANCH   1   2
ATOM      2  C   UNL     1      47.262   5.152  14.839  0.00  0.00    +0.000 A 
ATOM      3  C   UNL     1      48.214   6.022  15.398  0.00  0.00    +0.000 A 
ATOM      4  C   UNL     1      48.817   5.734  16.627  0.00  0.00    +0.000 A 
ATOM      5  C   UNL     1      48.489   4.557  17.315  0.00  0.00    +0.000 A 
ATOM      6  C   UNL     1      47.565   3.687  16.747  0.00  0.00    +0.000 A 
ATOM      7  F   UNL     1      47.230   2.547  17.370  0.00  0.00    +0.000 F 
ATOM      8  C   UNL     1      46.956   3.972  15.525  0.00  0.00    +0.000 A 
BRANCH   5   9
ATOM      9  C   UNL     1      49.137   4.302  18.627  0.00  0.00    +0.000 C 
ATOM     10  O   UNL     1      48.688   4.753  19.669  0.00  0.00    +0.000 OA
BRANCH   9  11
ATOM     11  O   UNL     1      50.247   3.537  18.597  0.00  0.00    +0.000 OA
ATOM     12  H   UNL     1      50.183   2.715  18.068  0.00  0.00    +0.000 HD
ENDBRANCH   9  11
ENDBRANCH   5   9
ENDBRANCH   1   2
BRANCH   1  13
ATOM     13  O   UNL     1      46.317   6.863  13.453  0.00  0.00    +0.000 OA
ATOM     14  H   UNL     1      47.136   7.273  13.123  0.00  0.00    +0.000 HD
ENDBRANCH   1  13
BRANCH   1  15
ATOM     15  C   UNL     1      45.284   4.640  13.287  0.00  0.00    +0.000 C 
BRANCH  15  16
ATOM     16  O   UNL     1      44.536   5.170  12.187  0.00  0.00    +0.000 OA
BRANCH  16  20
ATOM     17  C   UNL     1      45.552   3.746   8.384  0.00  0.00    +0.000 A 
ATOM     18  C   UNL     1      45.963   5.030   8.764  0.00  0.00    +0.000 A 
ATOM     19  C   UNL     1      45.660   5.535  10.031  0.00  0.00    +0.000 A 
ATOM     20  C   UNL     1      44.932   4.766  10.940  0.00  0.00    +0.000 A 
ATOM     21  C   UNL     1      44.537   3.476  10.576  0.00  0.00    +0.000 A 
ATOM     22  C   UNL     1      44.842   2.968   9.308  0.00  0.00    +0.000 A 
BRANCH  17  23
ATOM     23  C   UNL     1      45.835   3.239   6.993  0.00  0.00    +0.000 C 
BRANCH  23  24
ATOM     24  N   UNL     1      46.820   4.067   6.309  0.00  0.00    +0.000 NA
ATOM     25  H   UNL     1      47.164   3.568   5.492  0.00  0.00    +0.000 HD
ATOM     26  H   UNL     1      47.621   4.199   6.925  0.00  0.00    +0.000 HD
ENDBRANCH  23  24
ENDBRANCH  17  23
ENDBRANCH  16  20
ENDBRANCH  15  16
ENDBRANCH   1  15
TORSDOF 9
ENDMDL
MODEL 7
REMARK VINA RESULT:    -5.920      6.072      8.747
REMARK INTER + INTRA:          -9.263
REMARK INTER:                  -8.829
REMARK INTRA:                  -0.434
REMARK UNBOUND:                -0.747
REMARK  Name = 
REMARK  9 active torsions:
REMARK  status: ('A' for Active; 'I' for Inactive)
REMARK    1  A    between atoms: N_1  and  C_2
REMARK    2  A    between atoms: C_2  and  C_3
REMARK    3  A    between atoms: C_6  and  O_7
REMARK    4  A    between atoms: O_7  and  C_8
REMARK    5  A    between atoms: C_8  and  C_9
REMARK    6  A    between atoms: C_9  and  O_10
REMARK    7  A    between atoms: C_9  and  C_11
REMARK    8  A    between atoms: C_14  and  C_15
REMARK    9  A    between atoms: C_15  and  O_17
REMARK                            x       y       z     vdW  Elec       q    Type
REMARK                         _______ _______ _______ _____ _____    ______ ____
ROOT
ATOM      1  C   UNL     1      47.637   4.053  17.081  0.00  0.00    +0.000 C 
ENDROOT
BRANCH   1   2
ATOM      2  C   UNL     1      49.031   3.515  17.333  0.00  0.00    +0.000 A 
ATOM      3  C   UNL     1      49.411   2.221  16.935  0.00  0.00    +0.000 A 
ATOM      4  C   UNL     1      50.713   1.758  17.146  0.00  0.00    +0.000 A 
ATOM      5  C   UNL     1      51.661   2.578  17.774  0.00  0.00    +0.000 A 
ATOM      6  C   UNL     1      51.275   3.848  18.188  0.00  0.00    +0.000 A 
ATOM      7  F   UNL     1      52.150   4.661  18.800  0.00  0.00    +0.000 F 
ATOM      8  C   UNL     1      49.980   4.318  17.976  0.00  0.00    +0.000 A 
BRANCH   5   9
ATOM      9  C   UNL     1      53.039   2.053  17.958  0.00  0.00    +0.000 C 
ATOM     10  O   UNL     1      53.263   1.025  18.576  0.00  0.00    +0.000 OA
BRANCH   9  11
ATOM     11  O   UNL     1      54.025   2.780  17.394  0.00  0.00    +0.000 OA
ATOM     12  H   UNL     1      54.888   2.759  17.857  0.00  0.00    +0.000 HD
ENDBRANCH   9  11
ENDBRANCH   5   9
ENDBRANCH   1   2
BRANCH   1  13
ATOM     13  O   UNL     1      46.693   3.000  17.252  0.00  0.00    +0.000 OA
ATOM     14  H   UNL     1      46.390   2.750  16.361  0.00  0.00    +0.000 HD
ENDBRANCH   1  13
BRANCH   1  15
ATOM     15  C   UNL     1      47.469   4.752  15.716  0.00  0.00    +0.000 C 
BRANCH  15  16
ATOM     16  O   UNL     1      47.255   3.795  14.673  0.00  0.00    +0.000 OA
BRANCH  16  20
ATOM     17  C   UNL     1      44.580   4.725  11.590  0.00  0.00    +0.000 A 
ATOM     18  C   UNL     1      45.132   5.764  12.351  0.00  0.00    +0.000 A 
ATOM     19  C   UNL     1      46.042   5.496  13.377  0.00  0.00    +0.000 A 
ATOM     20  C   UNL     1      46.412   4.182  13.666  0.00  0.00    +0.000 A 
ATOM     21  C   UNL     1      45.882   3.143  12.897  0.00  0.00    +0.000 A 
ATOM     22  C   UNL     1      44.972   3.409  11.868  0.00  0.00    +0.000 A 
BRANCH  17  23
ATOM     23  C   UNL     1      43.554   5.025  10.527  0.00  0.00    +0.000 C 
BRANCH  23  24
ATOM     24  N   UNL     1      42.778   6.216  10.850  0.00  0.00    +0.000 NA
ATOM     25  H   UNL     1      42.951   6.473  11.819  0.00  0.00    +0.000 HD
ATOM     26  H   UNL     1      41.788   5.989  10.783  0.00  0.00    +0.000 HD
ENDBRANCH  23  24
ENDBRANCH  17  23
ENDBRANCH  16  20
ENDBRANCH  15  16
ENDBRANCH   1  15
TORSDOF 9
ENDMDL
MODEL 8
REMARK VINA RESULT:    -5.831      5.046      8.503
REMARK INTER + INTRA:          -9.135
REMARK INTER:                  -8.623
REMARK INTRA:                  -0.512
REMARK UNBOUND:                -0.747
REMARK  Name = 
REMARK  9 active torsions:
REMARK  status: ('A' for Active; 'I' for Inactive)
REMARK    1  A    between atoms: N_1  and  C_2
REMARK    2  A    between atoms: C_2  and  C_3
REMARK    3  A    between atoms: C_6  and  O_7
REMARK    4  A    between atoms: O_7  and  C_8
REMARK    5  A    between atoms: C_8  and  C_9
REMARK    6  A    between atoms: C_9  and  O_10
REMARK    7  A    between atoms: C_9  and  C_11
REMARK    8  A    between atoms: C_14  and  C_15
REMARK    9  A    between atoms: C_15  and  O_17
REMARK                            x       y       z     vdW  Elec       q    Type
REMARK                         _______ _______ _______ _____ _____    ______ ____
ROOT
ATOM      1  C   UNL     1      46.813   4.221  14.650  0.00  0.00    +0.000 C 
ENDROOT
BRANCH   1   2
ATOM      2  C   UNL     1      47.532   4.366  15.976  0.00  0.00    +0.000 A 
ATOM      3  C   UNL     1      47.401   3.413  17.000  0.00  0.00    +0.000 A 
ATOM      4  C   UNL     1      48.102   3.549  18.203  0.00  0.00    +0.000 A 
ATOM      5  C   UNL     1      48.939   4.654  18.411  0.00  0.00    +0.000 A 
ATOM      6  C   UNL     1      49.046   5.608  17.405  0.00  0.00    +0.000 A 
ATOM      7  F   UNL     1      49.831   6.685  17.568  0.00  0.00    +0.000 F 
ATOM      8  C   UNL     1      48.355   5.475  16.202  0.00  0.00    +0.000 A 
BRANCH   5   9
ATOM      9  C   UNL     1      49.681   4.747  19.694  0.00  0.00    +0.000 C 
ATOM     10  O   UNL     1      49.175   5.214  20.702  0.00  0.00    +0.000 OA
BRANCH   9  11
ATOM     11  O   UNL     1      50.946   4.279  19.678  0.00  0.00    +0.000 OA
ATOM     12  H   UNL     1      51.463   4.478  18.871  0.00  0.00    +0.000 HD
ENDBRANCH   9  11
ENDBRANCH   5   9
ENDBRANCH   1   2
BRANCH   1  13
ATOM     13  O   UNL     1      47.434   3.183  13.895  0.00  0.00    +0.000 OA
ATOM     14  H   UNL     1      47.775   2.538  14.539  0.00  0.00    +0.000 HD
ENDBRANCH   1  13
BRANCH   1  15
ATOM     15  C   UNL     1      46.711   5.530  13.842  0.00  0.00    +0.000 C 
BRANCH  15  16
ATOM     16  O   UNL     1      45.415   5.667  13.249  0.00  0.00    +0.000 OA
BRANCH  16  20
ATOM     17  C   UNL     1      45.192   4.257   9.314  0.00  0.00    +0.000 A 
ATOM     18  C   UNL     1      44.589   3.517  10.339  0.00  0.00    +0.000 A 
ATOM     19  C   UNL     1      44.625   3.963  11.663  0.00  0.00    +0.000 A 
ATOM     20  C   UNL     1      45.274   5.155  11.987  0.00  0.00    +0.000 A 
ATOM     21  C   UNL     1      45.859   5.910  10.967  0.00  0.00    +0.000 A 
ATOM     22  C   UNL     1      45.821   5.466   9.640  0.00  0.00    +0.000 A 
BRANCH  17  23
ATOM     23  C   UNL     1      45.196   3.734   7.901  0.00  0.00    +0.000 C 
BRANCH  23  24
ATOM     24  N   UNL     1      46.426   4.082   7.201  0.00  0.00    +0.000 NA
ATOM     25  H   UNL     1      46.888   4.840   7.698  0.00  0.00    +0.000 HD
ATOM     26  H   UNL     1      46.188   4.443   6.280  0.00  0.00    +0.000 HD
ENDBRANCH  23  24
ENDBRANCH  17  23
ENDBRANCH  16  20
ENDBRANCH  15  16
ENDBRANCH   1  15
TORSDOF 9
ENDMDL
MODEL 9
REMARK VINA RESULT:    -5.829      3.079      4.257
REMARK INTER + INTRA:          -9.132
REMARK INTER:                  -8.543
REMARK INTRA:                  -0.588
REMARK UNBOUND:                -0.747
REMARK  Name = 
REMARK  9 active torsions:
REMARK  status: ('A' for Active; 'I' for Inactive)
REMARK    1  A    between atoms: N_1  and  C_2
REMARK    2  A    between atoms: C_2  and  C_3
REMARK    3  A    between atoms: C_6  and  O_7
REMARK    4  A    between atoms: O_7  and  C_8
REMARK    5  A    between atoms: C_8  and  C_9
REMARK    6  A    between atoms: C_9  and  O_10
REMARK    7  A    between atoms: C_9  and  C_11
REMARK    8  A    between atoms: C_14  and  C_15
REMARK    9  A    between atoms: C_15  and  O_17
REMARK                            x       y       z     vdW  Elec       q    Type
REMARK                         _______ _______ _______ _____ _____    ______ ____
ROOT
ATOM      1  C   UNL     1      45.268   6.838  12.859  0.00  0.00    +0.000 C 
ENDROOT
BRANCH   1   2
ATOM      2  C   UNL     1      45.103   5.799  11.769  0.00  0.00    +0.000 A 
ATOM      3  C   UNL     1      45.734   5.927  10.519  0.00  0.00    +0.000 A 
ATOM      4  C   UNL     1      45.597   4.938   9.540  0.00  0.00    +0.000 A 
ATOM      5  C   UNL     1      44.811   3.804   9.788  0.00  0.00    +0.000 A 
ATOM      6  C   UNL     1      44.169   3.692  11.016  0.00  0.00    +0.000 A 
ATOM      7  F   UNL     1      43.401   2.626  11.290  0.00  0.00    +0.000 F 
ATOM      8  C   UNL     1      44.306   4.672  11.999  0.00  0.00    +0.000 A 
BRANCH   5   9
ATOM      9  C   UNL     1      44.711   2.767   8.728  0.00  0.00    +0.000 C 
ATOM     10  O   UNL     1      45.120   1.629   8.896  0.00  0.00    +0.000 OA
BRANCH   9  11
ATOM     11  O   UNL     1      44.136   3.160   7.573  0.00  0.00    +0.000 OA
ATOM     12  H   UNL     1      43.177   3.355   7.620  0.00  0.00    +0.000 HD
ENDBRANCH   9  11
ENDBRANCH   5   9
ENDBRANCH   1   2
BRANCH   1  13
ATOM     13  O   UNL     1      44.763   8.087  12.393  0.00  0.00    +0.000 OA
ATOM     14  H   UNL     1      45.413   8.428  11.753  0.00  0.00    +0.000 HD
ENDBRANCH   1  13
BRANCH   1  15
ATOM     15  C   UNL     1      46.709   6.970  13.391  0.00  0.00    +0.000 C 
BRANCH  15  16
ATOM     16  O   UNL     1      47.287   5.682  13.630  0.00  0.00    +0.000 OA
BRANCH  16  20
ATOM     17  C   UNL     1      48.546   4.693  17.498  0.00  0.00    +0.000 A 
ATOM     18  C   UNL     1      48.994   5.887  16.919  0.00  0.00    +0.000 A 
ATOM     19  C   UNL     1      48.583   6.261  15.637  0.00  0.00    +0.000 A 
ATOM     20  C   UNL     1      47.720   5.444  14.907  0.00  0.00    +0.000 A 
ATOM     21  C   UNL     1      47.250   4.262  15.488  0.00  0.00    +0.000 A 
ATOM     22  C   UNL     1      47.660   3.887  16.772  0.00  0.00    +0.000 A 
BRANCH  17  23
ATOM     23  C   UNL     1      49.046   4.274  18.857  0.00  0.00    +0.000 C 
BRANCH  23  24
ATOM     24  N   UNL     1      48.259   3.177  19.405  0.00  0.00    +0.000 NA
ATOM     25  H   UNL     1      48.602   2.298  19.022  0.00  0.00    +0.000 HD
ATOM     26  H   UNL     1      47.296   3.274  19.086  0.00  0.00    +0.000 HD
ENDBRANCH  23  24
ENDBRANCH  17  23
ENDBRANCH  16  20
ENDBRANCH  15  16
ENDBRANCH   1  15
TORSDOF 9
ENDMDL
