MODEL 1
REMARK VINA RESULT:    -8.549      0.000      0.000
REMARK INTER + INTRA:         -12.338
REMARK INTER:                 -11.548
REMARK INTRA:                  -0.790
REMARK UNBOUND:                -0.790
REMARK  Name = 
REMARK  6 active torsions:
REMARK  status: ('A' for Active; 'I' for Inactive)
REMARK    1  A    between atoms: C_2  and  C_4
REMARK    2  A    between atoms: C_7  and  N_8
REMARK    3  A    between atoms: N_8  and  C_9
REMARK    4  A    between atoms: C_9  and  C_10
REMARK    5  A    between atoms: C_10  and  C_13
REMARK    6  A    between atoms: N_18  and  C_19
REMARK                            x       y       z     vdW  Elec       q    Type
REMARK                         _______ _______ _______ _____ _____    ______ ____
ROOT
ATOM      1  C   UNL     1      43.579   5.418  12.257  0.00  0.00    +0.000 C 
ATOM      2  F   UNL     1      43.462   6.689  11.760  0.00  0.00    +0.000 F 
ATOM      3  F   UNL     1      42.643   5.340  13.251  0.00  0.00    +0.000 F 
ENDROOT
BRANCH   1   4
ATOM      4  C   UNL     1      44.968   5.142  12.787  0.00  0.00    +0.000 A 
ATOM      5  C   UNL     1      45.495   3.854  12.845  0.00  0.00    +0.000 A 
ATOM      6  C   UNL     1      46.763   3.688  13.378  0.00  0.00    +0.000 A 
ATOM      7  N   UNL     1      47.522   4.700  13.867  0.00  0.00    +0.000 NA
ATOM      8  C   UNL     1      47.026   5.947  13.781  0.00  0.00    +0.000 A 
ATOM      9  N   UNL     1      47.754   7.049  14.271  0.00  0.00    +0.000 N 
ATOM     10  C   UNL     1      45.765   6.200  13.246  0.00  0.00    +0.000 A 
ATOM     11  H   UNL     1      47.884   7.720  13.517  0.00  0.00    +0.000 HD
BRANCH   9  12
ATOM     12  C   UNL     1      48.892   6.938  15.144  0.00  0.00    +0.000 C 
ATOM     13  C   UNL     1      48.978   8.111  16.133  0.00  0.00    +0.000 C 
ATOM     14  O   UNL     1      50.304   8.463  15.675  0.00  0.00    +0.000 OA
ATOM     15  C   UNL     1      50.228   7.470  14.618  0.00  0.00    +0.000 C 
ENDBRANCH   9  12
ENDBRANCH   1   4
BRANCH   1  16
ATOM     16  C   UNL     1      43.179   4.426  11.123  0.00  0.00    +0.000 C 
BRANCH  16  17
ATOM     17  N   UNL     1      43.767   4.802   9.818  0.00  0.00    +0.000 N 
ATOM     18  H   UNL     1      44.103   5.766   9.806  0.00  0.00    +0.000 HD
BRANCH  17  22
ATOM     19  C   UNL     1      46.250   2.042   7.942  0.00  0.00    +0.000 A 
ATOM     20  C   UNL     1      46.406   3.378   7.607  0.00  0.00    +0.000 A 
ATOM     21  C   UNL     1      45.558   4.316   8.201  0.00  0.00    +0.000 A 
ATOM     22  C   UNL     1      44.573   3.916   9.106  0.00  0.00    +0.000 A 
ATOM     23  C   UNL     1      44.535   2.543   9.390  0.00  0.00    +0.000 A 
ATOM     24  N   UNL     1      45.322   1.592   8.825  0.00  0.00    +0.000 NA
BRANCH  19  26
ATOM     25  N   UNL     1      46.861  -0.287   7.650  0.00  0.00    +0.000 N 
ATOM     26  C   UNL     1      47.149   1.012   7.328  0.00  0.00    +0.000 C 
ATOM     27  O   UNL     1      48.080   1.303   6.585  0.00  0.00    +0.000 OA
ATOM     28  H   UNL     1      47.435  -1.032   7.283  0.00  0.00    +0.000 HD
ATOM     29  H   UNL     1      46.087  -0.486   8.274  0.00  0.00    +0.000 HD
ENDBRANCH  19  26
ENDBRANCH  17  22
ENDBRANCH  16  17
ENDBRANCH   1  16
TORSDOF 6
ENDMDL
MODEL 2
REMARK VINA RESULT:    -8.537      1.600      1.745
REMARK INTER + INTRA:         -12.321
REMARK INTER:                 -11.519
REMARK INTRA:                  -0.803
REMARK UNBOUND:                -0.790
REMARK  Name = 
REMARK  6 active torsions:
REMARK  status: ('A' for Active; 'I' for Inactive)
REMARK    1  A    between atoms: C_2  and  C_4
REMARK    2  A    between atoms: C_7  and  N_8
REMARK    3  A    between atoms: N_8  and  C_9
REMARK    4  A    between atoms: C_9  and  C_10
REMARK    5  A    between atoms: C_10  and  C_13
REMARK    6  A    between atoms: N_18  and  C_19
REMARK                            x       y       z     vdW  Elec       q    Type
REMARK                         _______ _______ _______ _____ _____    ______ ____
ROOT
ATOM      1  C   UNL     1      43.704   5.654  12.191  0.00  0.00    +0.000 C 
ATOM      2  F   UNL     1      43.361   6.836  11.591  0.00  0.00    +0.000 F 
ATOM      3  F   UNL     1      42.895   5.568  13.291  0.00  0.00    +0.000 F 
ENDROOT
BRANCH   1   4
ATOM      4  C   UNL     1      45.165   5.618  12.579  0.00  0.00    +0.000 A 
ATOM      5  C   UNL     1      45.646   4.764  13.569  0.00  0.00    +0.000 A 
ATOM      6  C   UNL     1      46.994   4.821  13.886  0.00  0.00    +0.000 A 
ATOM      7  N   UNL     1      47.876   5.670  13.305  0.00  0.00    +0.000 NA
ATOM      8  C   UNL     1      47.418   6.472  12.327  0.00  0.00    +0.000 A 
ATOM      9  N   UNL     1      48.275   7.384  11.679  0.00  0.00    +0.000 N 
ATOM     10  C   UNL     1      46.080   6.465  11.940  0.00  0.00    +0.000 A 
ATOM     11  H   UNL     1      48.259   7.198  10.678  0.00  0.00    +0.000 HD
BRANCH   9  12
ATOM     12  C   UNL     1      49.573   7.759  12.174  0.00  0.00    +0.000 C 
ATOM     13  C   UNL     1      49.774   9.283  12.169  0.00  0.00    +0.000 C 
ATOM     14  O   UNL     1      50.949   9.172  11.332  0.00  0.00    +0.000 OA
ATOM     15  C   UNL     1      50.730   7.746  11.171  0.00  0.00    +0.000 C 
ENDBRANCH   9  12
ENDBRANCH   1   4
BRANCH   1  16
ATOM     16  C   UNL     1      43.330   4.499  11.213  0.00  0.00    +0.000 C 
BRANCH  16  17
ATOM     17  N   UNL     1      43.745   4.789   9.822  0.00  0.00    +0.000 N 
ATOM     18  H   UNL     1      43.990   5.770   9.685  0.00  0.00    +0.000 HD
BRANCH  17  22
ATOM     19  C   UNL     1      46.224   2.029   7.940  0.00  0.00    +0.000 A 
ATOM     20  C   UNL     1      46.382   3.366   7.608  0.00  0.00    +0.000 A 
ATOM     21  C   UNL     1      45.535   4.304   8.204  0.00  0.00    +0.000 A 
ATOM     22  C   UNL     1      44.550   3.903   9.108  0.00  0.00    +0.000 A 
ATOM     23  C   UNL     1      44.509   2.530   9.389  0.00  0.00    +0.000 A 
ATOM     24  N   UNL     1      45.296   1.579   8.822  0.00  0.00    +0.000 NA
BRANCH  19  26
ATOM     25  N   UNL     1      46.847  -0.299   7.664  0.00  0.00    +0.000 N 
ATOM     26  C   UNL     1      47.122   0.999   7.325  0.00  0.00    +0.000 C 
ATOM     27  O   UNL     1      48.040   1.289   6.565  0.00  0.00    +0.000 OA
ATOM     28  H   UNL     1      47.422  -1.044   7.297  0.00  0.00    +0.000 HD
ATOM     29  H   UNL     1      46.084  -0.496   8.300  0.00  0.00    +0.000 HD
ENDBRANCH  19  26
ENDBRANCH  17  22
ENDBRANCH  16  17
ENDBRANCH   1  16
TORSDOF 6
ENDMDL
MODEL 3
REMARK VINA RESULT:    -7.839      1.602      2.222
REMARK INTER + INTRA:         -11.379
REMARK INTER:                 -10.764
REMARK INTRA:                  -0.615
REMARK UNBOUND:                -0.790
REMARK  Name = 
REMARK  6 active torsions:
REMARK  status: ('A' for Active; 'I' for Inactive)
REMARK    1  A    between atoms: C_2  and  C_4
REMARK    2  A    between atoms: C_7  and  N_8
REMARK    3  A    between atoms: N_8  and  C_9
REMARK    4  A    between atoms: C_9  and  C_10
REMARK    5  A    between atoms: C_10  and  C_13
REMARK    6  A    between atoms: N_18  and  C_19
REMARK                            x       y       z     vdW  Elec       q    Type
REMARK                         _______ _______ _______ _____ _____    ______ ____
ROOT
ATOM      1  C   UNL     1      43.101   4.827  12.333  0.00  0.00    +0.000 C 
ATOM      2  F   UNL     1      41.883   5.204  11.833  0.00  0.00    +0.000 F 
ATOM      3  F   UNL     1      42.849   4.430  13.617  0.00  0.00    +0.000 F 
ENDROOT
BRANCH   1   4
ATOM      4  C   UNL     1      44.105   5.958  12.294  0.00  0.00    +0.000 A 
ATOM      5  C   UNL     1      43.986   7.022  11.403  0.00  0.00    +0.000 A 
ATOM      6  C   UNL     1      44.970   7.997  11.412  0.00  0.00    +0.000 A 
ATOM      7  N   UNL     1      46.057   7.974  12.223  0.00  0.00    +0.000 NA
ATOM      8  C   UNL     1      46.154   6.964  13.105  0.00  0.00    +0.000 A 
ATOM      9  N   UNL     1      47.256   6.871  13.977  0.00  0.00    +0.000 N 
ATOM     10  C   UNL     1      45.200   5.951  13.169  0.00  0.00    +0.000 A 
ATOM     11  H   UNL     1      46.917   6.847  14.937  0.00  0.00    +0.000 HD
BRANCH   9  12
ATOM     12  C   UNL     1      48.475   7.618  13.817  0.00  0.00    +0.000 C 
ATOM     13  C   UNL     1      49.591   7.108  14.742  0.00  0.00    +0.000 C 
ATOM     14  O   UNL     1      49.749   8.411  15.349  0.00  0.00    +0.000 OA
ATOM     15  C   UNL     1      48.604   8.918  14.615  0.00  0.00    +0.000 C 
ENDBRANCH   9  12
ENDBRANCH   1   4
BRANCH   1  16
ATOM     16  C   UNL     1      43.585   3.589  11.519  0.00  0.00    +0.000 C 
BRANCH  16  17
ATOM     17  N   UNL     1      43.591   3.845  10.062  0.00  0.00    +0.000 N 
ATOM     18  H   UNL     1      43.259   4.781   9.830  0.00  0.00    +0.000 HD
BRANCH  17  22
ATOM     19  C   UNL     1      46.593   2.662   7.436  0.00  0.00    +0.000 A 
ATOM     20  C   UNL     1      45.975   1.677   8.192  0.00  0.00    +0.000 A 
ATOM     21  C   UNL     1      44.988   2.059   9.104  0.00  0.00    +0.000 A 
ATOM     22  C   UNL     1      44.637   3.402   9.255  0.00  0.00    +0.000 A 
ATOM     23  C   UNL     1      45.308   4.301   8.412  0.00  0.00    +0.000 A 
ATOM     24  N   UNL     1      46.286   3.981   7.526  0.00  0.00    +0.000 NA
BRANCH  19  26
ATOM     25  N   UNL     1      47.731   3.086   5.337  0.00  0.00    +0.000 N 
ATOM     26  C   UNL     1      47.650   2.283   6.443  0.00  0.00    +0.000 C 
ATOM     27  O   UNL     1      48.397   1.324   6.603  0.00  0.00    +0.000 OA
ATOM     28  H   UNL     1      48.412   2.881   4.619  0.00  0.00    +0.000 HD
ATOM     29  H   UNL     1      47.091   3.865   5.239  0.00  0.00    +0.000 HD
ENDBRANCH  19  26
ENDBRANCH  17  22
ENDBRANCH  16  17
ENDBRANCH   1  16
TORSDOF 6
ENDMDL
MODEL 4
REMARK VINA RESULT:    -7.711      3.402      4.573
REMARK INTER + INTRA:         -11.206
REMARK INTER:                 -11.089
REMARK INTRA:                  -0.116
REMARK UNBOUND:                -0.790
REMARK  Name = 
REMARK  6 active torsions:
REMARK  status: ('A' for Active; 'I' for Inactive)
REMARK    1  A    between atoms: C_2  and  C_4
REMARK    2  A    between atoms: C_7  and  N_8
REMARK    3  A    between atoms: N_8  and  C_9
REMARK    4  A    between atoms: C_9  and  C_10
REMARK    5  A    between atoms: C_10  and  C_13
REMARK    6  A    between atoms: N_18  and  C_19
REMARK                            x       y       z     vdW  Elec       q    Type
REMARK                         _______ _______ _______ _____ _____    ______ ____
ROOT
ATOM      1  C   UNL     1      44.243   4.160  12.497  0.00  0.00    +0.000 C 
ATOM      2  F   UNL     1      43.618   3.940  13.696  0.00  0.00    +0.000 F 
ATOM      3  F   UNL     1      45.392   3.420  12.555  0.00  0.00    +0.000 F 
ENDROOT
BRANCH   1   4
ATOM      4  C   UNL     1      44.543   5.626  12.275  0.00  0.00    +0.000 A 
ATOM      5  C   UNL     1      45.700   6.226  12.766  0.00  0.00    +0.000 A 
ATOM      6  C   UNL     1      45.879   7.583  12.546  0.00  0.00    +0.000 A 
ATOM      7  N   UNL     1      44.988   8.372  11.898  0.00  0.00    +0.000 NA
ATOM      8  C   UNL     1      43.886   7.786  11.396  0.00  0.00    +0.000 A 
ATOM      9  N   UNL     1      42.913   8.542  10.713  0.00  0.00    +0.000 N 
ATOM     10  C   UNL     1      43.639   6.425  11.562  0.00  0.00    +0.000 A 
ATOM     11  H   UNL     1      42.785   8.151   9.782  0.00  0.00    +0.000 HD
BRANCH   9  12
ATOM     12  C   UNL     1      42.839   9.978  10.749  0.00  0.00    +0.000 C 
ATOM     13  C   UNL     1      41.387  10.481  10.726  0.00  0.00    +0.000 C 
ATOM     14  O   UNL     1      41.628  11.268   9.536  0.00  0.00    +0.000 OA
ATOM     15  C   UNL     1      42.965  10.715   9.412  0.00  0.00    +0.000 C 
ENDBRANCH   9  12
ENDBRANCH   1   4
BRANCH   1  16
ATOM     16  C   UNL     1      43.335   3.573  11.374  0.00  0.00    +0.000 C 
BRANCH  16  17
ATOM     17  N   UNL     1      43.605   4.192  10.057  0.00  0.00    +0.000 N 
ATOM     18  H   UNL     1      43.612   5.211  10.100  0.00  0.00    +0.000 HD
BRANCH  17  22
ATOM     19  C   UNL     1      46.557   2.461   7.691  0.00  0.00    +0.000 A 
ATOM     20  C   UNL     1      46.394   3.836   7.612  0.00  0.00    +0.000 A 
ATOM     21  C   UNL     1      45.384   4.431   8.373  0.00  0.00    +0.000 A 
ATOM     22  C   UNL     1      44.556   3.658   9.190  0.00  0.00    +0.000 A 
ATOM     23  C   UNL     1      44.841   2.285   9.212  0.00  0.00    +0.000 A 
ATOM     24  N   UNL     1      45.796   1.659   8.477  0.00  0.00    +0.000 NA
BRANCH  19  26
ATOM     25  N   UNL     1      48.541   2.637   6.306  0.00  0.00    +0.000 N 
ATOM     26  C   UNL     1      47.636   1.794   6.894  0.00  0.00    +0.000 C 
ATOM     27  O   UNL     1      47.714   0.576   6.772  0.00  0.00    +0.000 OA
ATOM     28  H   UNL     1      49.286   2.257   5.742  0.00  0.00    +0.000 HD
ATOM     29  H   UNL     1      48.437   3.638   6.425  0.00  0.00    +0.000 HD
ENDBRANCH  19  26
ENDBRANCH  17  22
ENDBRANCH  16  17
ENDBRANCH   1  16
TORSDOF 6
ENDMDL
MODEL 5
REMARK VINA RESULT:    -7.582      2.369      7.498
REMARK INTER + INTRA:         -11.031
REMARK INTER:                 -10.439
REMARK INTRA:                  -0.592
REMARK UNBOUND:                -0.790
REMARK  Name = 
REMARK  6 active torsions:
REMARK  status: ('A' for Active; 'I' for Inactive)
REMARK    1  A    between atoms: C_2  and  C_4
REMARK    2  A    between atoms: C_7  and  N_8
REMARK    3  A    between atoms: N_8  and  C_9
REMARK    4  A    between atoms: C_9  and  C_10
REMARK    5  A    between atoms: C_10  and  C_13
REMARK    6  A    between atoms: N_18  and  C_19
REMARK                            x       y       z     vdW  Elec       q    Type
REMARK                         _______ _______ _______ _____ _____    ______ ____
ROOT
ATOM      1  C   UNL     1      45.282   6.296  11.497  0.00  0.00    +0.000 C 
ATOM      2  F   UNL     1      44.521   6.274  12.636  0.00  0.00    +0.000 F 
ATOM      3  F   UNL     1      44.913   7.442  10.847  0.00  0.00    +0.000 F 
ENDROOT
BRANCH   1   4
ATOM      4  C   UNL     1      45.048   5.076  10.635  0.00  0.00    +0.000 A 
ATOM      5  C   UNL     1      44.243   4.018  11.053  0.00  0.00    +0.000 A 
ATOM      6  C   UNL     1      44.112   2.923  10.214  0.00  0.00    +0.000 A 
ATOM      7  N   UNL     1      44.734   2.804   9.016  0.00  0.00    +0.000 NA
ATOM      8  C   UNL     1      45.486   3.838   8.598  0.00  0.00    +0.000 A 
ATOM      9  N   UNL     1      46.166   3.786   7.366  0.00  0.00    +0.000 N 
ATOM     10  C   UNL     1      45.657   4.981   9.377  0.00  0.00    +0.000 A 
ATOM     11  H   UNL     1      45.875   4.577   6.795  0.00  0.00    +0.000 HD
BRANCH   9  12
ATOM     12  C   UNL     1      46.376   2.578   6.613  0.00  0.00    +0.000 C 
ATOM     13  C   UNL     1      47.460   1.688   7.239  0.00  0.00    +0.000 C 
ATOM     14  O   UNL     1      48.239   1.697   6.020  0.00  0.00    +0.000 OA
ATOM     15  C   UNL     1      47.332   2.659   5.420  0.00  0.00    +0.000 C 
ENDBRANCH   9  12
ENDBRANCH   1   4
BRANCH   1  16
ATOM     16  C   UNL     1      46.774   6.431  11.927  0.00  0.00    +0.000 C 
BRANCH  16  17
ATOM     17  N   UNL     1      46.914   6.817  13.348  0.00  0.00    +0.000 N 
ATOM     18  H   UNL     1      46.159   7.427  13.662  0.00  0.00    +0.000 HD
BRANCH  17  22
ATOM     19  C   UNL     1      47.882   4.014  16.266  0.00  0.00    +0.000 A 
ATOM     20  C   UNL     1      48.463   5.270  16.363  0.00  0.00    +0.000 A 
ATOM     21  C   UNL     1      48.176   6.213  15.373  0.00  0.00    +0.000 A 
ATOM     22  C   UNL     1      47.330   5.896  14.309  0.00  0.00    +0.000 A 
ATOM     23  C   UNL     1      46.778   4.608  14.338  0.00  0.00    +0.000 A 
ATOM     24  N   UNL     1      47.041   3.652  15.265  0.00  0.00    +0.000 NA
BRANCH  19  26
ATOM     25  N   UNL     1      47.076   2.570  18.040  0.00  0.00    +0.000 N 
ATOM     26  C   UNL     1      48.163   2.983  17.317  0.00  0.00    +0.000 C 
ATOM     27  O   UNL     1      49.284   2.531  17.519  0.00  0.00    +0.000 OA
ATOM     28  H   UNL     1      47.195   1.887  18.775  0.00  0.00    +0.000 HD
ATOM     29  H   UNL     1      46.167   2.973  17.847  0.00  0.00    +0.000 HD
ENDBRANCH  19  26
ENDBRANCH  17  22
ENDBRANCH  16  17
ENDBRANCH   1  16
TORSDOF 6
ENDMDL
MODEL 6
REMARK VINA RESULT:    -7.438      2.109      2.326
REMARK INTER + INTRA:         -10.837
REMARK INTER:                 -10.186
REMARK INTRA:                  -0.651
REMARK UNBOUND:                -0.790
REMARK  Name = 
REMARK  6 active torsions:
REMARK  status: ('A' for Active; 'I' for Inactive)
REMARK    1  A    between atoms: C_2  and  C_4
REMARK    2  A    between atoms: C_7  and  N_8
REMARK    3  A    between atoms: N_8  and  C_9
REMARK    4  A    between atoms: C_9  and  C_10
REMARK    5  A    between atoms: C_10  and  C_13
REMARK    6  A    between atoms: N_18  and  C_19
REMARK                            x       y       z     vdW  Elec       q    Type
REMARK                         _______ _______ _______ _____ _____    ______ ____
ROOT
ATOM      1  C   UNL     1      43.968   5.052  12.292  0.00  0.00    +0.000 C 
ATOM      2  F   UNL     1      43.473   5.734  11.213  0.00  0.00    +0.000 F 
ATOM      3  F   UNL     1      43.005   5.170  13.257  0.00  0.00    +0.000 F 
ENDROOT
BRANCH   1   4
ATOM      4  C   UNL     1      45.290   5.616  12.762  0.00  0.00    +0.000 A 
ATOM      5  C   UNL     1      46.151   4.894  13.586  0.00  0.00    +0.000 A 
ATOM      6  C   UNL     1      47.326   5.501  13.998  0.00  0.00    +0.000 A 
ATOM      7  N   UNL     1      47.687   6.765  13.666  0.00  0.00    +0.000 NA
ATOM      8  C   UNL     1      46.871   7.450  12.844  0.00  0.00    +0.000 A 
ATOM      9  N   UNL     1      47.177   8.769  12.458  0.00  0.00    +0.000 N 
ATOM     10  C   UNL     1      45.678   6.905  12.375  0.00  0.00    +0.000 A 
ATOM     11  H   UNL     1      47.213   8.815  11.441  0.00  0.00    +0.000 HD
BRANCH   9  12
ATOM     12  C   UNL     1      48.166   9.589  13.106  0.00  0.00    +0.000 C 
ATOM     13  C   UNL     1      48.233  11.000  12.500  0.00  0.00    +0.000 C 
ATOM     14  O   UNL     1      49.639  10.852  12.192  0.00  0.00    +0.000 OA
ATOM     15  C   UNL     1      49.609   9.462  12.609  0.00  0.00    +0.000 C 
ENDBRANCH   9  12
ENDBRANCH   1   4
BRANCH   1  16
ATOM     16  C   UNL     1      44.083   3.549  11.892  0.00  0.00    +0.000 C 
BRANCH  16  17
ATOM     17  N   UNL     1      43.701   3.316  10.481  0.00  0.00    +0.000 N 
ATOM     18  H   UNL     1      42.920   3.903  10.188  0.00  0.00    +0.000 HD
BRANCH  17  22
ATOM     19  C   UNL     1      46.408   2.886   7.352  0.00  0.00    +0.000 A 
ATOM     20  C   UNL     1      46.066   1.747   8.067  0.00  0.00    +0.000 A 
ATOM     21  C   UNL     1      45.184   1.878   9.143  0.00  0.00    +0.000 A 
ATOM     22  C   UNL     1      44.666   3.126   9.494  0.00  0.00    +0.000 A 
ATOM     23  C   UNL     1      45.059   4.196   8.676  0.00  0.00    +0.000 A 
ATOM     24  N   UNL     1      45.926   4.122   7.634  0.00  0.00    +0.000 NA
BRANCH  19  26
ATOM     25  N   UNL     1      48.651   2.521   6.505  0.00  0.00    +0.000 N 
ATOM     26  C   UNL     1      47.345   2.778   6.187  0.00  0.00    +0.000 C 
ATOM     27  O   UNL     1      46.975   2.906   5.025  0.00  0.00    +0.000 OA
ATOM     28  H   UNL     1      49.340   2.449   5.770  0.00  0.00    +0.000 HD
ATOM     29  H   UNL     1      48.918   2.428   7.478  0.00  0.00    +0.000 HD
ENDBRANCH  19  26
ENDBRANCH  17  22
ENDBRANCH  16  17
ENDBRANCH   1  16
TORSDOF 6
ENDMDL
MODEL 7
REMARK VINA RESULT:    -6.382      3.956      7.697
REMARK INTER + INTRA:          -9.411
REMARK INTER:                  -8.398
REMARK INTRA:                  -1.013
REMARK UNBOUND:                -0.790
REMARK  Name = 
REMARK  6 active torsions:
REMARK  status: ('A' for Active; 'I' for Inactive)
REMARK    1  A    between atoms: C_2  and  C_4
REMARK    2  A    between atoms: C_7  and  N_8
REMARK    3  A    between atoms: N_8  and  C_9
REMARK    4  A    between atoms: C_9  and  C_10
REMARK    5  A    between atoms: C_10  and  C_13
REMARK    6  A    between atoms: N_18  and  C_19
REMARK                            x       y       z     vdW  Elec       q    Type
REMARK                         _______ _______ _______ _____ _____    ______ ____
ROOT
ATOM      1  C   UNL     1      48.661   8.424  12.259  0.00  0.00    +0.000 C 
ATOM      2  F   UNL     1      48.790   9.601  12.947  0.00  0.00    +0.000 F 
ATOM      3  F   UNL     1      49.326   8.628  11.081  0.00  0.00    +0.000 F 
ENDROOT
BRANCH   1   4
ATOM      4  C   UNL     1      47.212   8.064  12.017  0.00  0.00    +0.000 A 
ATOM      5  C   UNL     1      46.188   9.001  12.137  0.00  0.00    +0.000 A 
ATOM      6  C   UNL     1      44.885   8.577  11.932  0.00  0.00    +0.000 A 
ATOM      7  N   UNL     1      44.538   7.299  11.638  0.00  0.00    +0.000 NA
ATOM      8  C   UNL     1      45.529   6.403  11.489  0.00  0.00    +0.000 A 
ATOM      9  N   UNL     1      45.247   5.056  11.188  0.00  0.00    +0.000 N 
ATOM     10  C   UNL     1      46.866   6.752  11.666  0.00  0.00    +0.000 A 
ATOM     11  H   UNL     1      45.733   4.801  10.331  0.00  0.00    +0.000 HD
BRANCH   9  12
ATOM     12  C   UNL     1      43.942   4.461  11.309  0.00  0.00    +0.000 C 
ATOM     13  C   UNL     1      43.661   3.972  12.738  0.00  0.00    +0.000 C 
ATOM     14  O   UNL     1      43.414   2.623  12.279  0.00  0.00    +0.000 OA
ATOM     15  C   UNL     1      43.815   2.983  10.931  0.00  0.00    +0.000 C 
ENDBRANCH   9  12
ENDBRANCH   1   4
BRANCH   1  16
ATOM     16  C   UNL     1      49.410   7.319  13.064  0.00  0.00    +0.000 C 
BRANCH  16  17
ATOM     17  N   UNL     1      49.266   7.498  14.526  0.00  0.00    +0.000 N 
ATOM     18  H   UNL     1      48.943   8.434  14.773  0.00  0.00    +0.000 HD
BRANCH  17  22
ATOM     19  C   UNL     1      47.948   4.396  16.964  0.00  0.00    +0.000 A 
ATOM     20  C   UNL     1      47.360   4.525  15.715  0.00  0.00    +0.000 A 
ATOM     21  C   UNL     1      47.766   5.582  14.895  0.00  0.00    +0.000 A 
ATOM     22  C   UNL     1      48.735   6.489  15.328  0.00  0.00    +0.000 A 
ATOM     23  C   UNL     1      49.279   6.235  16.595  0.00  0.00    +0.000 A 
ATOM     24  N   UNL     1      48.905   5.236  17.434  0.00  0.00    +0.000 NA
BRANCH  19  26
ATOM     25  N   UNL     1      48.363   3.045  18.936  0.00  0.00    +0.000 N 
ATOM     26  C   UNL     1      47.541   3.268  17.864  0.00  0.00    +0.000 C 
ATOM     27  O   UNL     1      46.540   2.588  17.663  0.00  0.00    +0.000 OA
ATOM     28  H   UNL     1      48.157   2.292  19.575  0.00  0.00    +0.000 HD
ATOM     29  H   UNL     1      49.184   3.625  19.062  0.00  0.00    +0.000 HD
ENDBRANCH  19  26
ENDBRANCH  17  22
ENDBRANCH  16  17
ENDBRANCH   1  16
TORSDOF 6
ENDMDL
MODEL 8
REMARK VINA RESULT:    -6.272      5.483      7.121
REMARK INTER + INTRA:          -9.262
REMARK INTER:                  -8.840
REMARK INTRA:                  -0.422
REMARK UNBOUND:                -0.790
REMARK  Name = 
REMARK  6 active torsions:
REMARK  status: ('A' for Active; 'I' for Inactive)
REMARK    1  A    between atoms: C_2  and  C_4
REMARK    2  A    between atoms: C_7  and  N_8
REMARK    3  A    between atoms: N_8  and  C_9
REMARK    4  A    between atoms: C_9  and  C_10
REMARK    5  A    between atoms: C_10  and  C_13
REMARK    6  A    between atoms: N_18  and  C_19
REMARK                            x       y       z     vdW  Elec       q    Type
REMARK                         _______ _______ _______ _____ _____    ______ ____
ROOT
ATOM      1  C   UNL     1      47.978   3.174  16.701  0.00  0.00    +0.000 C 
ATOM      2  F   UNL     1      47.100   2.483  17.494  0.00  0.00    +0.000 F 
ATOM      3  F   UNL     1      47.889   2.579  15.473  0.00  0.00    +0.000 F 
ENDROOT
BRANCH   1   4
ATOM      4  C   UNL     1      49.390   3.119  17.239  0.00  0.00    +0.000 A 
ATOM      5  C   UNL     1      49.976   4.201  17.893  0.00  0.00    +0.000 A 
ATOM      6  C   UNL     1      51.287   4.076  18.322  0.00  0.00    +0.000 A 
ATOM      7  N   UNL     1      52.049   2.971  18.130  0.00  0.00    +0.000 NA
ATOM      8  C   UNL     1      51.474   1.915  17.527  0.00  0.00    +0.000 A 
ATOM      9  N   UNL     1      52.202   0.733  17.289  0.00  0.00    +0.000 N 
ATOM     10  C   UNL     1      50.155   1.955  17.078  0.00  0.00    +0.000 A 
ATOM     11  H   UNL     1      51.718  -0.047  17.729  0.00  0.00    +0.000 HD
BRANCH   9  12
ATOM     12  C   UNL     1      53.636   0.641  17.372  0.00  0.00    +0.000 C 
ATOM     13  C   UNL     1      54.217  -0.297  16.304  0.00  0.00    +0.000 C 
ATOM     14  O   UNL     1      54.852  -1.124  17.307  0.00  0.00    +0.000 OA
ATOM     15  C   UNL     1      54.212  -0.369  18.369  0.00  0.00    +0.000 C 
ENDBRANCH   9  12
ENDBRANCH   1   4
BRANCH   1  16
ATOM     16  C   UNL     1      47.457   4.638  16.579  0.00  0.00    +0.000 C 
BRANCH  16  17
ATOM     17  N   UNL     1      47.965   5.313  15.364  0.00  0.00    +0.000 N 
ATOM     18  H   UNL     1      48.940   5.082  15.170  0.00  0.00    +0.000 HD
BRANCH  17  22
ATOM     19  C   UNL     1      45.615   5.392  11.933  0.00  0.00    +0.000 A 
ATOM     20  C   UNL     1      46.745   6.197  11.957  0.00  0.00    +0.000 A 
ATOM     21  C   UNL     1      47.527   6.209  13.114  0.00  0.00    +0.000 A 
ATOM     22  C   UNL     1      47.177   5.434  14.222  0.00  0.00    +0.000 A 
ATOM     23  C   UNL     1      46.034   4.637  14.065  0.00  0.00    +0.000 A 
ATOM     24  N   UNL     1      45.231   4.606  12.970  0.00  0.00    +0.000 NA
BRANCH  19  26
ATOM     25  N   UNL     1      45.422   5.533   9.519  0.00  0.00    +0.000 N 
ATOM     26  C   UNL     1      44.759   5.349  10.703  0.00  0.00    +0.000 C 
ATOM     27  O   UNL     1      43.548   5.160  10.745  0.00  0.00    +0.000 OA
ATOM     28  H   UNL     1      44.905   5.531   8.652  0.00  0.00    +0.000 HD
ATOM     29  H   UNL     1      46.422   5.694   9.528  0.00  0.00    +0.000 HD
ENDBRANCH  19  26
ENDBRANCH  17  22
ENDBRANCH  16  17
ENDBRANCH   1  16
TORSDOF 6
ENDMDL
MODEL 9
REMARK VINA RESULT:    -6.175      1.736      7.801
REMARK INTER + INTRA:          -9.131
REMARK INTER:                  -8.643
REMARK INTRA:                  -0.487
REMARK UNBOUND:                -0.790
REMARK  Name = 
REMARK  6 active torsions:
REMARK  status: ('A' for Active; 'I' for Inactive)
REMARK    1  A    between atoms: C_2  and  C_4
REMARK    2  A    between atoms: C_7  and  N_8
REMARK    3  A    between atoms: N_8  and  C_9
REMARK    4  A    between atoms: C_9  and  C_10
REMARK    5  A    between atoms: C_10  and  C_13
REMARK    6  A    between atoms: N_18  and  C_19
REMARK                            x       y       z     vdW  Elec       q    Type
REMARK                         _______ _______ _______ _____ _____    ______ ____
ROOT
ATOM      1  C   UNL     1      44.268   5.811  11.337  0.00  0.00    +0.000 C 
ATOM      2  F   UNL     1      44.180   5.543  12.678  0.00  0.00    +0.000 F 
ATOM      3  F   UNL     1      43.127   6.503  11.039  0.00  0.00    +0.000 F 
ENDROOT
BRANCH   1   4
ATOM      4  C   UNL     1      44.376   4.547  10.513  0.00  0.00    +0.000 A 
ATOM      5  C   UNL     1      43.893   3.323  10.970  0.00  0.00    +0.000 A 
ATOM      6  C   UNL     1      44.065   2.208  10.164  0.00  0.00    +0.000 A 
ATOM      7  N   UNL     1      44.692   2.229   8.962  0.00  0.00    +0.000 NA
ATOM      8  C   UNL     1      45.128   3.416   8.506  0.00  0.00    +0.000 A 
ATOM      9  N   UNL     1      45.792   3.516   7.268  0.00  0.00    +0.000 N 
ATOM     10  C   UNL     1      44.982   4.585   9.250  0.00  0.00    +0.000 A 
ATOM     11  H   UNL     1      45.293   4.178   6.678  0.00  0.00    +0.000 HD
BRANCH   9  12
ATOM     12  C   UNL     1      46.323   2.390   6.546  0.00  0.00    +0.000 C 
ATOM     13  C   UNL     1      47.521   1.754   7.268  0.00  0.00    +0.000 C 
ATOM     14  O   UNL     1      48.376   1.945   6.117  0.00  0.00    +0.000 OA
ATOM     15  C   UNL     1      47.332   2.689   5.435  0.00  0.00    +0.000 C 
ENDBRANCH   9  12
ENDBRANCH   1   4
BRANCH   1  16
ATOM     16  C   UNL     1      45.489   6.755  11.121  0.00  0.00    +0.000 C 
BRANCH  16  17
ATOM     17  N   UNL     1      46.739   6.188  11.673  0.00  0.00    +0.000 N 
ATOM     18  H   UNL     1      47.377   5.870  10.943  0.00  0.00    +0.000 HD
BRANCH  17  22
ATOM     19  C   UNL     1      48.510   7.753  15.096  0.00  0.00    +0.000 A 
ATOM     20  C   UNL     1      47.892   8.641  14.229  0.00  0.00    +0.000 A 
ATOM     21  C   UNL     1      47.322   8.138  13.057  0.00  0.00    +0.000 A 
ATOM     22  C   UNL     1      47.378   6.774  12.764  0.00  0.00    +0.000 A 
ATOM     23  C   UNL     1      47.999   5.973  13.732  0.00  0.00    +0.000 A 
ATOM     24  N   UNL     1      48.584   6.416  14.875  0.00  0.00    +0.000 NA
BRANCH  19  26
ATOM     25  N   UNL     1      50.472   8.493  16.315  0.00  0.00    +0.000 N 
ATOM     26  C   UNL     1      49.124   8.260  16.366  0.00  0.00    +0.000 C 
ATOM     27  O   UNL     1      48.471   8.458  17.385  0.00  0.00    +0.000 OA
ATOM     28  H   UNL     1      50.954   8.822  17.139  0.00  0.00    +0.000 HD
ATOM     29  H   UNL     1      50.976   8.310  15.456  0.00  0.00    +0.000 HD
ENDBRANCH  19  26
ENDBRANCH  17  22
ENDBRANCH  16  17
ENDBRANCH   1  16
TORSDOF 6
ENDMDL
