MODEL 1
REMARK VINA RESULT:    -7.696      0.000      0.000
REMARK INTER + INTRA:         -10.371
REMARK INTER:                  -9.721
REMARK INTRA:                  -0.651
REMARK UNBOUND:                -0.651
REMARK  Name = 
REMARK  5 active torsions:
REMARK  status: ('A' for Active; 'I' for Inactive)
REMARK    1  A    between atoms: N_1  and  C_2
REMARK    2  A    between atoms: C_2  and  C_3
REMARK    3  A    between atoms: C_3  and  C_4
REMARK    4  A    between atoms: C_7  and  C_8
REMARK    5  A    between atoms: C_8  and  N_9
REMARK                            x       y       z     vdW  Elec       q    Type
REMARK                         _______ _______ _______ _____ _____    ______ ____
ROOT
ATOM      1  C   UNL     1      45.993   2.347   8.080  0.00  0.00    +0.000 A 
ATOM      2  C   UNL     1      45.153   1.760   9.028  0.00  0.00    +0.000 A 
ATOM      3  C   UNL     1      44.341   2.544   9.847  0.00  0.00    +0.000 A 
ATOM      4  C   UNL     1      44.377   3.941   9.776  0.00  0.00    +0.000 A 
ATOM      5  C   UNL     1      45.236   4.537   8.843  0.00  0.00    +0.000 A 
ATOM      6  C   UNL     1      46.034   3.745   8.004  0.00  0.00    +0.000 A 
ENDROOT
BRANCH   1   7
ATOM      7  C   UNL     1      46.916   1.507   7.222  0.00  0.00    +0.000 C 
BRANCH   7   8
ATOM      8  C   UNL     1      48.166   2.248   6.724  0.00  0.00    +0.000 C 
BRANCH   8   9
ATOM      9  N   UNL     1      48.438   1.927   5.322  0.00  0.00    +0.000 NA
ATOM     10  H   UNL     1      49.075   1.131   5.273  0.00  0.00    +0.000 HD
ATOM     11  H   UNL     1      48.925   2.707   4.879  0.00  0.00    +0.000 HD
ENDBRANCH   8   9
ENDBRANCH   7   8
ENDBRANCH   1   7
BRANCH   4  12
ATOM     12  C   UNL     1      43.496   4.794  10.655  0.00  0.00    +0.000 C 
BRANCH  12  13
ATOM     13  N   UNL     1      44.241   5.704  11.521  0.00  0.00    +0.000 N 
ATOM     14  C   UNL     1      44.290   7.067  11.334  0.00  0.00    +0.000 A 
ATOM     15  C   UNL     1      45.140   7.595  12.277  0.00  0.00    +0.000 A 
ATOM     16  C   UNL     1      45.879   6.508  12.805  0.00  0.00    +0.000 A 
ATOM     17  C   UNL     1      47.078   6.418  13.534  0.00  0.00    +0.000 A 
ATOM     18  C   UNL     1      47.554   5.162  13.915  0.00  0.00    +0.000 A 
ATOM     19  C   UNL     1      46.794   4.020  13.676  0.00  0.00    +0.000 A 
ATOM     20  C   UNL     1      45.599   4.084  12.950  0.00  0.00    +0.000 A 
ATOM     21  C   UNL     1      45.208   5.335  12.443  0.00  0.00    +0.000 A 
ENDBRANCH  12  13
ENDBRANCH   4  12
TORSDOF 5
ENDMDL
MODEL 2
REMARK VINA RESULT:    -6.932      1.283      2.253
REMARK INTER + INTRA:          -9.407
REMARK INTER:                  -8.919
REMARK INTRA:                  -0.488
REMARK UNBOUND:                -0.651
REMARK  Name = 
REMARK  5 active torsions:
REMARK  status: ('A' for Active; 'I' for Inactive)
REMARK    1  A    between atoms: N_1  and  C_2
REMARK    2  A    between atoms: C_2  and  C_3
REMARK    3  A    between atoms: C_3  and  C_4
REMARK    4  A    between atoms: C_7  and  C_8
REMARK    5  A    between atoms: C_8  and  N_9
REMARK                            x       y       z     vdW  Elec       q    Type
REMARK                         _______ _______ _______ _____ _____    ______ ____
ROOT
ATOM      1  C   UNL     1      45.892   3.161   7.726  0.00  0.00    +0.000 A 
ATOM      2  C   UNL     1      45.362   2.402   8.771  0.00  0.00    +0.000 A 
ATOM      3  C   UNL     1      44.991   3.001   9.974  0.00  0.00    +0.000 A 
ATOM      4  C   UNL     1      45.183   4.371  10.188  0.00  0.00    +0.000 A 
ATOM      5  C   UNL     1      45.738   5.135   9.152  0.00  0.00    +0.000 A 
ATOM      6  C   UNL     1      46.088   4.532   7.935  0.00  0.00    +0.000 A 
ENDROOT
BRANCH   1   7
ATOM      7  C   UNL     1      46.345   2.512   6.435  0.00  0.00    +0.000 C 
BRANCH   7   8
ATOM      8  C   UNL     1      47.513   1.527   6.597  0.00  0.00    +0.000 C 
BRANCH   8   9
ATOM      9  N   UNL     1      48.597   1.846   5.666  0.00  0.00    +0.000 NA
ATOM     10  H   UNL     1      49.380   2.250   6.181  0.00  0.00    +0.000 HD
ATOM     11  H   UNL     1      48.288   2.564   5.012  0.00  0.00    +0.000 HD
ENDBRANCH   8   9
ENDBRANCH   7   8
ENDBRANCH   1   7
BRANCH   4  12
ATOM     12  C   UNL     1      44.779   5.026  11.486  0.00  0.00    +0.000 C 
BRANCH  12  13
ATOM     13  N   UNL     1      45.847   5.057  12.482  0.00  0.00    +0.000 N 
ATOM     14  C   UNL     1      45.820   4.335  13.654  0.00  0.00    +0.000 A 
ATOM     15  C   UNL     1      46.938   4.663  14.382  0.00  0.00    +0.000 A 
ATOM     16  C   UNL     1      47.457   5.849  13.807  0.00  0.00    +0.000 A 
ATOM     17  C   UNL     1      48.356   6.831  14.261  0.00  0.00    +0.000 A 
ATOM     18  C   UNL     1      48.669   7.908  13.429  0.00  0.00    +0.000 A 
ATOM     19  C   UNL     1      48.189   7.952  12.124  0.00  0.00    +0.000 A 
ATOM     20  C   UNL     1      47.291   6.989  11.650  0.00  0.00    +0.000 A 
ATOM     21  C   UNL     1      46.866   5.993  12.546  0.00  0.00    +0.000 A 
ENDBRANCH  12  13
ENDBRANCH   4  12
TORSDOF 5
ENDMDL
MODEL 3
REMARK VINA RESULT:    -6.528      1.935      6.162
REMARK INTER + INTRA:          -8.896
REMARK INTER:                  -8.372
REMARK INTRA:                  -0.523
REMARK UNBOUND:                -0.651
REMARK  Name = 
REMARK  5 active torsions:
REMARK  status: ('A' for Active; 'I' for Inactive)
REMARK    1  A    between atoms: N_1  and  C_2
REMARK    2  A    between atoms: C_2  and  C_3
REMARK    3  A    between atoms: C_3  and  C_4
REMARK    4  A    between atoms: C_7  and  C_8
REMARK    5  A    between atoms: C_8  and  N_9
REMARK                            x       y       z     vdW  Elec       q    Type
REMARK                         _______ _______ _______ _____ _____    ______ ____
ROOT
ATOM      1  C   UNL     1      47.029   5.730  13.385  0.00  0.00    +0.000 A 
ATOM      2  C   UNL     1      46.028   4.763  13.496  0.00  0.00    +0.000 A 
ATOM      3  C   UNL     1      45.177   4.490  12.426  0.00  0.00    +0.000 A 
ATOM      4  C   UNL     1      45.268   5.206  11.227  0.00  0.00    +0.000 A 
ATOM      5  C   UNL     1      46.255   6.195  11.118  0.00  0.00    +0.000 A 
ATOM      6  C   UNL     1      47.125   6.452  12.188  0.00  0.00    +0.000 A 
ENDROOT
BRANCH   1   7
ATOM      7  C   UNL     1      47.925   6.071  14.558  0.00  0.00    +0.000 C 
BRANCH   7   8
ATOM      8  C   UNL     1      48.690   7.394  14.407  0.00  0.00    +0.000 C 
BRANCH   8   9
ATOM      9  N   UNL     1      50.071   7.152  13.986  0.00  0.00    +0.000 NA
ATOM     10  H   UNL     1      50.499   8.034  13.702  0.00  0.00    +0.000 HD
ATOM     11  H   UNL     1      50.079   6.555  13.160  0.00  0.00    +0.000 HD
ENDBRANCH   8   9
ENDBRANCH   7   8
ENDBRANCH   1   7
BRANCH   4  12
ATOM     12  C   UNL     1      44.354   4.910  10.065  0.00  0.00    +0.000 C 
BRANCH  12  13
ATOM     13  N   UNL     1      44.620   3.624   9.425  0.00  0.00    +0.000 N 
ATOM     14  C   UNL     1      44.183   2.418   9.923  0.00  0.00    +0.000 A 
ATOM     15  C   UNL     1      44.679   1.421   9.118  0.00  0.00    +0.000 A 
ATOM     16  C   UNL     1      45.708   2.007   8.341  0.00  0.00    +0.000 A 
ATOM     17  C   UNL     1      46.776   1.477   7.594  0.00  0.00    +0.000 A 
ATOM     18  C   UNL     1      47.638   2.347   6.924  0.00  0.00    +0.000 A 
ATOM     19  C   UNL     1      47.380   3.715   6.900  0.00  0.00    +0.000 A 
ATOM     20  C   UNL     1      46.326   4.265   7.638  0.00  0.00    +0.000 A 
ATOM     21  C   UNL     1      45.556   3.395   8.429  0.00  0.00    +0.000 A 
ENDBRANCH  12  13
ENDBRANCH   4  12
TORSDOF 5
ENDMDL
MODEL 4
REMARK VINA RESULT:    -6.456      1.915      6.450
REMARK INTER + INTRA:          -8.805
REMARK INTER:                  -8.596
REMARK INTRA:                  -0.209
REMARK UNBOUND:                -0.651
REMARK  Name = 
REMARK  5 active torsions:
REMARK  status: ('A' for Active; 'I' for Inactive)
REMARK    1  A    between atoms: N_1  and  C_2
REMARK    2  A    between atoms: C_2  and  C_3
REMARK    3  A    between atoms: C_3  and  C_4
REMARK    4  A    between atoms: C_7  and  C_8
REMARK    5  A    between atoms: C_8  and  N_9
REMARK                            x       y       z     vdW  Elec       q    Type
REMARK                         _______ _______ _______ _____ _____    ______ ____
ROOT
ATOM      1  C   UNL     1      47.116   5.404  13.936  0.00  0.00    +0.000 A 
ATOM      2  C   UNL     1      46.055   4.509  13.788  0.00  0.00    +0.000 A 
ATOM      3  C   UNL     1      45.334   4.446  12.596  0.00  0.00    +0.000 A 
ATOM      4  C   UNL     1      45.621   5.309  11.531  0.00  0.00    +0.000 A 
ATOM      5  C   UNL     1      46.669   6.226  11.683  0.00  0.00    +0.000 A 
ATOM      6  C   UNL     1      47.407   6.270  12.875  0.00  0.00    +0.000 A 
ENDROOT
BRANCH   1   7
ATOM      7  C   UNL     1      47.871   5.516  15.245  0.00  0.00    +0.000 C 
BRANCH   7   8
ATOM      8  C   UNL     1      47.639   4.345  16.211  0.00  0.00    +0.000 C 
BRANCH   8   9
ATOM      9  N   UNL     1      46.872   4.778  17.380  0.00  0.00    +0.000 NA
ATOM     10  H   UNL     1      47.025   4.124  18.149  0.00  0.00    +0.000 HD
ATOM     11  H   UNL     1      45.874   4.740  17.170  0.00  0.00    +0.000 HD
ENDBRANCH   8   9
ENDBRANCH   7   8
ENDBRANCH   1   7
BRANCH   4  12
ATOM     12  C   UNL     1      44.848   5.241  10.237  0.00  0.00    +0.000 C 
BRANCH  12  13
ATOM     13  N   UNL     1      44.824   3.908   9.640  0.00  0.00    +0.000 N 
ATOM     14  C   UNL     1      44.204   2.824  10.218  0.00  0.00    +0.000 A 
ATOM     15  C   UNL     1      44.447   1.725   9.429  0.00  0.00    +0.000 A 
ATOM     16  C   UNL     1      45.512   2.079   8.565  0.00  0.00    +0.000 A 
ATOM     17  C   UNL     1      46.408   1.333   7.777  0.00  0.00    +0.000 A 
ATOM     18  C   UNL     1      47.370   2.001   7.017  0.00  0.00    +0.000 A 
ATOM     19  C   UNL     1      47.371   3.391   6.949  0.00  0.00    +0.000 A 
ATOM     20  C   UNL     1      46.492   4.156   7.725  0.00  0.00    +0.000 A 
ATOM     21  C   UNL     1      45.629   3.474   8.599  0.00  0.00    +0.000 A 
ENDBRANCH  12  13
ENDBRANCH   4  12
TORSDOF 5
ENDMDL
MODEL 5
REMARK VINA RESULT:    -6.350      1.912      6.327
REMARK INTER + INTRA:          -8.672
REMARK INTER:                  -8.141
REMARK INTRA:                  -0.531
REMARK UNBOUND:                -0.651
REMARK  Name = 
REMARK  5 active torsions:
REMARK  status: ('A' for Active; 'I' for Inactive)
REMARK    1  A    between atoms: N_1  and  C_2
REMARK    2  A    between atoms: C_2  and  C_3
REMARK    3  A    between atoms: C_3  and  C_4
REMARK    4  A    between atoms: C_7  and  C_8
REMARK    5  A    between atoms: C_8  and  N_9
REMARK                            x       y       z     vdW  Elec       q    Type
REMARK                         _______ _______ _______ _____ _____    ______ ____
ROOT
ATOM      1  C   UNL     1      47.580   6.531  13.020  0.00  0.00    +0.000 A 
ATOM      2  C   UNL     1      47.313   7.137  11.791  0.00  0.00    +0.000 A 
ATOM      3  C   UNL     1      46.212   6.750  11.028  0.00  0.00    +0.000 A 
ATOM      4  C   UNL     1      45.371   5.712  11.446  0.00  0.00    +0.000 A 
ATOM      5  C   UNL     1      45.649   5.083  12.667  0.00  0.00    +0.000 A 
ATOM      6  C   UNL     1      46.744   5.491  13.444  0.00  0.00    +0.000 A 
ENDROOT
BRANCH   1   7
ATOM      7  C   UNL     1      48.802   6.910  13.831  0.00  0.00    +0.000 C 
BRANCH   7   8
ATOM      8  C   UNL     1      48.512   7.849  15.012  0.00  0.00    +0.000 C 
BRANCH   8   9
ATOM      9  N   UNL     1      47.375   8.722  14.716  0.00  0.00    +0.000 NA
ATOM     10  H   UNL     1      46.847   8.893  15.572  0.00  0.00    +0.000 HD
ATOM     11  H   UNL     1      46.735   8.249  14.079  0.00  0.00    +0.000 HD
ENDBRANCH   8   9
ENDBRANCH   7   8
ENDBRANCH   1   7
BRANCH   4  12
ATOM     12  C   UNL     1      44.176   5.292  10.627  0.00  0.00    +0.000 C 
BRANCH  12  13
ATOM     13  N   UNL     1      44.327   3.980  10.002  0.00  0.00    +0.000 N 
ATOM     14  C   UNL     1      43.887   2.807  10.571  0.00  0.00    +0.000 A 
ATOM     15  C   UNL     1      44.263   1.769   9.753  0.00  0.00    +0.000 A 
ATOM     16  C   UNL     1      45.241   2.289   8.870  0.00  0.00    +0.000 A 
ATOM     17  C   UNL     1      46.213   1.694   8.045  0.00  0.00    +0.000 A 
ATOM     18  C   UNL     1      47.048   2.508   7.276  0.00  0.00    +0.000 A 
ATOM     19  C   UNL     1      46.847   3.885   7.237  0.00  0.00    +0.000 A 
ATOM     20  C   UNL     1      45.889   4.500   8.051  0.00  0.00    +0.000 A 
ATOM     21  C   UNL     1      45.158   3.685   8.932  0.00  0.00    +0.000 A 
ENDBRANCH  12  13
ENDBRANCH   4  12
TORSDOF 5
ENDMDL
MODEL 6
REMARK VINA RESULT:    -6.309      1.389      2.028
REMARK INTER + INTRA:          -8.620
REMARK INTER:                  -8.205
REMARK INTRA:                  -0.415
REMARK UNBOUND:                -0.651
REMARK  Name = 
REMARK  5 active torsions:
REMARK  status: ('A' for Active; 'I' for Inactive)
REMARK    1  A    between atoms: N_1  and  C_2
REMARK    2  A    between atoms: C_2  and  C_3
REMARK    3  A    between atoms: C_3  and  C_4
REMARK    4  A    between atoms: C_7  and  C_8
REMARK    5  A    between atoms: C_8  and  N_9
REMARK                            x       y       z     vdW  Elec       q    Type
REMARK                         _______ _______ _______ _____ _____    ______ ____
ROOT
ATOM      1  C   UNL     1      45.653   2.987   8.298  0.00  0.00    +0.000 A 
ATOM      2  C   UNL     1      45.896   4.355   8.431  0.00  0.00    +0.000 A 
ATOM      3  C   UNL     1      45.417   5.062   9.533  0.00  0.00    +0.000 A 
ATOM      4  C   UNL     1      44.640   4.434  10.513  0.00  0.00    +0.000 A 
ATOM      5  C   UNL     1      44.371   3.066  10.372  0.00  0.00    +0.000 A 
ATOM      6  C   UNL     1      44.875   2.352   9.274  0.00  0.00    +0.000 A 
ENDROOT
BRANCH   1   7
ATOM      7  C   UNL     1      46.125   2.221   7.079  0.00  0.00    +0.000 C 
BRANCH   7   8
ATOM      8  C   UNL     1      47.350   1.328   7.328  0.00  0.00    +0.000 C 
BRANCH   8   9
ATOM      9  N   UNL     1      46.941  -0.044   7.638  0.00  0.00    +0.000 NA
ATOM     10  H   UNL     1      47.369  -0.335   8.517  0.00  0.00    +0.000 HD
ATOM     11  H   UNL     1      47.298  -0.679   6.925  0.00  0.00    +0.000 HD
ENDBRANCH   8   9
ENDBRANCH   7   8
ENDBRANCH   1   7
BRANCH   4  12
ATOM     12  C   UNL     1      44.123   5.193  11.710  0.00  0.00    +0.000 C 
BRANCH  12  13
ATOM     13  N   UNL     1      44.790   6.476  11.919  0.00  0.00    +0.000 N 
ATOM     14  C   UNL     1      44.316   7.672  11.429  0.00  0.00    +0.000 A 
ATOM     15  C   UNL     1      45.227   8.652  11.744  0.00  0.00    +0.000 A 
ATOM     16  C   UNL     1      46.420   7.985  12.115  0.00  0.00    +0.000 A 
ATOM     17  C   UNL     1      47.761   8.396  12.229  0.00  0.00    +0.000 A 
ATOM     18  C   UNL     1      48.727   7.470  12.629  0.00  0.00    +0.000 A 
ATOM     19  C   UNL     1      48.354   6.188  13.020  0.00  0.00    +0.000 A 
ATOM     20  C   UNL     1      47.027   5.755  12.913  0.00  0.00    +0.000 A 
ATOM     21  C   UNL     1      46.090   6.649  12.368  0.00  0.00    +0.000 A 
ENDBRANCH  12  13
ENDBRANCH   4  12
TORSDOF 5
ENDMDL
MODEL 7
REMARK VINA RESULT:    -5.801      1.810      3.416
REMARK INTER + INTRA:          -7.978
REMARK INTER:                  -7.487
REMARK INTRA:                  -0.491
REMARK UNBOUND:                -0.651
REMARK  Name = 
REMARK  5 active torsions:
REMARK  status: ('A' for Active; 'I' for Inactive)
REMARK    1  A    between atoms: N_1  and  C_2
REMARK    2  A    between atoms: C_2  and  C_3
REMARK    3  A    between atoms: C_3  and  C_4
REMARK    4  A    between atoms: C_7  and  C_8
REMARK    5  A    between atoms: C_8  and  N_9
REMARK                            x       y       z     vdW  Elec       q    Type
REMARK                         _______ _______ _______ _____ _____    ______ ____
ROOT
ATOM      1  C   UNL     1      45.525   3.178   8.725  0.00  0.00    +0.000 A 
ATOM      2  C   UNL     1      44.736   2.737   9.789  0.00  0.00    +0.000 A 
ATOM      3  C   UNL     1      44.261   3.634  10.746  0.00  0.00    +0.000 A 
ATOM      4  C   UNL     1      44.599   4.991  10.696  0.00  0.00    +0.000 A 
ATOM      5  C   UNL     1      45.412   5.435   9.643  0.00  0.00    +0.000 A 
ATOM      6  C   UNL     1      45.868   4.534   8.670  0.00  0.00    +0.000 A 
ENDROOT
BRANCH   1   7
ATOM      7  C   UNL     1      46.088   2.204   7.710  0.00  0.00    +0.000 C 
BRANCH   7   8
ATOM      8  C   UNL     1      47.414   2.648   7.075  0.00  0.00    +0.000 C 
BRANCH   8   9
ATOM      9  N   UNL     1      48.131   1.502   6.512  0.00  0.00    +0.000 NA
ATOM     10  H   UNL     1      47.460   0.793   6.216  0.00  0.00    +0.000 HD
ATOM     11  H   UNL     1      48.705   1.067   7.234  0.00  0.00    +0.000 HD
ENDBRANCH   8   9
ENDBRANCH   7   8
ENDBRANCH   1   7
BRANCH   4  12
ATOM     12  C   UNL     1      44.084   5.966  11.725  0.00  0.00    +0.000 C 
BRANCH  12  13
ATOM     13  N   UNL     1      44.894   7.176  11.840  0.00  0.00    +0.000 N 
ATOM     14  C   UNL     1      45.997   7.283  12.656  0.00  0.00    +0.000 A 
ATOM     15  C   UNL     1      46.462   8.573  12.576  0.00  0.00    +0.000 A 
ATOM     16  C   UNL     1      45.426   9.337  11.986  0.00  0.00    +0.000 A 
ATOM     17  C   UNL     1      45.156  10.717  11.927  0.00  0.00    +0.000 A 
ATOM     18  C   UNL     1      44.019  11.162  11.249  0.00  0.00    +0.000 A 
ATOM     19  C   UNL     1      43.224  10.263  10.543  0.00  0.00    +0.000 A 
ATOM     20  C   UNL     1      43.471   8.887  10.589  0.00  0.00    +0.000 A 
ATOM     21  C   UNL     1      44.530   8.438  11.397  0.00  0.00    +0.000 A 
ENDBRANCH  12  13
ENDBRANCH   4  12
TORSDOF 5
ENDMDL
MODEL 8
REMARK VINA RESULT:    -5.468      3.000      4.873
REMARK INTER + INTRA:          -7.557
REMARK INTER:                  -6.979
REMARK INTRA:                  -0.578
REMARK UNBOUND:                -0.651
REMARK  Name = 
REMARK  5 active torsions:
REMARK  status: ('A' for Active; 'I' for Inactive)
REMARK    1  A    between atoms: N_1  and  C_2
REMARK    2  A    between atoms: C_2  and  C_3
REMARK    3  A    between atoms: C_3  and  C_4
REMARK    4  A    between atoms: C_7  and  C_8
REMARK    5  A    between atoms: C_8  and  N_9
REMARK                            x       y       z     vdW  Elec       q    Type
REMARK                         _______ _______ _______ _____ _____    ______ ____
ROOT
ATOM      1  C   UNL     1      44.845   3.790  11.187  0.00  0.00    +0.000 A 
ATOM      2  C   UNL     1      44.991   5.086  10.689  0.00  0.00    +0.000 A 
ATOM      3  C   UNL     1      45.729   6.041  11.387  0.00  0.00    +0.000 A 
ATOM      4  C   UNL     1      46.305   5.745  12.627  0.00  0.00    +0.000 A 
ATOM      5  C   UNL     1      46.141   4.453  13.145  0.00  0.00    +0.000 A 
ATOM      6  C   UNL     1      45.418   3.488  12.429  0.00  0.00    +0.000 A 
ENDROOT
BRANCH   1   7
ATOM      7  C   UNL     1      44.003   2.761  10.462  0.00  0.00    +0.000 C 
BRANCH   7   8
ATOM      8  C   UNL     1      44.450   2.478   9.021  0.00  0.00    +0.000 C 
BRANCH   8   9
ATOM      9  N   UNL     1      45.582   1.550   8.998  0.00  0.00    +0.000 NA
ATOM     10  H   UNL     1      46.261   1.860   8.302  0.00  0.00    +0.000 HD
ATOM     11  H   UNL     1      45.266   0.630   8.695  0.00  0.00    +0.000 HD
ENDBRANCH   8   9
ENDBRANCH   7   8
ENDBRANCH   1   7
BRANCH   4  12
ATOM     12  C   UNL     1      47.109   6.773  13.384  0.00  0.00    +0.000 C 
BRANCH  12  13
ATOM     13  N   UNL     1      48.029   7.532  12.540  0.00  0.00    +0.000 N 
ATOM     14  C   UNL     1      49.338   7.167  12.316  0.00  0.00    +0.000 A 
ATOM     15  C   UNL     1      49.926   8.142  11.547  0.00  0.00    +0.000 A 
ATOM     16  C   UNL     1      49.070   9.269  11.606  0.00  0.00    +0.000 A 
ATOM     17  C   UNL     1      49.248  10.634  11.316  0.00  0.00    +0.000 A 
ATOM     18  C   UNL     1      48.177  11.514  11.483  0.00  0.00    +0.000 A 
ATOM     19  C   UNL     1      46.916  11.031  11.822  0.00  0.00    +0.000 A 
ATOM     20  C   UNL     1      46.714   9.678  12.118  0.00  0.00    +0.000 A 
ATOM     21  C   UNL     1      47.834   8.828  12.092  0.00  0.00    +0.000 A 
ENDBRANCH  12  13
ENDBRANCH   4  12
TORSDOF 5
ENDMDL
MODEL 9
REMARK VINA RESULT:    -5.337      2.902      4.520
REMARK INTER + INTRA:          -7.392
REMARK INTER:                  -7.075
REMARK INTRA:                  -0.316
REMARK UNBOUND:                -0.651
REMARK  Name = 
REMARK  5 active torsions:
REMARK  status: ('A' for Active; 'I' for Inactive)
REMARK    1  A    between atoms: N_1  and  C_2
REMARK    2  A    between atoms: C_2  and  C_3
REMARK    3  A    between atoms: C_3  and  C_4
REMARK    4  A    between atoms: C_7  and  C_8
REMARK    5  A    between atoms: C_8  and  N_9
REMARK                            x       y       z     vdW  Elec       q    Type
REMARK                         _______ _______ _______ _____ _____    ______ ____
ROOT
ATOM      1  C   UNL     1      44.880   3.971  10.950  0.00  0.00    +0.000 A 
ATOM      2  C   UNL     1      45.189   3.774  12.297  0.00  0.00    +0.000 A 
ATOM      3  C   UNL     1      45.862   4.754  13.027  0.00  0.00    +0.000 A 
ATOM      4  C   UNL     1      46.289   5.941  12.421  0.00  0.00    +0.000 A 
ATOM      5  C   UNL     1      46.004   6.134  11.062  0.00  0.00    +0.000 A 
ATOM      6  C   UNL     1      45.306   5.156  10.338  0.00  0.00    +0.000 A 
ENDROOT
BRANCH   1   7
ATOM      7  C   UNL     1      44.196   2.892  10.137  0.00  0.00    +0.000 C 
BRANCH   7   8
ATOM      8  C   UNL     1      44.865   2.596   8.787  0.00  0.00    +0.000 C 
BRANCH   8   9
ATOM      9  N   UNL     1      45.570   1.313   8.824  0.00  0.00    +0.000 NA
ATOM     10  H   UNL     1      44.929   0.583   9.136  0.00  0.00    +0.000 HD
ATOM     11  H   UNL     1      46.316   1.351   9.518  0.00  0.00    +0.000 HD
ENDBRANCH   8   9
ENDBRANCH   7   8
ENDBRANCH   1   7
BRANCH   4  12
ATOM     12  C   UNL     1      47.013   7.006  13.207  0.00  0.00    +0.000 C 
BRANCH  12  13
ATOM     13  N   UNL     1      46.631   8.367  12.835  0.00  0.00    +0.000 N 
ATOM     14  C   UNL     1      45.326   8.794  12.735  0.00  0.00    +0.000 A 
ATOM     15  C   UNL     1      45.337  10.094  12.290  0.00  0.00    +0.000 A 
ATOM     16  C   UNL     1      46.637  10.333  11.782  0.00  0.00    +0.000 A 
ATOM     17  C   UNL     1      47.176  11.312  10.927  0.00  0.00    +0.000 A 
ATOM     18  C   UNL     1      48.535  11.268  10.609  0.00  0.00    +0.000 A 
ATOM     19  C   UNL     1      49.371  10.337  11.219  0.00  0.00    +0.000 A 
ATOM     20  C   UNL     1      48.858   9.351  12.070  0.00  0.00    +0.000 A 
ATOM     21  C   UNL     1      47.466   9.314  12.264  0.00  0.00    +0.000 A 
ENDBRANCH  12  13
ENDBRANCH   4  12
TORSDOF 5
ENDMDL
