MODEL 1
REMARK VINA RESULT:    -9.164      0.000      0.000
REMARK INTER + INTRA:         -12.811
REMARK INTER:                 -11.842
REMARK INTRA:                  -0.969
REMARK UNBOUND:                -0.969
REMARK  Name = 
REMARK  7 active torsions:
REMARK  status: ('A' for Active; 'I' for Inactive)
REMARK    1  A    between atoms: C_1  and  C_2
REMARK    2  A    between atoms: C_2  and  C_3
REMARK    3  A    between atoms: C_2  and  C_4
REMARK    4  A    between atoms: C_2  and  C_18
REMARK    5  A    between atoms: C_5  and  C_6
REMARK    6  A    between atoms: C_10  and  C_11
REMARK    7  A    between atoms: C_21  and  C_22
REMARK                            x       y       z     vdW  Elec       q    Type
REMARK                         _______ _______ _______ _____ _____    ______ ____
ROOT
ATOM      1  C   UNL     1      43.420   2.843  11.387  0.00  0.00    +0.000 C 
ATOM      2  C   UNL     1      44.288   4.034  10.920  0.00  0.00    +0.000 C 
ATOM      3  C   UNL     1      43.340   5.225  10.636  0.00  0.00    +0.000 C 
ENDROOT
BRANCH   2   4
ATOM      4  C   UNL     1      45.047   3.575   9.659  0.00  0.00    +0.000 A 
ATOM      5  C   UNL     1      45.637   4.508   8.783  0.00  0.00    +0.000 A 
ATOM      6  C   UNL     1      46.367   4.091   7.661  0.00  0.00    +0.000 A 
ATOM      7  C   UNL     1      46.545   2.731   7.389  0.00  0.00    +0.000 A 
ATOM      8  C   UNL     1      45.981   1.802   8.260  0.00  0.00    +0.000 A 
ATOM      9  F   UNL     1      46.129   0.483   8.065  0.00  0.00    +0.000 F 
ATOM     10  C   UNL     1      45.247   2.213   9.376  0.00  0.00    +0.000 A 
BRANCH   7  11
ATOM     11  C   UNL     1      47.339   2.341   6.198  0.00  0.00    +0.000 C 
ATOM     12  N   UNL     1      47.113   3.001   5.023  0.00  0.00    +0.000 N 
ATOM     13  O   UNL     1      48.175   1.446   6.253  0.00  0.00    +0.000 OA
ATOM     14  H   UNL     1      46.426   3.739   4.929  0.00  0.00    +0.000 HD
ATOM     15  H   UNL     1      47.651   2.729   4.212  0.00  0.00    +0.000 HD
ENDBRANCH   7  11
ENDBRANCH   2   4
BRANCH   2  16
ATOM     16  C   UNL     1      45.244   4.550  12.001  0.00  0.00    +0.000 C 
ATOM     17  C   UNL     1      45.910   5.718  11.980  0.00  0.00    +0.000 C 
BRANCH  17  18
ATOM     18  C   UNL     1      46.890   6.174  12.976  0.00  0.00    +0.000 A 
ATOM     19  C   UNL     1      47.487   7.435  12.934  0.00  0.00    +0.000 A 
ATOM     20  C   UNL     1      48.332   7.847  13.963  0.00  0.00    +0.000 A 
ATOM     21  C   UNL     1      48.572   7.007  15.054  0.00  0.00    +0.000 A 
ATOM     22  C   UNL     1      47.969   5.742  15.148  0.00  0.00    +0.000 A 
ATOM     23  C   UNL     1      47.138   5.345  14.083  0.00  0.00    +0.000 A 
BRANCH  22  24
ATOM     24  C   UNL     1      48.150   4.878  16.333  0.00  0.00    +0.000 A 
ATOM     25  C   UNL     1      47.417   3.696  16.527  0.00  0.00    +0.000 A 
ATOM     26  C   UNL     1      47.588   2.932  17.681  0.00  0.00    +0.000 A 
ATOM     27  C   UNL     1      48.505   3.360  18.623  0.00  0.00    +0.000 A 
ATOM     28  N   UNL     1      49.240   4.481  18.489  0.00  0.00    +0.000 NA
ATOM     29  C   UNL     1      49.040   5.206  17.360  0.00  0.00    +0.000 A 
ENDBRANCH  22  24
ENDBRANCH  17  18
ENDBRANCH   2  16
TORSDOF 5
ENDMDL
MODEL 2
REMARK VINA RESULT:    -8.467      1.971      3.515
REMARK INTER + INTRA:         -11.911
REMARK INTER:                 -10.781
REMARK INTRA:                  -1.130
REMARK UNBOUND:                -0.969
REMARK  Name = 
REMARK  7 active torsions:
REMARK  status: ('A' for Active; 'I' for Inactive)
REMARK    1  A    between atoms: C_1  and  C_2
REMARK    2  A    between atoms: C_2  and  C_3
REMARK    3  A    between atoms: C_2  and  C_4
REMARK    4  A    between atoms: C_2  and  C_18
REMARK    5  A    between atoms: C_5  and  C_6
REMARK    6  A    between atoms: C_10  and  C_11
REMARK    7  A    between atoms: C_21  and  C_22
REMARK                            x       y       z     vdW  Elec       q    Type
REMARK                         _______ _______ _______ _____ _____    ______ ____
ROOT
ATOM      1  C   UNL     1      43.375   2.986  11.857  0.00  0.00    +0.000 C 
ATOM      2  C   UNL     1      44.097   4.225  11.281  0.00  0.00    +0.000 C 
ATOM      3  C   UNL     1      43.024   5.303  10.992  0.00  0.00    +0.000 C 
ENDROOT
BRANCH   2   4
ATOM      4  C   UNL     1      44.831   3.771  10.004  0.00  0.00    +0.000 A 
ATOM      5  C   UNL     1      45.439   4.703   9.140  0.00  0.00    +0.000 A 
ATOM      6  C   UNL     1      46.146   4.289   8.003  0.00  0.00    +0.000 A 
ATOM      7  C   UNL     1      46.282   2.929   7.702  0.00  0.00    +0.000 A 
ATOM      8  C   UNL     1      45.700   2.000   8.561  0.00  0.00    +0.000 A 
ATOM      9  F   UNL     1      45.809   0.681   8.339  0.00  0.00    +0.000 F 
ATOM     10  C   UNL     1      44.990   2.410   9.693  0.00  0.00    +0.000 A 
BRANCH   7  11
ATOM     11  C   UNL     1      47.053   2.541   6.496  0.00  0.00    +0.000 C 
ATOM     12  N   UNL     1      48.253   1.911   6.668  0.00  0.00    +0.000 N 
ATOM     13  O   UNL     1      46.637   2.781   5.368  0.00  0.00    +0.000 OA
ATOM     14  H   UNL     1      48.640   1.702   7.580  0.00  0.00    +0.000 HD
ATOM     15  H   UNL     1      48.779   1.653   5.845  0.00  0.00    +0.000 HD
ENDBRANCH   7  11
ENDBRANCH   2   4
BRANCH   2  16
ATOM     16  C   UNL     1      45.054   4.889  12.278  0.00  0.00    +0.000 C 
ATOM     17  C   UNL     1      45.964   4.262  13.043  0.00  0.00    +0.000 C 
BRANCH  17  18
ATOM     18  C   UNL     1      46.821   4.890  14.059  0.00  0.00    +0.000 A 
ATOM     19  C   UNL     1      47.034   4.336  15.323  0.00  0.00    +0.000 A 
ATOM     20  C   UNL     1      47.937   4.926  16.206  0.00  0.00    +0.000 A 
ATOM     21  C   UNL     1      48.651   6.065  15.823  0.00  0.00    +0.000 A 
ATOM     22  C   UNL     1      48.488   6.636  14.550  0.00  0.00    +0.000 A 
ATOM     23  C   UNL     1      47.552   6.031  13.689  0.00  0.00    +0.000 A 
BRANCH  22  24
ATOM     24  C   UNL     1      49.294   7.791  14.104  0.00  0.00    +0.000 A 
ATOM     25  C   UNL     1      49.447   8.951  14.879  0.00  0.00    +0.000 A 
ATOM     26  C   UNL     1      50.181  10.037  14.402  0.00  0.00    +0.000 A 
ATOM     27  C   UNL     1      50.766   9.937  13.153  0.00  0.00    +0.000 A 
ATOM     28  N   UNL     1      50.659   8.848  12.367  0.00  0.00    +0.000 NA
ATOM     29  C   UNL     1      49.927   7.815  12.858  0.00  0.00    +0.000 A 
ENDBRANCH  22  24
ENDBRANCH  17  18
ENDBRANCH   2  16
TORSDOF 5
ENDMDL
MODEL 3
REMARK VINA RESULT:    -7.372      4.481      8.707
REMARK INTER + INTRA:         -10.496
REMARK INTER:                  -9.400
REMARK INTRA:                  -1.096
REMARK UNBOUND:                -0.969
REMARK  Name = 
REMARK  7 active torsions:
REMARK  status: ('A' for Active; 'I' for Inactive)
REMARK    1  A    between atoms: C_1  and  C_2
REMARK    2  A    between atoms: C_2  and  C_3
REMARK    3  A    between atoms: C_2  and  C_4
REMARK    4  A    between atoms: C_2  and  C_18
REMARK    5  A    between atoms: C_5  and  C_6
REMARK    6  A    between atoms: C_10  and  C_11
REMARK    7  A    between atoms: C_21  and  C_22
REMARK                            x       y       z     vdW  Elec       q    Type
REMARK                         _______ _______ _______ _____ _____    ______ ____
ROOT
ATOM      1  C   UNL     1      49.834   6.587  18.200  0.00  0.00    +0.000 C 
ATOM      2  C   UNL     1      49.071   5.350  17.670  0.00  0.00    +0.000 C 
ATOM      3  C   UNL     1      47.837   5.133  18.579  0.00  0.00    +0.000 C 
ENDROOT
BRANCH   2   4
ATOM      4  C   UNL     1      50.050   4.160  17.716  0.00  0.00    +0.000 A 
ATOM      5  C   UNL     1      49.654   2.873  17.297  0.00  0.00    +0.000 A 
ATOM      6  C   UNL     1      50.555   1.800  17.294  0.00  0.00    +0.000 A 
ATOM      7  C   UNL     1      51.884   1.981  17.693  0.00  0.00    +0.000 A 
ATOM      8  C   UNL     1      52.288   3.253  18.090  0.00  0.00    +0.000 A 
ATOM      9  F   UNL     1      53.553   3.498  18.468  0.00  0.00    +0.000 F 
ATOM     10  C   UNL     1      51.391   4.325  18.100  0.00  0.00    +0.000 A 
BRANCH   7  11
ATOM     11  C   UNL     1      52.803   0.817  17.657  0.00  0.00    +0.000 C 
ATOM     12  N   UNL     1      52.479  -0.288  18.391  0.00  0.00    +0.000 N 
ATOM     13  O   UNL     1      53.834   0.838  16.994  0.00  0.00    +0.000 OA
ATOM     14  H   UNL     1      51.643  -0.346  18.961  0.00  0.00    +0.000 HD
ATOM     15  H   UNL     1      53.109  -1.077  18.370  0.00  0.00    +0.000 HD
ENDBRANCH   7  11
ENDBRANCH   2   4
BRANCH   2  16
ATOM     16  C   UNL     1      48.488   5.551  16.267  0.00  0.00    +0.000 C 
ATOM     17  C   UNL     1      48.867   6.484  15.376  0.00  0.00    +0.000 C 
BRANCH  17  18
ATOM     18  C   UNL     1      48.251   6.729  14.064  0.00  0.00    +0.000 A 
ATOM     19  C   UNL     1      48.771   7.633  13.136  0.00  0.00    +0.000 A 
ATOM     20  C   UNL     1      48.199   7.748  11.870  0.00  0.00    +0.000 A 
ATOM     21  C   UNL     1      47.113   6.943  11.514  0.00  0.00    +0.000 A 
ATOM     22  C   UNL     1      46.578   6.001  12.409  0.00  0.00    +0.000 A 
ATOM     23  C   UNL     1      47.162   5.925  13.687  0.00  0.00    +0.000 A 
BRANCH  22  24
ATOM     24  C   UNL     1      45.483   5.090  12.018  0.00  0.00    +0.000 A 
ATOM     25  C   UNL     1      44.826   5.183  10.781  0.00  0.00    +0.000 A 
ATOM     26  C   UNL     1      43.767   4.331  10.469  0.00  0.00    +0.000 A 
ATOM     27  C   UNL     1      43.388   3.384  11.402  0.00  0.00    +0.000 A 
ATOM     28  N   UNL     1      43.984   3.244  12.602  0.00  0.00    +0.000 NA
ATOM     29  C   UNL     1      45.003   4.097  12.877  0.00  0.00    +0.000 A 
ENDBRANCH  22  24
ENDBRANCH  17  18
ENDBRANCH   2  16
TORSDOF 5
ENDMDL
MODEL 4
REMARK VINA RESULT:    -7.249      3.112      5.150
REMARK INTER + INTRA:         -10.337
REMARK INTER:                  -9.383
REMARK INTRA:                  -0.954
REMARK UNBOUND:                -0.969
REMARK  Name = 
REMARK  7 active torsions:
REMARK  status: ('A' for Active; 'I' for Inactive)
REMARK    1  A    between atoms: C_1  and  C_2
REMARK    2  A    between atoms: C_2  and  C_3
REMARK    3  A    between atoms: C_2  and  C_4
REMARK    4  A    between atoms: C_2  and  C_18
REMARK    5  A    between atoms: C_5  and  C_6
REMARK    6  A    between atoms: C_10  and  C_11
REMARK    7  A    between atoms: C_21  and  C_22
REMARK                            x       y       z     vdW  Elec       q    Type
REMARK                         _______ _______ _______ _____ _____    ______ ____
ROOT
ATOM      1  C   UNL     1      47.453   8.655  13.674  0.00  0.00    +0.000 C 
ATOM      2  C   UNL     1      47.999   7.224  13.460  0.00  0.00    +0.000 C 
ATOM      3  C   UNL     1      49.312   7.338  12.646  0.00  0.00    +0.000 C 
ENDROOT
BRANCH   2   4
ATOM      4  C   UNL     1      46.911   6.431  12.709  0.00  0.00    +0.000 A 
ATOM      5  C   UNL     1      46.271   6.965  11.573  0.00  0.00    +0.000 A 
ATOM      6  C   UNL     1      45.315   6.227  10.861  0.00  0.00    +0.000 A 
ATOM      7  C   UNL     1      44.981   4.926  11.253  0.00  0.00    +0.000 A 
ATOM      8  C   UNL     1      45.622   4.383  12.364  0.00  0.00    +0.000 A 
ATOM      9  F   UNL     1      45.359   3.135  12.781  0.00  0.00    +0.000 F 
ATOM     10  C   UNL     1      46.571   5.118  13.079  0.00  0.00    +0.000 A 
BRANCH   7  11
ATOM     11  C   UNL     1      43.974   4.180  10.457  0.00  0.00    +0.000 C 
ATOM     12  N   UNL     1      43.948   4.368   9.105  0.00  0.00    +0.000 N 
ATOM     13  O   UNL     1      43.177   3.417  10.991  0.00  0.00    +0.000 OA
ATOM     14  H   UNL     1      44.581   4.995   8.622  0.00  0.00    +0.000 HD
ATOM     15  H   UNL     1      43.258   3.863   8.566  0.00  0.00    +0.000 HD
ENDBRANCH   7  11
ENDBRANCH   2   4
BRANCH   2  16
ATOM     16  C   UNL     1      48.410   6.529  14.762  0.00  0.00    +0.000 C 
ATOM     17  C   UNL     1      48.651   7.130  15.941  0.00  0.00    +0.000 C 
BRANCH  17  18
ATOM     18  C   UNL     1      49.126   6.472  17.167  0.00  0.00    +0.000 A 
ATOM     19  C   UNL     1      48.703   6.848  18.444  0.00  0.00    +0.000 A 
ATOM     20  C   UNL     1      49.112   6.121  19.560  0.00  0.00    +0.000 A 
ATOM     21  C   UNL     1      49.932   4.999  19.407  0.00  0.00    +0.000 A 
ATOM     22  C   UNL     1      50.356   4.572  18.138  0.00  0.00    +0.000 A 
ATOM     23  C   UNL     1      49.945   5.340  17.031  0.00  0.00    +0.000 A 
BRANCH  22  24
ATOM     24  C   UNL     1      51.156   3.343  17.956  0.00  0.00    +0.000 A 
ATOM     25  C   UNL     1      52.505   3.256  18.332  0.00  0.00    +0.000 A 
ATOM     26  C   UNL     1      53.237   2.091  18.103  0.00  0.00    +0.000 A 
ATOM     27  C   UNL     1      52.597   1.020  17.506  0.00  0.00    +0.000 A 
ATOM     28  N   UNL     1      51.304   1.044  17.128  0.00  0.00    +0.000 NA
ATOM     29  C   UNL     1      50.626   2.197  17.357  0.00  0.00    +0.000 A 
ENDBRANCH  22  24
ENDBRANCH  17  18
ENDBRANCH   2  16
TORSDOF 5
ENDMDL
MODEL 5
REMARK VINA RESULT:    -7.164      4.805      7.227
REMARK INTER + INTRA:         -10.226
REMARK INTER:                  -9.293
REMARK INTRA:                  -0.933
REMARK UNBOUND:                -0.969
REMARK  Name = 
REMARK  7 active torsions:
REMARK  status: ('A' for Active; 'I' for Inactive)
REMARK    1  A    between atoms: C_1  and  C_2
REMARK    2  A    between atoms: C_2  and  C_3
REMARK    3  A    between atoms: C_2  and  C_4
REMARK    4  A    between atoms: C_2  and  C_18
REMARK    5  A    between atoms: C_5  and  C_6
REMARK    6  A    between atoms: C_10  and  C_11
REMARK    7  A    between atoms: C_21  and  C_22
REMARK                            x       y       z     vdW  Elec       q    Type
REMARK                         _______ _______ _______ _____ _____    ______ ____
ROOT
ATOM      1  C   UNL     1      47.911   6.982  14.161  0.00  0.00    +0.000 C 
ATOM      2  C   UNL     1      47.413   7.337  12.740  0.00  0.00    +0.000 C 
ATOM      3  C   UNL     1      46.579   8.637  12.846  0.00  0.00    +0.000 C 
ENDROOT
BRANCH   2   4
ATOM      4  C   UNL     1      46.577   6.143  12.240  0.00  0.00    +0.000 A 
ATOM      5  C   UNL     1      46.187   5.108  13.114  0.00  0.00    +0.000 A 
ATOM      6  C   UNL     1      45.387   4.045  12.672  0.00  0.00    +0.000 A 
ATOM      7  C   UNL     1      44.938   3.991  11.348  0.00  0.00    +0.000 A 
ATOM      8  C   UNL     1      45.303   5.020  10.483  0.00  0.00    +0.000 A 
ATOM      9  F   UNL     1      44.890   5.037   9.206  0.00  0.00    +0.000 F 
ATOM     10  C   UNL     1      46.105   6.078  10.918  0.00  0.00    +0.000 A 
BRANCH   7  11
ATOM     11  C   UNL     1      44.080   2.854  10.933  0.00  0.00    +0.000 C 
ATOM     12  N   UNL     1      44.519   2.046   9.922  0.00  0.00    +0.000 N 
ATOM     13  O   UNL     1      43.001   2.639  11.472  0.00  0.00    +0.000 OA
ATOM     14  H   UNL     1      45.399   2.192   9.442  0.00  0.00    +0.000 HD
ATOM     15  H   UNL     1      43.930   1.276   9.637  0.00  0.00    +0.000 HD
ENDBRANCH   7  11
ENDBRANCH   2   4
BRANCH   2  16
ATOM     16  C   UNL     1      48.547   7.682  11.768  0.00  0.00    +0.000 C 
ATOM     17  C   UNL     1      49.839   7.867  12.089  0.00  0.00    +0.000 C 
BRANCH  17  18
ATOM     18  C   UNL     1      50.909   8.280  11.169  0.00  0.00    +0.000 A 
ATOM     19  C   UNL     1      51.502   9.544  11.211  0.00  0.00    +0.000 A 
ATOM     20  C   UNL     1      52.580   9.841  10.379  0.00  0.00    +0.000 A 
ATOM     21  C   UNL     1      53.088   8.869   9.512  0.00  0.00    +0.000 A 
ATOM     22  C   UNL     1      52.538   7.577   9.460  0.00  0.00    +0.000 A 
ATOM     23  C   UNL     1      51.435   7.315  10.296  0.00  0.00    +0.000 A 
BRANCH  22  24
ATOM     24  C   UNL     1      53.114   6.518   8.607  0.00  0.00    +0.000 A 
ATOM     25  C   UNL     1      54.167   5.693   9.034  0.00  0.00    +0.000 A 
ATOM     26  C   UNL     1      54.713   4.733   8.181  0.00  0.00    +0.000 A 
ATOM     27  C   UNL     1      54.183   4.606   6.910  0.00  0.00    +0.000 A 
ATOM     28  N   UNL     1      53.170   5.364   6.448  0.00  0.00    +0.000 NA
ATOM     29  C   UNL     1      52.671   6.295   7.300  0.00  0.00    +0.000 A 
ENDBRANCH  22  24
ENDBRANCH  17  18
ENDBRANCH   2  16
TORSDOF 5
ENDMDL
MODEL 6
REMARK VINA RESULT:    -7.134      3.493      8.793
REMARK INTER + INTRA:         -10.188
REMARK INTER:                  -9.132
REMARK INTRA:                  -1.056
REMARK UNBOUND:                -0.969
REMARK  Name = 
REMARK  7 active torsions:
REMARK  status: ('A' for Active; 'I' for Inactive)
REMARK    1  A    between atoms: C_1  and  C_2
REMARK    2  A    between atoms: C_2  and  C_3
REMARK    3  A    between atoms: C_2  and  C_4
REMARK    4  A    between atoms: C_2  and  C_18
REMARK    5  A    between atoms: C_5  and  C_6
REMARK    6  A    between atoms: C_10  and  C_11
REMARK    7  A    between atoms: C_21  and  C_22
REMARK                            x       y       z     vdW  Elec       q    Type
REMARK                         _______ _______ _______ _____ _____    ______ ____
ROOT
ATOM      1  C   UNL     1      49.647   7.899  12.992  0.00  0.00    +0.000 C 
ATOM      2  C   UNL     1      48.358   7.454  13.720  0.00  0.00    +0.000 C 
ATOM      3  C   UNL     1      47.548   8.729  14.063  0.00  0.00    +0.000 C 
ENDROOT
BRANCH   2   4
ATOM      4  C   UNL     1      48.792   6.679  14.980  0.00  0.00    +0.000 A 
ATOM      5  C   UNL     1      49.951   7.040  15.696  0.00  0.00    +0.000 A 
ATOM      6  C   UNL     1      50.322   6.367  16.868  0.00  0.00    +0.000 A 
ATOM      7  C   UNL     1      49.538   5.323  17.371  0.00  0.00    +0.000 A 
ATOM      8  C   UNL     1      48.381   4.972  16.680  0.00  0.00    +0.000 A 
ATOM      9  F   UNL     1      47.576   3.991  17.118  0.00  0.00    +0.000 F 
ATOM     10  C   UNL     1      48.011   5.637  15.508  0.00  0.00    +0.000 A 
BRANCH   7  11
ATOM     11  C   UNL     1      49.965   4.652  18.623  0.00  0.00    +0.000 C 
ATOM     12  N   UNL     1      50.607   3.450  18.529  0.00  0.00    +0.000 N 
ATOM     13  O   UNL     1      49.746   5.151  19.721  0.00  0.00    +0.000 OA
ATOM     14  H   UNL     1      50.800   2.996  17.644  0.00  0.00    +0.000 HD
ATOM     15  H   UNL     1      50.891   2.992  19.383  0.00  0.00    +0.000 HD
ENDBRANCH   7  11
ENDBRANCH   2   4
BRANCH   2  16
ATOM     16  C   UNL     1      47.418   6.624  12.840  0.00  0.00    +0.000 C 
ATOM     17  C   UNL     1      46.098   6.821  12.681  0.00  0.00    +0.000 C 
BRANCH  17  18
ATOM     18  C   UNL     1      45.183   5.974  11.902  0.00  0.00    +0.000 A 
ATOM     19  C   UNL     1      43.794   6.019  12.048  0.00  0.00    +0.000 A 
ATOM     20  C   UNL     1      42.976   5.264  11.211  0.00  0.00    +0.000 A 
ATOM     21  C   UNL     1      43.538   4.472  10.206  0.00  0.00    +0.000 A 
ATOM     22  C   UNL     1      44.928   4.421  10.008  0.00  0.00    +0.000 A 
ATOM     23  C   UNL     1      45.730   5.177  10.884  0.00  0.00    +0.000 A 
BRANCH  22  24
ATOM     24  C   UNL     1      45.530   3.651   8.900  0.00  0.00    +0.000 A 
ATOM     25  C   UNL     1      45.680   2.256   8.942  0.00  0.00    +0.000 A 
ATOM     26  C   UNL     1      46.294   1.572   7.892  0.00  0.00    +0.000 A 
ATOM     27  C   UNL     1      46.739   2.300   6.805  0.00  0.00    +0.000 A 
ATOM     28  N   UNL     1      46.618   3.638   6.706  0.00  0.00    +0.000 NA
ATOM     29  C   UNL     1      46.026   4.273   7.750  0.00  0.00    +0.000 A 
ENDBRANCH  22  24
ENDBRANCH  17  18
ENDBRANCH   2  16
TORSDOF 5
ENDMDL
MODEL 7
REMARK VINA RESULT:    -6.920      4.185      8.773
REMARK INTER + INTRA:          -9.911
REMARK INTER:                  -8.758
REMARK INTRA:                  -1.153
REMARK UNBOUND:                -0.969
REMARK  Name = 
REMARK  7 active torsions:
REMARK  status: ('A' for Active; 'I' for Inactive)
REMARK    1  A    between atoms: C_1  and  C_2
REMARK    2  A    between atoms: C_2  and  C_3
REMARK    3  A    between atoms: C_2  and  C_4
REMARK    4  A    between atoms: C_2  and  C_18
REMARK    5  A    between atoms: C_5  and  C_6
REMARK    6  A    between atoms: C_10  and  C_11
REMARK    7  A    between atoms: C_21  and  C_22
REMARK                            x       y       z     vdW  Elec       q    Type
REMARK                         _______ _______ _______ _____ _____    ______ ____
ROOT
ATOM      1  C   UNL     1      47.928   5.083  18.660  0.00  0.00    +0.000 C 
ATOM      2  C   UNL     1      48.211   4.047  17.547  0.00  0.00    +0.000 C 
ATOM      3  C   UNL     1      47.220   2.872  17.737  0.00  0.00    +0.000 C 
ENDROOT
BRANCH   2   4
ATOM      4  C   UNL     1      49.680   3.606  17.700  0.00  0.00    +0.000 A 
ATOM      5  C   UNL     1      50.617   4.411  18.379  0.00  0.00    +0.000 A 
ATOM      6  C   UNL     1      51.942   3.991  18.559  0.00  0.00    +0.000 A 
ATOM      7  C   UNL     1      52.368   2.747  18.081  0.00  0.00    +0.000 A 
ATOM      8  C   UNL     1      51.444   1.938  17.425  0.00  0.00    +0.000 A 
ATOM      9  F   UNL     1      51.784   0.726  16.958  0.00  0.00    +0.000 F 
ATOM     10  C   UNL     1      50.123   2.355  17.239  0.00  0.00    +0.000 A 
BRANCH   7  11
ATOM     11  C   UNL     1      53.777   2.341  18.311  0.00  0.00    +0.000 C 
ATOM     12  N   UNL     1      54.702   2.636  17.349  0.00  0.00    +0.000 N 
ATOM     13  O   UNL     1      54.112   1.750  19.330  0.00  0.00    +0.000 OA
ATOM     14  H   UNL     1      54.468   3.115  16.487  0.00  0.00    +0.000 HD
ATOM     15  H   UNL     1      55.659   2.353  17.505  0.00  0.00    +0.000 HD
ENDBRANCH   7  11
ENDBRANCH   2   4
BRANCH   2  16
ATOM     16  C   UNL     1      47.920   4.575  16.138  0.00  0.00    +0.000 C 
ATOM     17  C   UNL     1      48.296   5.766  15.643  0.00  0.00    +0.000 C 
BRANCH  17  18
ATOM     18  C   UNL     1      47.945   6.305  14.321  0.00  0.00    +0.000 A 
ATOM     19  C   UNL     1      48.592   7.404  13.751  0.00  0.00    +0.000 A 
ATOM     20  C   UNL     1      48.282   7.805  12.453  0.00  0.00    +0.000 A 
ATOM     21  C   UNL     1      47.337   7.097  11.705  0.00  0.00    +0.000 A 
ATOM     22  C   UNL     1      46.685   5.969  12.231  0.00  0.00    +0.000 A 
ATOM     23  C   UNL     1      47.002   5.603  13.553  0.00  0.00    +0.000 A 
BRANCH  22  24
ATOM     24  C   UNL     1      45.744   5.166  11.425  0.00  0.00    +0.000 A 
ATOM     25  C   UNL     1      44.974   4.127  11.972  0.00  0.00    +0.000 A 
ATOM     26  C   UNL     1      44.130   3.363  11.166  0.00  0.00    +0.000 A 
ATOM     27  C   UNL     1      44.060   3.662   9.818  0.00  0.00    +0.000 A 
ATOM     28  N   UNL     1      44.770   4.649   9.238  0.00  0.00    +0.000 NA
ATOM     29  C   UNL     1      45.590   5.365  10.049  0.00  0.00    +0.000 A 
ENDBRANCH  22  24
ENDBRANCH  17  18
ENDBRANCH   2  16
TORSDOF 5
ENDMDL
MODEL 8
REMARK VINA RESULT:    -6.805      4.676      8.837
REMARK INTER + INTRA:          -9.762
REMARK INTER:                  -8.690
REMARK INTRA:                  -1.072
REMARK UNBOUND:                -0.969
REMARK  Name = 
REMARK  7 active torsions:
REMARK  status: ('A' for Active; 'I' for Inactive)
REMARK    1  A    between atoms: C_1  and  C_2
REMARK    2  A    between atoms: C_2  and  C_3
REMARK    3  A    between atoms: C_2  and  C_4
REMARK    4  A    between atoms: C_2  and  C_18
REMARK    5  A    between atoms: C_5  and  C_6
REMARK    6  A    between atoms: C_10  and  C_11
REMARK    7  A    between atoms: C_21  and  C_22
REMARK                            x       y       z     vdW  Elec       q    Type
REMARK                         _______ _______ _______ _____ _____    ______ ____
ROOT
ATOM      1  C   UNL     1      47.798   5.015  18.680  0.00  0.00    +0.000 C 
ATOM      2  C   UNL     1      48.162   4.123  17.471  0.00  0.00    +0.000 C 
ATOM      3  C   UNL     1      47.182   2.923  17.461  0.00  0.00    +0.000 C 
ENDROOT
BRANCH   2   4
ATOM      4  C   UNL     1      49.627   3.681  17.657  0.00  0.00    +0.000 A 
ATOM      5  C   UNL     1      50.565   4.515  18.299  0.00  0.00    +0.000 A 
ATOM      6  C   UNL     1      51.886   4.097  18.511  0.00  0.00    +0.000 A 
ATOM      7  C   UNL     1      52.307   2.826  18.104  0.00  0.00    +0.000 A 
ATOM      8  C   UNL     1      51.381   1.989  17.486  0.00  0.00    +0.000 A 
ATOM      9  F   UNL     1      51.717   0.752  17.088  0.00  0.00    +0.000 F 
ATOM     10  C   UNL     1      50.065   2.404  17.268  0.00  0.00    +0.000 A 
BRANCH   7  11
ATOM     11  C   UNL     1      53.711   2.425  18.365  0.00  0.00    +0.000 C 
ATOM     12  N   UNL     1      54.084   2.170  19.655  0.00  0.00    +0.000 N 
ATOM     13  O   UNL     1      54.526   2.327  17.456  0.00  0.00    +0.000 OA
ATOM     14  H   UNL     1      53.446   2.247  20.439  0.00  0.00    +0.000 HD
ATOM     15  H   UNL     1      55.042   1.903  19.831  0.00  0.00    +0.000 HD
ENDBRANCH   7  11
ENDBRANCH   2   4
BRANCH   2  16
ATOM     16  C   UNL     1      47.945   4.812  16.120  0.00  0.00    +0.000 C 
ATOM     17  C   UNL     1      47.058   4.449  15.177  0.00  0.00    +0.000 C 
BRANCH  17  18
ATOM     18  C   UNL     1      46.908   5.058  13.848  0.00  0.00    +0.000 A 
ATOM     19  C   UNL     1      45.830   4.786  13.003  0.00  0.00    +0.000 A 
ATOM     20  C   UNL     1      45.692   5.471  11.797  0.00  0.00    +0.000 A 
ATOM     21  C   UNL     1      46.621   6.451  11.436  0.00  0.00    +0.000 A 
ATOM     22  C   UNL     1      47.703   6.776  12.271  0.00  0.00    +0.000 A 
ATOM     23  C   UNL     1      47.829   6.050  13.471  0.00  0.00    +0.000 A 
BRANCH  22  24
ATOM     24  C   UNL     1      48.646   7.864  11.939  0.00  0.00    +0.000 A 
ATOM     25  C   UNL     1      48.238   9.199  11.791  0.00  0.00    +0.000 A 
ATOM     26  C   UNL     1      49.153  10.189  11.433  0.00  0.00    +0.000 A 
ATOM     27  C   UNL     1      50.473   9.826  11.240  0.00  0.00    +0.000 A 
ATOM     28  N   UNL     1      50.923   8.563  11.374  0.00  0.00    +0.000 NA
ATOM     29  C   UNL     1      50.004   7.623  11.711  0.00  0.00    +0.000 A 
ENDBRANCH  22  24
ENDBRANCH  17  18
ENDBRANCH   2  16
TORSDOF 5
ENDMDL
MODEL 9
REMARK VINA RESULT:    -6.456      4.092      8.922
REMARK INTER + INTRA:          -9.312
REMARK INTER:                  -8.329
REMARK INTRA:                  -0.983
REMARK UNBOUND:                -0.969
REMARK  Name = 
REMARK  7 active torsions:
REMARK  status: ('A' for Active; 'I' for Inactive)
REMARK    1  A    between atoms: C_1  and  C_2
REMARK    2  A    between atoms: C_2  and  C_3
REMARK    3  A    between atoms: C_2  and  C_4
REMARK    4  A    between atoms: C_2  and  C_18
REMARK    5  A    between atoms: C_5  and  C_6
REMARK    6  A    between atoms: C_10  and  C_11
REMARK    7  A    between atoms: C_21  and  C_22
REMARK                            x       y       z     vdW  Elec       q    Type
REMARK                         _______ _______ _______ _____ _____    ______ ____
ROOT
ATOM      1  C   UNL     1      51.204   8.508  14.087  0.00  0.00    +0.000 C 
ATOM      2  C   UNL     1      50.111   8.256  15.151  0.00  0.00    +0.000 C 
ATOM      3  C   UNL     1      50.009   9.527  16.030  0.00  0.00    +0.000 C 
ENDROOT
BRANCH   2   4
ATOM      4  C   UNL     1      50.542   7.017  15.961  0.00  0.00    +0.000 A 
ATOM      5  C   UNL     1      51.903   6.735  16.194  0.00  0.00    +0.000 A 
ATOM      6  C   UNL     1      52.296   5.635  16.970  0.00  0.00    +0.000 A 
ATOM      7  C   UNL     1      51.342   4.793  17.550  0.00  0.00    +0.000 A 
ATOM      8  C   UNL     1      49.994   5.075  17.339  0.00  0.00    +0.000 A 
ATOM      9  F   UNL     1      49.029   4.316  17.882  0.00  0.00    +0.000 F 
ATOM     10  C   UNL     1      49.599   6.167  16.562  0.00  0.00    +0.000 A 
BRANCH   7  11
ATOM     11  C   UNL     1      51.808   3.651  18.375  0.00  0.00    +0.000 C 
ATOM     12  N   UNL     1      51.497   2.385  17.965  0.00  0.00    +0.000 N 
ATOM     13  O   UNL     1      52.451   3.828  19.403  0.00  0.00    +0.000 OA
ATOM     14  H   UNL     1      50.960   2.193  17.128  0.00  0.00    +0.000 HD
ATOM     15  H   UNL     1      51.810   1.610  18.532  0.00  0.00    +0.000 HD
ENDBRANCH   7  11
ENDBRANCH   2   4
BRANCH   2  16
ATOM     16  C   UNL     1      48.710   8.084  14.554  0.00  0.00    +0.000 C 
ATOM     17  C   UNL     1      48.418   7.556  13.353  0.00  0.00    +0.000 C 
BRANCH  17  18
ATOM     18  C   UNL     1      47.082   7.469  12.748  0.00  0.00    +0.000 A 
ATOM     19  C   UNL     1      46.156   8.514  12.792  0.00  0.00    +0.000 A 
ATOM     20  C   UNL     1      44.944   8.407  12.113  0.00  0.00    +0.000 A 
ATOM     21  C   UNL     1      44.655   7.262  11.366  0.00  0.00    +0.000 A 
ATOM     22  C   UNL     1      45.570   6.200  11.273  0.00  0.00    +0.000 A 
ATOM     23  C   UNL     1      46.776   6.327  11.989  0.00  0.00    +0.000 A 
BRANCH  22  24
ATOM     24  C   UNL     1      45.311   5.019  10.424  0.00  0.00    +0.000 A 
ATOM     25  C   UNL     1      45.674   4.968   9.068  0.00  0.00    +0.000 A 
ATOM     26  C   UNL     1      45.372   3.851   8.291  0.00  0.00    +0.000 A 
ATOM     27  C   UNL     1      44.718   2.790   8.890  0.00  0.00    +0.000 A 
ATOM     28  N   UNL     1      44.350   2.780  10.186  0.00  0.00    +0.000 NA
ATOM     29  C   UNL     1      44.650   3.888  10.910  0.00  0.00    +0.000 A 
ENDBRANCH  22  24
ENDBRANCH  17  18
ENDBRANCH   2  16
TORSDOF 5
ENDMDL
