MODEL 1
REMARK VINA RESULT:    -7.615      0.000      0.000
REMARK INTER + INTRA:          -9.378
REMARK INTER:                  -8.950
REMARK INTRA:                  -0.428
REMARK UNBOUND:                -0.428
REMARK  Name = 
REMARK  3 active torsions:
REMARK  status: ('A' for Active; 'I' for Inactive)
REMARK    1  A    between atoms: C_2  and  C_4
REMARK    2  A    between atoms: N_8  and  C_9
REMARK    3  A    between atoms: C_9  and  C_10
REMARK                            x       y       z     vdW  Elec       q    Type
REMARK                         _______ _______ _______ _____ _____    ______ ____
ROOT
ATOM      1  C   UNL     1      46.189   1.989   7.863  0.00  0.00    +0.000 A 
ATOM      2  C   UNL     1      45.942   3.178   7.184  0.00  0.00    +0.000 A 
ATOM      3  C   UNL     1      45.126   4.136   7.783  0.00  0.00    +0.000 A 
ATOM      4  C   UNL     1      44.599   3.909   9.056  0.00  0.00    +0.000 A 
ATOM      5  N   UNL     1      43.835   4.932   9.620  0.00  0.00    +0.000 N 
ATOM      6  N   UNL     1      44.834   2.765   9.723  0.00  0.00    +0.000 NA
ATOM      7  C   UNL     1      45.598   1.823   9.108  0.00  0.00    +0.000 A 
ATOM      8  H   UNL     1      42.995   5.074   9.068  0.00  0.00    +0.000 HD
ENDROOT
BRANCH   1  10
ATOM      9  N   UNL     1      46.704  -0.378   7.663  0.00  0.00    +0.000 N 
ATOM     10  C   UNL     1      47.023   0.904   7.308  0.00  0.00    +0.000 C 
ATOM     11  O   UNL     1      47.944   1.137   6.538  0.00  0.00    +0.000 OA
ATOM     12  H   UNL     1      47.219  -1.114   7.192  0.00  0.00    +0.000 HD
ATOM     13  H   UNL     1      45.819  -0.628   8.079  0.00  0.00    +0.000 HD
ENDBRANCH   1  10
BRANCH   5  14
ATOM     14  C   UNL     1      43.535   4.828  11.044  0.00  0.00    +0.000 C 
BRANCH  14  15
ATOM     15  C   UNL     1      44.562   5.655  11.799  0.00  0.00    +0.000 A 
ATOM     16  C   UNL     1      44.512   7.061  11.671  0.00  0.00    +0.000 A 
ATOM     17  C   UNL     1      45.421   7.886  12.333  0.00  0.00    +0.000 A 
ATOM     18  C   UNL     1      46.414   7.324  13.124  0.00  0.00    +0.000 A 
ATOM     19  C   UNL     1      46.493   5.936  13.251  0.00  0.00    +0.000 A 
ATOM     20  C   UNL     1      45.579   5.104  12.591  0.00  0.00    +0.000 A 
ATOM     21 CL   UNL     1      45.766   3.401  12.803  0.00  0.00    +0.000 Cl
ENDBRANCH  14  15
ENDBRANCH   5  14
TORSDOF 3
ENDMDL
MODEL 2
REMARK VINA RESULT:    -7.591      1.325      1.808
REMARK INTER + INTRA:          -9.351
REMARK INTER:                  -9.119
REMARK INTRA:                  -0.232
REMARK UNBOUND:                -0.428
REMARK  Name = 
REMARK  3 active torsions:
REMARK  status: ('A' for Active; 'I' for Inactive)
REMARK    1  A    between atoms: C_2  and  C_4
REMARK    2  A    between atoms: N_8  and  C_9
REMARK    3  A    between atoms: C_9  and  C_10
REMARK                            x       y       z     vdW  Elec       q    Type
REMARK                         _______ _______ _______ _____ _____    ______ ____
ROOT
ATOM      1  C   UNL     1      46.369   2.107   7.855  0.00  0.00    +0.000 A 
ATOM      2  C   UNL     1      46.379   3.399   7.341  0.00  0.00    +0.000 A 
ATOM      3  C   UNL     1      45.659   4.392   8.004  0.00  0.00    +0.000 A 
ATOM      4  C   UNL     1      44.972   4.089   9.180  0.00  0.00    +0.000 A 
ATOM      5  N   UNL     1      44.316   5.141   9.822  0.00  0.00    +0.000 N 
ATOM      6  N   UNL     1      44.957   2.844   9.688  0.00  0.00    +0.000 NA
ATOM      7  C   UNL     1      45.630   1.878   9.008  0.00  0.00    +0.000 A 
ATOM      8  H   UNL     1      43.571   5.492   9.229  0.00  0.00    +0.000 HD
ENDROOT
BRANCH   1  10
ATOM      9  N   UNL     1      46.774  -0.281   7.646  0.00  0.00    +0.000 N 
ATOM     10  C   UNL     1      47.083   0.982   7.219  0.00  0.00    +0.000 C 
ATOM     11  O   UNL     1      47.895   1.166   6.323  0.00  0.00    +0.000 OA
ATOM     12  H   UNL     1      47.195  -1.044   7.127  0.00  0.00    +0.000 HD
ATOM     13  H   UNL     1      45.947  -0.490   8.186  0.00  0.00    +0.000 HD
ENDBRANCH   1  10
BRANCH   5  14
ATOM     14  C   UNL     1      43.854   4.901  11.186  0.00  0.00    +0.000 C 
BRANCH  14  15
ATOM     15  C   UNL     1      45.015   5.168  12.127  0.00  0.00    +0.000 A 
ATOM     16  C   UNL     1      45.561   4.077  12.840  0.00  0.00    +0.000 A 
ATOM     17  C   UNL     1      46.628   4.244  13.722  0.00  0.00    +0.000 A 
ATOM     18  C   UNL     1      47.163   5.509  13.927  0.00  0.00    +0.000 A 
ATOM     19  C   UNL     1      46.628   6.604  13.246  0.00  0.00    +0.000 A 
ATOM     20  C   UNL     1      45.558   6.440  12.356  0.00  0.00    +0.000 A 
ATOM     21 CL   UNL     1      44.960   7.856  11.570  0.00  0.00    +0.000 Cl
ENDBRANCH  14  15
ENDBRANCH   5  14
TORSDOF 3
ENDMDL
MODEL 3
REMARK VINA RESULT:    -6.966      3.147      6.460
REMARK INTER + INTRA:          -8.615
REMARK INTER:                  -8.259
REMARK INTRA:                  -0.356
REMARK UNBOUND:                -0.428
REMARK  Name = 
REMARK  3 active torsions:
REMARK  status: ('A' for Active; 'I' for Inactive)
REMARK    1  A    between atoms: C_2  and  C_4
REMARK    2  A    between atoms: N_8  and  C_9
REMARK    3  A    between atoms: C_9  and  C_10
REMARK                            x       y       z     vdW  Elec       q    Type
REMARK                         _______ _______ _______ _____ _____    ______ ____
ROOT
ATOM      1  C   UNL     1      46.716   5.500  13.155  0.00  0.00    +0.000 A 
ATOM      2  C   UNL     1      46.713   4.183  13.602  0.00  0.00    +0.000 A 
ATOM      3  C   UNL     1      46.021   3.225  12.863  0.00  0.00    +0.000 A 
ATOM      4  C   UNL     1      45.376   3.587  11.679  0.00  0.00    +0.000 A 
ATOM      5  N   UNL     1      44.748   2.569  10.960  0.00  0.00    +0.000 N 
ATOM      6  N   UNL     1      45.375   4.857  11.236  0.00  0.00    +0.000 NA
ATOM      7  C   UNL     1      46.019   5.788  11.990  0.00  0.00    +0.000 A 
ATOM      8  H   UNL     1      43.983   2.186  11.507  0.00  0.00    +0.000 HD
ENDROOT
BRANCH   1  10
ATOM      9  N   UNL     1      46.905   7.857  13.720  0.00  0.00    +0.000 N 
ATOM     10  C   UNL     1      47.402   6.592  13.875  0.00  0.00    +0.000 C 
ATOM     11  O   UNL     1      48.358   6.373  14.607  0.00  0.00    +0.000 OA
ATOM     12  H   UNL     1      47.322   8.576  14.301  0.00  0.00    +0.000 HD
ATOM     13  H   UNL     1      45.988   8.044  13.340  0.00  0.00    +0.000 HD
ENDBRANCH   1  10
BRANCH   5  14
ATOM     14  C   UNL     1      44.335   2.878   9.595  0.00  0.00    +0.000 C 
BRANCH  14  15
ATOM     15  C   UNL     1      45.455   2.456   8.660  0.00  0.00    +0.000 A 
ATOM     16  C   UNL     1      45.680   1.076   8.469  0.00  0.00    +0.000 A 
ATOM     17  C   UNL     1      46.691   0.612   7.627  0.00  0.00    +0.000 A 
ATOM     18  C   UNL     1      47.512   1.518   6.970  0.00  0.00    +0.000 A 
ATOM     19  C   UNL     1      47.319   2.888   7.158  0.00  0.00    +0.000 A 
ATOM     20  C   UNL     1      46.302   3.358   8.000  0.00  0.00    +0.000 A 
ATOM     21 CL   UNL     1      46.149   5.068   8.175  0.00  0.00    +0.000 Cl
ENDBRANCH  14  15
ENDBRANCH   5  14
TORSDOF 3
ENDMDL
MODEL 4
REMARK VINA RESULT:    -6.659      3.673      6.397
REMARK INTER + INTRA:          -8.255
REMARK INTER:                  -7.877
REMARK INTRA:                  -0.378
REMARK UNBOUND:                -0.428
REMARK  Name = 
REMARK  3 active torsions:
REMARK  status: ('A' for Active; 'I' for Inactive)
REMARK    1  A    between atoms: C_2  and  C_4
REMARK    2  A    between atoms: N_8  and  C_9
REMARK    3  A    between atoms: C_9  and  C_10
REMARK                            x       y       z     vdW  Elec       q    Type
REMARK                         _______ _______ _______ _____ _____    ______ ____
ROOT
ATOM      1  C   UNL     1      47.476   5.203  14.926  0.00  0.00    +0.000 A 
ATOM      2  C   UNL     1      47.948   6.298  14.211  0.00  0.00    +0.000 A 
ATOM      3  C   UNL     1      47.391   6.578  12.965  0.00  0.00    +0.000 A 
ATOM      4  C   UNL     1      46.354   5.786  12.469  0.00  0.00    +0.000 A 
ATOM      5  N   UNL     1      45.805   6.153  11.240  0.00  0.00    +0.000 N 
ATOM      6  N   UNL     1      45.888   4.725  13.153  0.00  0.00    +0.000 NA
ATOM      7  C   UNL     1      46.470   4.441  14.348  0.00  0.00    +0.000 A 
ATOM      8  H   UNL     1      46.506   6.061  10.511  0.00  0.00    +0.000 HD
ENDROOT
BRANCH   1  10
ATOM      9  N   UNL     1      47.504   5.446  17.345  0.00  0.00    +0.000 N 
ATOM     10  C   UNL     1      48.012   4.810  16.245  0.00  0.00    +0.000 C 
ATOM     11  O   UNL     1      48.855   3.931  16.356  0.00  0.00    +0.000 OA
ATOM     12  H   UNL     1      47.806   5.092  18.246  0.00  0.00    +0.000 HD
ATOM     13  H   UNL     1      46.648   5.981  17.323  0.00  0.00    +0.000 HD
ENDBRANCH   1  10
BRANCH   5  14
ATOM     14  C   UNL     1      44.545   5.522  10.860  0.00  0.00    +0.000 C 
BRANCH  14  15
ATOM     15  C   UNL     1      44.862   4.376   9.916  0.00  0.00    +0.000 A 
ATOM     16  C   UNL     1      45.638   4.652   8.768  0.00  0.00    +0.000 A 
ATOM     17  C   UNL     1      45.970   3.652   7.854  0.00  0.00    +0.000 A 
ATOM     18  C   UNL     1      45.518   2.355   8.056  0.00  0.00    +0.000 A 
ATOM     19  C   UNL     1      44.735   2.063   9.174  0.00  0.00    +0.000 A 
ATOM     20  C   UNL     1      44.403   3.064  10.097  0.00  0.00    +0.000 A 
ATOM     21 CL   UNL     1      43.422   2.605  11.441  0.00  0.00    +0.000 Cl
ENDBRANCH  14  15
ENDBRANCH   5  14
TORSDOF 3
ENDMDL
MODEL 5
REMARK VINA RESULT:    -6.060      3.841      5.227
REMARK INTER + INTRA:          -7.550
REMARK INTER:                  -7.230
REMARK INTRA:                  -0.321
REMARK UNBOUND:                -0.428
REMARK  Name = 
REMARK  3 active torsions:
REMARK  status: ('A' for Active; 'I' for Inactive)
REMARK    1  A    between atoms: C_2  and  C_4
REMARK    2  A    between atoms: N_8  and  C_9
REMARK    3  A    between atoms: C_9  and  C_10
REMARK                            x       y       z     vdW  Elec       q    Type
REMARK                         _______ _______ _______ _____ _____    ______ ____
ROOT
ATOM      1  C   UNL     1      45.055   4.068  10.923  0.00  0.00    +0.000 A 
ATOM      2  C   UNL     1      45.523   5.375  10.997  0.00  0.00    +0.000 A 
ATOM      3  C   UNL     1      46.053   5.831  12.203  0.00  0.00    +0.000 A 
ATOM      4  C   UNL     1      46.137   4.972  13.299  0.00  0.00    +0.000 A 
ATOM      5  N   UNL     1      46.727   5.475  14.459  0.00  0.00    +0.000 N 
ATOM      6  N   UNL     1      45.689   3.704  13.238  0.00  0.00    +0.000 NA
ATOM      7  C   UNL     1      45.138   3.287  12.067  0.00  0.00    +0.000 A 
ATOM      8  H   UNL     1      46.160   6.232  14.830  0.00  0.00    +0.000 HD
ENDROOT
BRANCH   1  10
ATOM      9  N   UNL     1      44.010   4.371   8.749  0.00  0.00    +0.000 N 
ATOM     10  C   UNL     1      44.459   3.495   9.699  0.00  0.00    +0.000 C 
ATOM     11  O   UNL     1      44.396   2.286   9.525  0.00  0.00    +0.000 OA
ATOM     12  H   UNL     1      43.701   3.961   7.874  0.00  0.00    +0.000 HD
ATOM     13  H   UNL     1      44.267   5.347   8.736  0.00  0.00    +0.000 HD
ENDBRANCH   1  10
BRANCH   5  14
ATOM     14  C   UNL     1      47.085   4.511  15.495  0.00  0.00    +0.000 C 
BRANCH  14  15
ATOM     15  C   UNL     1      48.236   5.092  16.296  0.00  0.00    +0.000 A 
ATOM     16  C   UNL     1      48.811   6.305  15.856  0.00  0.00    +0.000 A 
ATOM     17  C   UNL     1      49.872   6.899  16.540  0.00  0.00    +0.000 A 
ATOM     18  C   UNL     1      50.396   6.285  17.669  0.00  0.00    +0.000 A 
ATOM     19  C   UNL     1      49.855   5.076  18.112  0.00  0.00    +0.000 A 
ATOM     20  C   UNL     1      48.787   4.479  17.430  0.00  0.00    +0.000 A 
ATOM     21 CL   UNL     1      48.195   2.980  18.050  0.00  0.00    +0.000 Cl
ENDBRANCH  14  15
ENDBRANCH   5  14
TORSDOF 3
ENDMDL
MODEL 6
REMARK VINA RESULT:    -5.821      5.801      8.228
REMARK INTER + INTRA:          -7.270
REMARK INTER:                  -7.002
REMARK INTRA:                  -0.268
REMARK UNBOUND:                -0.428
REMARK  Name = 
REMARK  3 active torsions:
REMARK  status: ('A' for Active; 'I' for Inactive)
REMARK    1  A    between atoms: C_2  and  C_4
REMARK    2  A    between atoms: N_8  and  C_9
REMARK    3  A    between atoms: C_9  and  C_10
REMARK                            x       y       z     vdW  Elec       q    Type
REMARK                         _______ _______ _______ _____ _____    ______ ____
ROOT
ATOM      1  C   UNL     1      49.226   4.491  18.044  0.00  0.00    +0.000 A 
ATOM      2  C   UNL     1      48.390   3.380  18.011  0.00  0.00    +0.000 A 
ATOM      3  C   UNL     1      47.496   3.244  16.950  0.00  0.00    +0.000 A 
ATOM      4  C   UNL     1      47.474   4.194  15.928  0.00  0.00    +0.000 A 
ATOM      5  N   UNL     1      46.594   3.969  14.869  0.00  0.00    +0.000 N 
ATOM      6  N   UNL     1      48.280   5.272  15.948  0.00  0.00    +0.000 NA
ATOM      7  C   UNL     1      49.117   5.412  17.011  0.00  0.00    +0.000 A 
ATOM      8  H   UNL     1      45.637   4.003  15.207  0.00  0.00    +0.000 HD
ENDROOT
BRANCH   1  10
ATOM      9  N   UNL     1      49.804   4.418  20.404  0.00  0.00    +0.000 N 
ATOM     10  C   UNL     1      50.194   4.738  19.132  0.00  0.00    +0.000 C 
ATOM     11  O   UNL     1      51.310   5.182  18.905  0.00  0.00    +0.000 OA
ATOM     12  H   UNL     1      50.516   4.496  21.123  0.00  0.00    +0.000 HD
ATOM     13  H   UNL     1      49.010   3.827  20.603  0.00  0.00    +0.000 HD
ENDBRANCH   1  10
BRANCH   5  14
ATOM     14  C   UNL     1      46.773   4.785  13.672  0.00  0.00    +0.000 C 
BRANCH  14  15
ATOM     15  C   UNL     1      45.488   4.718  12.864  0.00  0.00    +0.000 A 
ATOM     16  C   UNL     1      44.990   3.446  12.506  0.00  0.00    +0.000 A 
ATOM     17  C   UNL     1      43.817   3.304  11.765  0.00  0.00    +0.000 A 
ATOM     18  C   UNL     1      43.123   4.432  11.349  0.00  0.00    +0.000 A 
ATOM     19  C   UNL     1      43.607   5.701  11.676  0.00  0.00    +0.000 A 
ATOM     20  C   UNL     1      44.783   5.846  12.424  0.00  0.00    +0.000 A 
ATOM     21 CL   UNL     1      45.304   7.456  12.769  0.00  0.00    +0.000 Cl
ENDBRANCH  14  15
ENDBRANCH   5  14
TORSDOF 3
ENDMDL
MODEL 7
REMARK VINA RESULT:    -5.720      3.389      4.832
REMARK INTER + INTRA:          -7.151
REMARK INTER:                  -6.752
REMARK INTRA:                  -0.399
REMARK UNBOUND:                -0.428
REMARK  Name = 
REMARK  3 active torsions:
REMARK  status: ('A' for Active; 'I' for Inactive)
REMARK    1  A    between atoms: C_2  and  C_4
REMARK    2  A    between atoms: N_8  and  C_9
REMARK    3  A    between atoms: C_9  and  C_10
REMARK                            x       y       z     vdW  Elec       q    Type
REMARK                         _______ _______ _______ _____ _____    ______ ____
ROOT
ATOM      1  C   UNL     1      44.135   4.287  11.481  0.00  0.00    +0.000 A 
ATOM      2  C   UNL     1      43.488   5.379  10.914  0.00  0.00    +0.000 A 
ATOM      3  C   UNL     1      43.826   6.660  11.348  0.00  0.00    +0.000 A 
ATOM      4  C   UNL     1      44.821   6.832  12.312  0.00  0.00    +0.000 A 
ATOM      5  N   UNL     1      45.148   8.142  12.662  0.00  0.00    +0.000 N 
ATOM      6  N   UNL     1      45.455   5.783  12.866  0.00  0.00    +0.000 NA
ATOM      7  C   UNL     1      45.085   4.538  12.461  0.00  0.00    +0.000 A 
ATOM      8  H   UNL     1      44.349   8.587  13.104  0.00  0.00    +0.000 HD
ENDROOT
BRANCH   1  10
ATOM      9  N   UNL     1      44.610   2.323  10.129  0.00  0.00    +0.000 N 
ATOM     10  C   UNL     1      43.837   2.890  11.105  0.00  0.00    +0.000 C 
ATOM     11  O   UNL     1      42.956   2.252  11.665  0.00  0.00    +0.000 OA
ATOM     12  H   UNL     1      44.461   1.335   9.958  0.00  0.00    +0.000 HD
ATOM     13  H   UNL     1      45.490   2.716   9.828  0.00  0.00    +0.000 HD
ENDBRANCH   1  10
BRANCH   5  14
ATOM     14  C   UNL     1      46.371   8.338  13.434  0.00  0.00    +0.000 C 
BRANCH  14  15
ATOM     15  C   UNL     1      47.352   9.107  12.567  0.00  0.00    +0.000 A 
ATOM     16  C   UNL     1      46.972  10.383  12.098  0.00  0.00    +0.000 A 
ATOM     17  C   UNL     1      47.819  11.148  11.296  0.00  0.00    +0.000 A 
ATOM     18  C   UNL     1      49.061  10.647  10.929  0.00  0.00    +0.000 A 
ATOM     19  C   UNL     1      49.451   9.379  11.366  0.00  0.00    +0.000 A 
ATOM     20  C   UNL     1      48.603   8.610  12.175  0.00  0.00    +0.000 A 
ATOM     21 CL   UNL     1      49.172   7.052  12.656  0.00  0.00    +0.000 Cl
ENDBRANCH  14  15
ENDBRANCH   5  14
TORSDOF 3
ENDMDL
MODEL 8
REMARK VINA RESULT:    -5.627      3.690      5.342
REMARK INTER + INTRA:          -7.042
REMARK INTER:                  -6.696
REMARK INTRA:                  -0.346
REMARK UNBOUND:                -0.428
REMARK  Name = 
REMARK  3 active torsions:
REMARK  status: ('A' for Active; 'I' for Inactive)
REMARK    1  A    between atoms: C_2  and  C_4
REMARK    2  A    between atoms: N_8  and  C_9
REMARK    3  A    between atoms: C_9  and  C_10
REMARK                            x       y       z     vdW  Elec       q    Type
REMARK                         _______ _______ _______ _____ _____    ______ ____
ROOT
ATOM      1  C   UNL     1      44.668   4.151  11.713  0.00  0.00    +0.000 A 
ATOM      2  C   UNL     1      45.490   3.982  12.823  0.00  0.00    +0.000 A 
ATOM      3  C   UNL     1      46.103   5.102  13.381  0.00  0.00    +0.000 A 
ATOM      4  C   UNL     1      45.863   6.370  12.848  0.00  0.00    +0.000 A 
ATOM      5  N   UNL     1      46.465   7.454  13.488  0.00  0.00    +0.000 N 
ATOM      6  N   UNL     1      45.067   6.545  11.777  0.00  0.00    +0.000 NA
ATOM      7  C   UNL     1      44.510   5.438  11.218  0.00  0.00    +0.000 A 
ATOM      8  H   UNL     1      47.474   7.381  13.406  0.00  0.00    +0.000 HD
ENDROOT
BRANCH   1  10
ATOM      9  N   UNL     1      43.452   2.049  11.828  0.00  0.00    +0.000 N 
ATOM     10  C   UNL     1      43.988   3.028  11.037  0.00  0.00    +0.000 C 
ATOM     11  O   UNL     1      43.880   2.987   9.819  0.00  0.00    +0.000 OA
ATOM     12  H   UNL     1      42.900   1.343  11.354  0.00  0.00    +0.000 HD
ATOM     13  H   UNL     1      43.298   2.168  12.819  0.00  0.00    +0.000 HD
ENDBRANCH   1  10
BRANCH   5  14
ATOM     14  C   UNL     1      45.988   8.786  13.127  0.00  0.00    +0.000 C 
BRANCH  14  15
ATOM     15  C   UNL     1      47.090   9.480  12.347  0.00  0.00    +0.000 A 
ATOM     16  C   UNL     1      48.376   8.897  12.343  0.00  0.00    +0.000 A 
ATOM     17  C   UNL     1      49.438   9.477  11.650  0.00  0.00    +0.000 A 
ATOM     18  C   UNL     1      49.244  10.665  10.958  0.00  0.00    +0.000 A 
ATOM     19  C   UNL     1      47.986  11.270  10.963  0.00  0.00    +0.000 A 
ATOM     20  C   UNL     1      46.915  10.687  11.655  0.00  0.00    +0.000 A 
ATOM     21 CL   UNL     1      45.401  11.516  11.609  0.00  0.00    +0.000 Cl
ENDBRANCH  14  15
ENDBRANCH   5  14
TORSDOF 3
ENDMDL
MODEL 9
REMARK VINA RESULT:    -5.436      3.484      5.020
REMARK INTER + INTRA:          -6.818
REMARK INTER:                  -6.454
REMARK INTRA:                  -0.364
REMARK UNBOUND:                -0.428
REMARK  Name = 
REMARK  3 active torsions:
REMARK  status: ('A' for Active; 'I' for Inactive)
REMARK    1  A    between atoms: C_2  and  C_4
REMARK    2  A    between atoms: N_8  and  C_9
REMARK    3  A    between atoms: C_9  and  C_10
REMARK                            x       y       z     vdW  Elec       q    Type
REMARK                         _______ _______ _______ _____ _____    ______ ____
ROOT
ATOM      1  C   UNL     1      44.935   4.280  10.841  0.00  0.00    +0.000 A 
ATOM      2  C   UNL     1      45.073   3.831  12.149  0.00  0.00    +0.000 A 
ATOM      3  C   UNL     1      45.738   4.640  13.070  0.00  0.00    +0.000 A 
ATOM      4  C   UNL     1      46.221   5.890  12.682  0.00  0.00    +0.000 A 
ATOM      5  N   UNL     1      46.828   6.671  13.666  0.00  0.00    +0.000 N 
ATOM      6  N   UNL     1      46.090   6.336  11.419  0.00  0.00    +0.000 NA
ATOM      7  C   UNL     1      45.476   5.518  10.523  0.00  0.00    +0.000 A 
ATOM      8  H   UNL     1      47.673   6.213  13.993  0.00  0.00    +0.000 HD
ENDROOT
BRANCH   1  10
ATOM      9  N   UNL     1      44.154   4.065   8.549  0.00  0.00    +0.000 N 
ATOM     10  C   UNL     1      44.265   3.493   9.786  0.00  0.00    +0.000 C 
ATOM     11  O   UNL     1      43.854   2.361   9.999  0.00  0.00    +0.000 OA
ATOM     12  H   UNL     1      43.787   3.472   7.812  0.00  0.00    +0.000 HD
ATOM     13  H   UNL     1      44.691   4.872   8.267  0.00  0.00    +0.000 HD
ENDBRANCH   1  10
BRANCH   5  14
ATOM     14  C   UNL     1      47.065   8.076  13.347  0.00  0.00    +0.000 C 
BRANCH  14  15
ATOM     15  C   UNL     1      48.554   8.257  13.113  0.00  0.00    +0.000 A 
ATOM     16  C   UNL     1      49.024   8.270  11.782  0.00  0.00    +0.000 A 
ATOM     17  C   UNL     1      50.379   8.431  11.488  0.00  0.00    +0.000 A 
ATOM     18  C   UNL     1      51.297   8.565  12.520  0.00  0.00    +0.000 A 
ATOM     19  C   UNL     1      50.857   8.538  13.845  0.00  0.00    +0.000 A 
ATOM     20  C   UNL     1      49.497   8.380  14.143  0.00  0.00    +0.000 A 
ATOM     21 CL   UNL     1      49.053   8.349  15.812  0.00  0.00    +0.000 Cl
ENDBRANCH  14  15
ENDBRANCH   5  14
TORSDOF 3
ENDMDL
