MODEL 1
REMARK VINA RESULT:    -8.130      0.000      0.000
REMARK INTER + INTRA:         -11.241
REMARK INTER:                 -10.506
REMARK INTRA:                  -0.735
REMARK UNBOUND:                -0.735
REMARK  Name = 
REMARK  5 active torsions:
REMARK  status: ('A' for Active; 'I' for Inactive)
REMARK    1  A    between atoms: C_2  and  C_3
REMARK    2  A    between atoms: C_6  and  N_7
REMARK    3  A    between atoms: N_7  and  C_8
REMARK    4  A    between atoms: C_8  and  C_9
REMARK    5  A    between atoms: C_13  and  C_14
REMARK                            x       y       z     vdW  Elec       q    Type
REMARK                         _______ _______ _______ _____ _____    ______ ____
ROOT
ATOM      1  C   UNL     1      44.194   4.436  11.681  0.00  0.00    +0.000 C 
ATOM      2  C   UNL     1      43.347   3.356  12.329  0.00  0.00    +0.000 C 
ATOM      3  C   UNL     1      43.015   4.783  12.591  0.00  0.00    +0.000 C 
ENDROOT
BRANCH   1   4
ATOM      4  C   UNL     1      45.508   4.952  12.268  0.00  0.00    +0.000 A 
ATOM      5  C   UNL     1      46.170   4.311  13.323  0.00  0.00    +0.000 A 
ATOM      6  C   UNL     1      47.279   4.894  13.931  0.00  0.00    +0.000 A 
ATOM      7  C   UNL     1      47.732   6.147  13.511  0.00  0.00    +0.000 A 
ATOM      8  C   UNL     1      47.101   6.844  12.468  0.00  0.00    +0.000 A 
ATOM      9  C   UNL     1      46.027   6.194  11.832  0.00  0.00    +0.000 A 
BRANCH   8  10
ATOM     10  C   UNL     1      47.486   8.239  12.129  0.00  0.00    +0.000 A 
ATOM     11  C   UNL     1      48.788   8.592  11.734  0.00  0.00    +0.000 A 
ATOM     12  C   UNL     1      49.114   9.912  11.392  0.00  0.00    +0.000 A 
ATOM     13  C   UNL     1      48.149  10.912  11.454  0.00  0.00    +0.000 A 
ATOM     14  C   UNL     1      46.851  10.591  11.831  0.00  0.00    +0.000 A 
ATOM     15  C   UNL     1      46.524   9.269  12.148  0.00  0.00    +0.000 A 
ENDBRANCH   8  10
ENDBRANCH   1   4
BRANCH   1  16
ATOM     16  N   UNL     1      44.080   4.591  10.227  0.00  0.00    +0.000 N 
ATOM     17  H   UNL     1      43.252   5.038   9.846  0.00  0.00    +0.000 HD
BRANCH  16  21
ATOM     18  C   UNL     1      46.621   2.722   7.558  0.00  0.00    +0.000 A 
ATOM     19  N   UNL     1      45.927   1.920   8.389  0.00  0.00    +0.000 NA
ATOM     20  C   UNL     1      45.096   2.551   9.253  0.00  0.00    +0.000 A 
ATOM     21  C   UNL     1      44.892   3.920   9.305  0.00  0.00    +0.000 A 
ATOM     22  C   UNL     1      45.687   4.619   8.409  0.00  0.00    +0.000 A 
ATOM     23  N   UNL     1      46.541   4.062   7.525  0.00  0.00    +0.000 NA
BRANCH  18  25
ATOM     24  N   UNL     1      48.279   1.587   5.898  0.00  0.00    +0.000 NA
ATOM     25  C   UNL     1      47.531   2.095   6.640  0.00  0.00    +0.000 C 
ENDBRANCH  18  25
ENDBRANCH  16  21
ENDBRANCH   1  16
TORSDOF 5
ENDMDL
MODEL 2
REMARK VINA RESULT:    -8.042      1.586      3.738
REMARK INTER + INTRA:         -11.128
REMARK INTER:                 -10.703
REMARK INTRA:                  -0.425
REMARK UNBOUND:                -0.735
REMARK  Name = 
REMARK  5 active torsions:
REMARK  status: ('A' for Active; 'I' for Inactive)
REMARK    1  A    between atoms: C_2  and  C_3
REMARK    2  A    between atoms: C_6  and  N_7
REMARK    3  A    between atoms: N_7  and  C_8
REMARK    4  A    between atoms: C_8  and  C_9
REMARK    5  A    between atoms: C_13  and  C_14
REMARK                            x       y       z     vdW  Elec       q    Type
REMARK                         _______ _______ _______ _____ _____    ______ ____
ROOT
ATOM      1  C   UNL     1      44.114   4.682  11.568  0.00  0.00    +0.000 C 
ATOM      2  C   UNL     1      43.414   3.546  12.292  0.00  0.00    +0.000 C 
ATOM      3  C   UNL     1      42.886   4.928  12.446  0.00  0.00    +0.000 C 
ENDROOT
BRANCH   1   4
ATOM      4  C   UNL     1      45.336   5.417  12.119  0.00  0.00    +0.000 A 
ATOM      5  C   UNL     1      46.066   6.344  11.364  0.00  0.00    +0.000 A 
ATOM      6  C   UNL     1      47.260   6.875  11.845  0.00  0.00    +0.000 A 
ATOM      7  C   UNL     1      47.761   6.469  13.083  0.00  0.00    +0.000 A 
ATOM      8  C   UNL     1      47.081   5.531  13.879  0.00  0.00    +0.000 A 
ATOM      9  C   UNL     1      45.845   5.068  13.392  0.00  0.00    +0.000 A 
BRANCH   8  10
ATOM     10  C   UNL     1      47.691   4.985  15.118  0.00  0.00    +0.000 A 
ATOM     11  C   UNL     1      48.541   5.742  15.943  0.00  0.00    +0.000 A 
ATOM     12  C   UNL     1      49.080   5.208  17.123  0.00  0.00    +0.000 A 
ATOM     13  C   UNL     1      48.793   3.899  17.495  0.00  0.00    +0.000 A 
ATOM     14  C   UNL     1      47.946   3.130  16.705  0.00  0.00    +0.000 A 
ATOM     15  C   UNL     1      47.394   3.674  15.542  0.00  0.00    +0.000 A 
ENDBRANCH   8  10
ENDBRANCH   1   4
BRANCH   1  16
ATOM     16  N   UNL     1      43.998   4.713  10.106  0.00  0.00    +0.000 N 
ATOM     17  H   UNL     1      43.156   5.098   9.689  0.00  0.00    +0.000 HD
BRANCH  16  21
ATOM     18  C   UNL     1      46.611   2.713   7.607  0.00  0.00    +0.000 A 
ATOM     19  N   UNL     1      45.906   1.955   8.468  0.00  0.00    +0.000 NA
ATOM     20  C   UNL     1      45.050   2.628   9.275  0.00  0.00    +0.000 A 
ATOM     21  C   UNL     1      44.835   3.995   9.242  0.00  0.00    +0.000 A 
ATOM     22  C   UNL     1      45.644   4.648   8.324  0.00  0.00    +0.000 A 
ATOM     23  N   UNL     1      46.522   4.048   7.493  0.00  0.00    +0.000 NA
BRANCH  18  25
ATOM     24  N   UNL     1      48.314   1.501   6.049  0.00  0.00    +0.000 NA
ATOM     25  C   UNL     1      47.547   2.042   6.746  0.00  0.00    +0.000 C 
ENDBRANCH  18  25
ENDBRANCH  16  21
ENDBRANCH   1  16
TORSDOF 5
ENDMDL
MODEL 3
REMARK VINA RESULT:    -7.637      3.108      7.020
REMARK INTER + INTRA:         -10.604
REMARK INTER:                 -10.563
REMARK INTRA:                  -0.041
REMARK UNBOUND:                -0.735
REMARK  Name = 
REMARK  5 active torsions:
REMARK  status: ('A' for Active; 'I' for Inactive)
REMARK    1  A    between atoms: C_2  and  C_3
REMARK    2  A    between atoms: C_6  and  N_7
REMARK    3  A    between atoms: N_7  and  C_8
REMARK    4  A    between atoms: C_8  and  C_9
REMARK    5  A    between atoms: C_13  and  C_14
REMARK                            x       y       z     vdW  Elec       q    Type
REMARK                         _______ _______ _______ _____ _____    ______ ____
ROOT
ATOM      1  C   UNL     1      45.473   6.302  11.701  0.00  0.00    +0.000 C 
ATOM      2  C   UNL     1      44.960   7.706  11.441  0.00  0.00    +0.000 C 
ATOM      3  C   UNL     1      44.411   6.944  12.595  0.00  0.00    +0.000 C 
ENDROOT
BRANCH   1   4
ATOM      4  C   UNL     1      44.924   5.054  11.010  0.00  0.00    +0.000 A 
ATOM      5  C   UNL     1      43.963   4.223  11.599  0.00  0.00    +0.000 A 
ATOM      6  C   UNL     1      43.603   3.015  11.007  0.00  0.00    +0.000 A 
ATOM      7  C   UNL     1      44.219   2.602   9.824  0.00  0.00    +0.000 A 
ATOM      8  C   UNL     1      45.200   3.385   9.195  0.00  0.00    +0.000 A 
ATOM      9  C   UNL     1      45.489   4.630   9.784  0.00  0.00    +0.000 A 
BRANCH   8  10
ATOM     10  C   UNL     1      45.963   2.874   8.026  0.00  0.00    +0.000 A 
ATOM     11  C   UNL     1      46.281   3.677   6.917  0.00  0.00    +0.000 A 
ATOM     12  C   UNL     1      47.027   3.174   5.841  0.00  0.00    +0.000 A 
ATOM     13  C   UNL     1      47.458   1.851   5.844  0.00  0.00    +0.000 A 
ATOM     14  C   UNL     1      47.167   1.037   6.932  0.00  0.00    +0.000 A 
ATOM     15  C   UNL     1      46.443   1.549   8.012  0.00  0.00    +0.000 A 
ENDBRANCH   8  10
ENDBRANCH   1   4
BRANCH   1  16
ATOM     16  N   UNL     1      46.858   6.174  12.170  0.00  0.00    +0.000 N 
ATOM     17  H   UNL     1      47.614   6.393  11.530  0.00  0.00    +0.000 HD
BRANCH  16  21
ATOM     18  C   UNL     1      47.867   4.343  15.734  0.00  0.00    +0.000 A 
ATOM     19  N   UNL     1      47.180   3.595  14.848  0.00  0.00    +0.000 NA
ATOM     20  C   UNL     1      46.863   4.211  13.684  0.00  0.00    +0.000 A 
ATOM     21  C   UNL     1      47.224   5.505  13.344  0.00  0.00    +0.000 A 
ATOM     22  C   UNL     1      47.908   6.160  14.358  0.00  0.00    +0.000 A 
ATOM     23  N   UNL     1      48.253   5.615  15.544  0.00  0.00    +0.000 NA
BRANCH  18  25
ATOM     24  N   UNL     1      48.476   3.247  18.019  0.00  0.00    +0.000 NA
ATOM     25  C   UNL     1      48.206   3.735  16.991  0.00  0.00    +0.000 C 
ENDBRANCH  18  25
ENDBRANCH  16  21
ENDBRANCH   1  16
TORSDOF 5
ENDMDL
MODEL 4
REMARK VINA RESULT:    -7.617      1.288      2.190
REMARK INTER + INTRA:         -10.578
REMARK INTER:                  -9.816
REMARK INTRA:                  -0.762
REMARK UNBOUND:                -0.735
REMARK  Name = 
REMARK  5 active torsions:
REMARK  status: ('A' for Active; 'I' for Inactive)
REMARK    1  A    between atoms: C_2  and  C_3
REMARK    2  A    between atoms: C_6  and  N_7
REMARK    3  A    between atoms: N_7  and  C_8
REMARK    4  A    between atoms: C_8  and  C_9
REMARK    5  A    between atoms: C_13  and  C_14
REMARK                            x       y       z     vdW  Elec       q    Type
REMARK                         _______ _______ _______ _____ _____    ______ ____
ROOT
ATOM      1  C   UNL     1      44.288   4.347  11.624  0.00  0.00    +0.000 C 
ATOM      2  C   UNL     1      44.739   3.217  12.530  0.00  0.00    +0.000 C 
ATOM      3  C   UNL     1      43.447   3.895  12.818  0.00  0.00    +0.000 C 
ENDROOT
BRANCH   1   4
ATOM      4  C   UNL     1      44.735   5.800  11.788  0.00  0.00    +0.000 A 
ATOM      5  C   UNL     1      43.948   6.885  11.382  0.00  0.00    +0.000 A 
ATOM      6  C   UNL     1      44.453   8.183  11.406  0.00  0.00    +0.000 A 
ATOM      7  C   UNL     1      45.768   8.417  11.815  0.00  0.00    +0.000 A 
ATOM      8  C   UNL     1      46.609   7.368  12.219  0.00  0.00    +0.000 A 
ATOM      9  C   UNL     1      46.044   6.080  12.247  0.00  0.00    +0.000 A 
BRANCH   8  10
ATOM     10  C   UNL     1      48.049   7.600  12.502  0.00  0.00    +0.000 A 
ATOM     11  C   UNL     1      48.978   7.923  11.498  0.00  0.00    +0.000 A 
ATOM     12  C   UNL     1      50.326   8.164  11.800  0.00  0.00    +0.000 A 
ATOM     13  C   UNL     1      50.779   8.070  13.112  0.00  0.00    +0.000 A 
ATOM     14  C   UNL     1      49.881   7.764  14.127  0.00  0.00    +0.000 A 
ATOM     15  C   UNL     1      48.534   7.547  13.825  0.00  0.00    +0.000 A 
ENDBRANCH   8  10
ENDBRANCH   1   4
BRANCH   1  16
ATOM     16  N   UNL     1      43.890   3.988  10.258  0.00  0.00    +0.000 N 
ATOM     17  H   UNL     1      42.901   3.922  10.038  0.00  0.00    +0.000 HD
BRANCH  16  21
ATOM     18  C   UNL     1      46.607   2.542   7.503  0.00  0.00    +0.000 A 
ATOM     19  N   UNL     1      46.016   1.629   8.299  0.00  0.00    +0.000 NA
ATOM     20  C   UNL     1      45.125   2.122   9.192  0.00  0.00    +0.000 A 
ATOM     21  C   UNL     1      44.766   3.455   9.305  0.00  0.00    +0.000 A 
ATOM     22  C   UNL     1      45.469   4.280   8.439  0.00  0.00    +0.000 A 
ATOM     23  N   UNL     1      46.375   3.864   7.529  0.00  0.00    +0.000 NA
BRANCH  18  25
ATOM     24  N   UNL     1      48.371   1.675   5.790  0.00  0.00    +0.000 NA
ATOM     25  C   UNL     1      47.577   2.064   6.555  0.00  0.00    +0.000 C 
ENDBRANCH  18  25
ENDBRANCH  16  21
ENDBRANCH   1  16
TORSDOF 5
ENDMDL
MODEL 5
REMARK VINA RESULT:    -6.657      3.437      7.175
REMARK INTER + INTRA:          -9.338
REMARK INTER:                  -9.123
REMARK INTRA:                  -0.214
REMARK UNBOUND:                -0.735
REMARK  Name = 
REMARK  5 active torsions:
REMARK  status: ('A' for Active; 'I' for Inactive)
REMARK    1  A    between atoms: C_2  and  C_3
REMARK    2  A    between atoms: C_6  and  N_7
REMARK    3  A    between atoms: N_7  and  C_8
REMARK    4  A    between atoms: C_8  and  C_9
REMARK    5  A    between atoms: C_13  and  C_14
REMARK                            x       y       z     vdW  Elec       q    Type
REMARK                         _______ _______ _______ _____ _____    ______ ____
ROOT
ATOM      1  C   UNL     1      48.714   7.968  12.515  0.00  0.00    +0.000 C 
ATOM      2  C   UNL     1      49.927   7.706  11.641  0.00  0.00    +0.000 C 
ATOM      3  C   UNL     1      49.409   9.096  11.751  0.00  0.00    +0.000 C 
ENDROOT
BRANCH   1   4
ATOM      4  C   UNL     1      47.271   7.796  12.041  0.00  0.00    +0.000 A 
ATOM      5  C   UNL     1      46.226   8.617  12.481  0.00  0.00    +0.000 A 
ATOM      6  C   UNL     1      44.903   8.333  12.148  0.00  0.00    +0.000 A 
ATOM      7  C   UNL     1      44.599   7.203  11.386  0.00  0.00    +0.000 A 
ATOM      8  C   UNL     1      45.603   6.334  10.928  0.00  0.00    +0.000 A 
ATOM      9  C   UNL     1      46.931   6.690  11.226  0.00  0.00    +0.000 A 
BRANCH   8  10
ATOM     10  C   UNL     1      45.266   5.053  10.254  0.00  0.00    +0.000 A 
ATOM     11  C   UNL     1      44.516   4.041  10.878  0.00  0.00    +0.000 A 
ATOM     12  C   UNL     1      44.189   2.854  10.206  0.00  0.00    +0.000 A 
ATOM     13  C   UNL     1      44.619   2.647   8.900  0.00  0.00    +0.000 A 
ATOM     14  C   UNL     1      45.352   3.635   8.253  0.00  0.00    +0.000 A 
ATOM     15  C   UNL     1      45.656   4.825   8.919  0.00  0.00    +0.000 A 
ENDBRANCH   8  10
ENDBRANCH   1   4
BRANCH   1  16
ATOM     16  N   UNL     1      48.895   7.832  13.964  0.00  0.00    +0.000 N 
ATOM     17  H   UNL     1      49.508   8.483  14.445  0.00  0.00    +0.000 HD
BRANCH  16  21
ATOM     18  C   UNL     1      47.684   4.614  16.255  0.00  0.00    +0.000 A 
ATOM     19  N   UNL     1      47.300   4.610  14.964  0.00  0.00    +0.000 NA
ATOM     20  C   UNL     1      47.711   5.671  14.228  0.00  0.00    +0.000 A 
ATOM     21  C   UNL     1      48.508   6.703  14.695  0.00  0.00    +0.000 A 
ATOM     22  C   UNL     1      48.808   6.586  16.044  0.00  0.00    +0.000 A 
ATOM     23  N   UNL     1      48.430   5.565  16.842  0.00  0.00    +0.000 NA
BRANCH  18  25
ATOM     24  N   UNL     1      46.897   2.632  17.754  0.00  0.00    +0.000 NA
ATOM     25  C   UNL     1      47.252   3.518  17.078  0.00  0.00    +0.000 C 
ENDBRANCH  18  25
ENDBRANCH  16  21
ENDBRANCH   1  16
TORSDOF 5
ENDMDL
MODEL 6
REMARK VINA RESULT:    -6.347      3.224      7.036
REMARK INTER + INTRA:          -8.937
REMARK INTER:                  -8.809
REMARK INTRA:                  -0.128
REMARK UNBOUND:                -0.735
REMARK  Name = 
REMARK  5 active torsions:
REMARK  status: ('A' for Active; 'I' for Inactive)
REMARK    1  A    between atoms: C_2  and  C_3
REMARK    2  A    between atoms: C_6  and  N_7
REMARK    3  A    between atoms: N_7  and  C_8
REMARK    4  A    between atoms: C_8  and  C_9
REMARK    5  A    between atoms: C_13  and  C_14
REMARK                            x       y       z     vdW  Elec       q    Type
REMARK                         _______ _______ _______ _____ _____    ______ ____
ROOT
ATOM      1  C   UNL     1      45.917   7.903  12.020  0.00  0.00    +0.000 C 
ATOM      2  C   UNL     1      45.590   9.317  11.580  0.00  0.00    +0.000 C 
ATOM      3  C   UNL     1      45.102   8.847  12.904  0.00  0.00    +0.000 C 
ENDROOT
BRANCH   1   4
ATOM      4  C   UNL     1      45.093   6.677  11.624  0.00  0.00    +0.000 A 
ATOM      5  C   UNL     1      44.041   6.187  12.408  0.00  0.00    +0.000 A 
ATOM      6  C   UNL     1      43.417   4.982  12.094  0.00  0.00    +0.000 A 
ATOM      7  C   UNL     1      43.853   4.229  11.002  0.00  0.00    +0.000 A 
ATOM      8  C   UNL     1      44.913   4.662  10.188  0.00  0.00    +0.000 A 
ATOM      9  C   UNL     1      45.473   5.915  10.494  0.00  0.00    +0.000 A 
BRANCH   8  10
ATOM     10  C   UNL     1      45.475   3.789   9.125  0.00  0.00    +0.000 A 
ATOM     11  C   UNL     1      46.163   4.297   8.010  0.00  0.00    +0.000 A 
ATOM     12  C   UNL     1      46.707   3.446   7.037  0.00  0.00    +0.000 A 
ATOM     13  C   UNL     1      46.562   2.067   7.151  0.00  0.00    +0.000 A 
ATOM     14  C   UNL     1      45.897   1.535   8.249  0.00  0.00    +0.000 A 
ATOM     15  C   UNL     1      45.376   2.386   9.227  0.00  0.00    +0.000 A 
ENDBRANCH   8  10
ENDBRANCH   1   4
BRANCH   1  16
ATOM     16  N   UNL     1      47.319   7.611  12.341  0.00  0.00    +0.000 N 
ATOM     17  H   UNL     1      48.018   7.706  11.612  0.00  0.00    +0.000 HD
BRANCH  16  21
ATOM     18  C   UNL     1      48.451   5.773  15.863  0.00  0.00    +0.000 A 
ATOM     19  N   UNL     1      47.805   5.004  14.966  0.00  0.00    +0.000 NA
ATOM     20  C   UNL     1      47.446   5.623  13.816  0.00  0.00    +0.000 A 
ATOM     21  C   UNL     1      47.729   6.941  13.500  0.00  0.00    +0.000 A 
ATOM     22  C   UNL     1      48.379   7.615  14.523  0.00  0.00    +0.000 A 
ATOM     23  N   UNL     1      48.761   7.069  15.697  0.00  0.00    +0.000 NA
BRANCH  18  25
ATOM     24  N   UNL     1      49.142   4.672  18.123  0.00  0.00    +0.000 NA
ATOM     25  C   UNL     1      48.831   5.161  17.108  0.00  0.00    +0.000 C 
ENDBRANCH  18  25
ENDBRANCH  16  21
ENDBRANCH   1  16
TORSDOF 5
ENDMDL
MODEL 7
REMARK VINA RESULT:    -6.251      4.509      7.486
REMARK INTER + INTRA:          -8.813
REMARK INTER:                  -8.190
REMARK INTRA:                  -0.623
REMARK UNBOUND:                -0.735
REMARK  Name = 
REMARK  5 active torsions:
REMARK  status: ('A' for Active; 'I' for Inactive)
REMARK    1  A    between atoms: C_2  and  C_3
REMARK    2  A    between atoms: C_6  and  N_7
REMARK    3  A    between atoms: N_7  and  C_8
REMARK    4  A    between atoms: C_8  and  C_9
REMARK    5  A    between atoms: C_13  and  C_14
REMARK                            x       y       z     vdW  Elec       q    Type
REMARK                         _______ _______ _______ _____ _____    ______ ____
ROOT
ATOM      1  C   UNL     1      48.635   7.783  15.556  0.00  0.00    +0.000 C 
ATOM      2  C   UNL     1      49.720   8.733  16.027  0.00  0.00    +0.000 C 
ATOM      3  C   UNL     1      48.349   9.265  15.802  0.00  0.00    +0.000 C 
ENDROOT
BRANCH   1   4
ATOM      4  C   UNL     1      48.403   7.418  14.089  0.00  0.00    +0.000 A 
ATOM      5  C   UNL     1      49.218   7.890  13.053  0.00  0.00    +0.000 A 
ATOM      6  C   UNL     1      48.884   7.662  11.720  0.00  0.00    +0.000 A 
ATOM      7  C   UNL     1      47.710   6.978  11.398  0.00  0.00    +0.000 A 
ATOM      8  C   UNL     1      46.845   6.494  12.393  0.00  0.00    +0.000 A 
ATOM      9  C   UNL     1      47.249   6.682  13.728  0.00  0.00    +0.000 A 
BRANCH   8  10
ATOM     10  C   UNL     1      45.524   5.907  12.049  0.00  0.00    +0.000 A 
ATOM     11  C   UNL     1      45.251   5.337  10.794  0.00  0.00    +0.000 A 
ATOM     12  C   UNL     1      44.003   4.765  10.507  0.00  0.00    +0.000 A 
ATOM     13  C   UNL     1      42.995   4.765  11.465  0.00  0.00    +0.000 A 
ATOM     14  C   UNL     1      43.239   5.312  12.719  0.00  0.00    +0.000 A 
ATOM     15  C   UNL     1      44.492   5.860  13.008  0.00  0.00    +0.000 A 
ENDBRANCH   8  10
ENDBRANCH   1   4
BRANCH   1  16
ATOM     16  N   UNL     1      48.175   6.770  16.511  0.00  0.00    +0.000 N 
ATOM     17  H   UNL     1      47.437   7.012  17.166  0.00  0.00    +0.000 HD
BRANCH  16  21
ATOM     18  C   UNL     1      50.146   3.194  17.143  0.00  0.00    +0.000 A 
ATOM     19  N   UNL     1      50.883   4.316  17.266  0.00  0.00    +0.000 NA
ATOM     20  C   UNL     1      50.218   5.478  17.060  0.00  0.00    +0.000 A 
ATOM     21  C   UNL     1      48.865   5.582  16.781  0.00  0.00    +0.000 A 
ATOM     22  C   UNL     1      48.241   4.349  16.664  0.00  0.00    +0.000 A 
ATOM     23  N   UNL     1      48.837   3.152  16.847  0.00  0.00    +0.000 NA
BRANCH  18  25
ATOM     24  N   UNL     1      51.372   0.919  17.483  0.00  0.00    +0.000 NA
ATOM     25  C   UNL     1      50.818   1.938  17.332  0.00  0.00    +0.000 C 
ENDBRANCH  18  25
ENDBRANCH  16  21
ENDBRANCH   1  16
TORSDOF 5
ENDMDL
MODEL 8
REMARK VINA RESULT:    -6.164      4.222      7.668
REMARK INTER + INTRA:          -8.701
REMARK INTER:                  -8.025
REMARK INTRA:                  -0.676
REMARK UNBOUND:                -0.735
REMARK  Name = 
REMARK  5 active torsions:
REMARK  status: ('A' for Active; 'I' for Inactive)
REMARK    1  A    between atoms: C_2  and  C_3
REMARK    2  A    between atoms: C_6  and  N_7
REMARK    3  A    between atoms: N_7  and  C_8
REMARK    4  A    between atoms: C_8  and  C_9
REMARK    5  A    between atoms: C_13  and  C_14
REMARK                            x       y       z     vdW  Elec       q    Type
REMARK                         _______ _______ _______ _____ _____    ______ ____
ROOT
ATOM      1  C   UNL     1      48.582   7.938  12.732  0.00  0.00    +0.000 C 
ATOM      2  C   UNL     1      49.816   7.389  12.041  0.00  0.00    +0.000 C 
ATOM      3  C   UNL     1      49.420   8.801  11.788  0.00  0.00    +0.000 C 
ENDROOT
BRANCH   1   4
ATOM      4  C   UNL     1      47.160   7.766  12.197  0.00  0.00    +0.000 A 
ATOM      5  C   UNL     1      46.093   8.573  12.611  0.00  0.00    +0.000 A 
ATOM      6  C   UNL     1      44.786   8.287  12.219  0.00  0.00    +0.000 A 
ATOM      7  C   UNL     1      44.521   7.170  11.425  0.00  0.00    +0.000 A 
ATOM      8  C   UNL     1      45.548   6.315  10.992  0.00  0.00    +0.000 A 
ATOM      9  C   UNL     1      46.860   6.673  11.349  0.00  0.00    +0.000 A 
BRANCH   8  10
ATOM     10  C   UNL     1      45.246   5.045  10.282  0.00  0.00    +0.000 A 
ATOM     11  C   UNL     1      45.645   4.804   8.956  0.00  0.00    +0.000 A 
ATOM     12  C   UNL     1      45.371   3.584   8.321  0.00  0.00    +0.000 A 
ATOM     13  C   UNL     1      44.677   2.584   8.993  0.00  0.00    +0.000 A 
ATOM     14  C   UNL     1      44.279   2.790  10.309  0.00  0.00    +0.000 A 
ATOM     15  C   UNL     1      44.575   3.998  10.946  0.00  0.00    +0.000 A 
ENDBRANCH   8  10
ENDBRANCH   1   4
BRANCH   1  16
ATOM     16  N   UNL     1      48.662   8.134  14.184  0.00  0.00    +0.000 N 
ATOM     17  H   UNL     1      48.493   9.061  14.563  0.00  0.00    +0.000 HD
BRANCH  16  21
ATOM     18  C   UNL     1      50.382   5.539  16.900  0.00  0.00    +0.000 A 
ATOM     19  N   UNL     1      49.123   5.255  16.513  0.00  0.00    +0.000 NA
ATOM     20  C   UNL     1      48.578   6.114  15.618  0.00  0.00    +0.000 A 
ATOM     21  C   UNL     1      49.228   7.206  15.066  0.00  0.00    +0.000 A 
ATOM     22  C   UNL     1      50.506   7.387  15.572  0.00  0.00    +0.000 A 
ATOM     23  N   UNL     1      51.113   6.579  16.467  0.00  0.00    +0.000 NA
BRANCH  18  25
ATOM     24  N   UNL     1      51.494   3.958  18.649  0.00  0.00    +0.000 NA
ATOM     25  C   UNL     1      50.991   4.664  17.864  0.00  0.00    +0.000 C 
ENDBRANCH  18  25
ENDBRANCH  16  21
ENDBRANCH   1  16
TORSDOF 5
ENDMDL
MODEL 9
REMARK VINA RESULT:    -5.704      4.376      7.344
REMARK INTER + INTRA:          -8.106
REMARK INTER:                  -7.465
REMARK INTRA:                  -0.641
REMARK UNBOUND:                -0.735
REMARK  Name = 
REMARK  5 active torsions:
REMARK  status: ('A' for Active; 'I' for Inactive)
REMARK    1  A    between atoms: C_2  and  C_3
REMARK    2  A    between atoms: C_6  and  N_7
REMARK    3  A    between atoms: N_7  and  C_8
REMARK    4  A    between atoms: C_8  and  C_9
REMARK    5  A    between atoms: C_13  and  C_14
REMARK                            x       y       z     vdW  Elec       q    Type
REMARK                         _______ _______ _______ _____ _____    ______ ____
ROOT
ATOM      1  C   UNL     1      48.630   7.459  15.056  0.00  0.00    +0.000 C 
ATOM      2  C   UNL     1      47.918   8.783  14.851  0.00  0.00    +0.000 C 
ATOM      3  C   UNL     1      49.404   8.771  14.925  0.00  0.00    +0.000 C 
ENDROOT
BRANCH   1   4
ATOM      4  C   UNL     1      48.864   6.822  16.426  0.00  0.00    +0.000 A 
ATOM      5  C   UNL     1      48.574   7.481  17.627  0.00  0.00    +0.000 A 
ATOM      6  C   UNL     1      48.943   6.930  18.852  0.00  0.00    +0.000 A 
ATOM      7  C   UNL     1      49.634   5.718  18.896  0.00  0.00    +0.000 A 
ATOM      8  C   UNL     1      49.966   5.017  17.725  0.00  0.00    +0.000 A 
ATOM      9  C   UNL     1      49.517   5.569  16.511  0.00  0.00    +0.000 A 
BRANCH   8  10
ATOM     10  C   UNL     1      50.834   3.812  17.766  0.00  0.00    +0.000 A 
ATOM     11  C   UNL     1      50.403   2.551  17.321  0.00  0.00    +0.000 A 
ATOM     12  C   UNL     1      51.255   1.437  17.346  0.00  0.00    +0.000 A 
ATOM     13  C   UNL     1      52.553   1.557  17.831  0.00  0.00    +0.000 A 
ATOM     14  C   UNL     1      53.011   2.795  18.267  0.00  0.00    +0.000 A 
ATOM     15  C   UNL     1      52.165   3.907  18.219  0.00  0.00    +0.000 A 
ENDBRANCH   8  10
ENDBRANCH   1   4
BRANCH   1  16
ATOM     16  N   UNL     1      48.595   6.504  13.943  0.00  0.00    +0.000 N 
ATOM     17  H   UNL     1      49.403   6.433  13.332  0.00  0.00    +0.000 HD
BRANCH  16  21
ATOM     18  C   UNL     1      45.233   4.642  12.427  0.00  0.00    +0.000 A 
ATOM     19  N   UNL     1      45.688   4.188  13.611  0.00  0.00    +0.000 NA
ATOM     20  C   UNL     1      46.788   4.815  14.094  0.00  0.00    +0.000 A 
ATOM     21  C   UNL     1      47.427   5.882  13.486  0.00  0.00    +0.000 A 
ATOM     22  C   UNL     1      46.863   6.226  12.266  0.00  0.00    +0.000 A 
ATOM     23  N   UNL     1      45.775   5.646  11.718  0.00  0.00    +0.000 NA
BRANCH  18  25
ATOM     24  N   UNL     1      43.144   3.454  11.416  0.00  0.00    +0.000 NA
ATOM     25  C   UNL     1      44.080   3.991  11.867  0.00  0.00    +0.000 C 
ENDBRANCH  18  25
ENDBRANCH  16  21
ENDBRANCH   1  16
TORSDOF 5
ENDMDL
