MODEL 1
REMARK VINA RESULT:    -7.754      0.000      0.000
REMARK INTER + INTRA:         -11.693
REMARK INTER:                 -10.928
REMARK INTRA:                  -0.765
REMARK UNBOUND:                -0.765
REMARK  Name = 
REMARK  8 active torsions:
REMARK  status: ('A' for Active; 'I' for Inactive)
REMARK    1  A    between atoms: C_2  and  C_22
REMARK    2  A    between atoms: N_3  and  C_4
REMARK    3  A    between atoms: C_4  and  C_5
REMARK    4  A    between atoms: C_8  and  C_9
REMARK    5  A    between atoms: C_9  and  O_10
REMARK    6  A    between atoms: C_9  and  C_11
REMARK    7  A    between atoms: C_17  and  C_18
REMARK    8  A    between atoms: C_18  and  O_19
REMARK                            x       y       z     vdW  Elec       q    Type
REMARK                         _______ _______ _______ _____ _____    ______ ____
ROOT
ATOM      1  C   UNL     1      46.947   8.499  13.411  0.00  0.00    +0.000 A 
ATOM      2  C   UNL     1      46.704   7.130  13.256  0.00  0.00    +0.000 A 
ATOM      3  C   UNL     1      45.674   6.684  12.429  0.00  0.00    +0.000 A 
ATOM      4  C   UNL     1      44.858   7.599  11.739  0.00  0.00    +0.000 A 
ATOM      5  C   UNL     1      45.151   8.966  11.841  0.00  0.00    +0.000 A 
ATOM      6  C   UNL     1      46.186   9.410  12.667  0.00  0.00    +0.000 A 
ENDROOT
BRANCH   1   7
ATOM      7  C   UNL     1      47.998   8.978  14.377  0.00  0.00    +0.000 C 
BRANCH   7  10
ATOM      8  O   UNL     1      50.013   7.024  14.470  0.00  0.00    +0.000 OA
ATOM      9  C   UNL     1      49.258   7.153  15.434  0.00  0.00    +0.000 C 
ATOM     10  N   UNL     1      48.223   8.048  15.447  0.00  0.00    +0.000 N 
ATOM     11  H   UNL     1      47.733   8.234  16.315  0.00  0.00    +0.000 HD
BRANCH   9  12
ATOM     12  C   UNL     1      49.398   6.314  16.621  0.00  0.00    +0.000 A 
ATOM     13  C   UNL     1      50.239   6.691  17.658  0.00  0.00    +0.000 A 
ATOM     14  S   UNL     1      50.213   5.612  18.981  0.00  0.00    +0.000 S 
ATOM     15  C   UNL     1      49.063   4.617  18.212  0.00  0.00    +0.000 A 
ATOM     16  N   UNL     1      48.560   3.519  18.834  0.00  0.00    +0.000 NA
ATOM     17  C   UNL     1      47.662   2.885  18.153  0.00  0.00    +0.000 A 
ATOM     18  N   UNL     1      47.245   3.237  16.896  0.00  0.00    +0.000 N 
ATOM     19  C   UNL     1      47.795   4.279  16.197  0.00  0.00    +0.000 A 
ATOM     20  O   UNL     1      47.526   4.452  15.010  0.00  0.00    +0.000 OA
ATOM     21  C   UNL     1      48.746   5.074  16.953  0.00  0.00    +0.000 A 
ATOM     22  H   UNL     1      46.580   2.670  16.394  0.00  0.00    +0.000 HD
ENDBRANCH   9  12
ENDBRANCH   7  10
ENDBRANCH   1   7
BRANCH   4  23
ATOM     23  C   UNL     1      43.720   7.071  10.895  0.00  0.00    +0.000 C 
BRANCH  23  24
ATOM     24  C   UNL     1      43.284   5.607  11.194  0.00  0.00    +0.000 C 
ATOM     25  O   UNL     1      42.296   5.381  11.903  0.00  0.00    +0.000 OA
ATOM     26  N   UNL     1      43.989   4.570  10.612  0.00  0.00    +0.000 N 
ATOM     27  C   UNL     1      45.193   4.657   9.803  0.00  0.00    +0.000 C 
ATOM     28  C   UNL     1      44.990   3.564   8.773  0.00  0.00    +0.000 C 
ATOM     29  C   UNL     1      44.313   2.455   9.570  0.00  0.00    +0.000 C 
ATOM     30  C   UNL     1      43.509   3.189  10.661  0.00  0.00    +0.000 C 
BRANCH  30  31
ATOM     31  C   UNL     1      43.699   2.522  12.033  0.00  0.00    +0.000 C 
BRANCH  31  32
ATOM     32  O   UNL     1      45.006   2.774  12.548  0.00  0.00    +0.000 OA
ATOM     33  H   UNL     1      45.579   2.969  11.786  0.00  0.00    +0.000 HD
ENDBRANCH  31  32
ENDBRANCH  30  31
ENDBRANCH  23  24
BRANCH  23  34
ATOM     34  O   UNL     1      42.647   8.004  11.018  0.00  0.00    +0.000 OA
ATOM     35  H   UNL     1      42.107   7.894  10.215  0.00  0.00    +0.000 HD
ENDBRANCH  23  34
ENDBRANCH   4  23
TORSDOF 8
ENDMDL
MODEL 2
REMARK VINA RESULT:    -6.823      3.759      8.619
REMARK INTER + INTRA:         -10.380
REMARK INTER:                  -9.051
REMARK INTRA:                  -1.330
REMARK UNBOUND:                -0.765
REMARK  Name = 
REMARK  8 active torsions:
REMARK  status: ('A' for Active; 'I' for Inactive)
REMARK    1  A    between atoms: C_2  and  C_22
REMARK    2  A    between atoms: N_3  and  C_4
REMARK    3  A    between atoms: C_4  and  C_5
REMARK    4  A    between atoms: C_8  and  C_9
REMARK    5  A    between atoms: C_9  and  O_10
REMARK    6  A    between atoms: C_9  and  C_11
REMARK    7  A    between atoms: C_17  and  C_18
REMARK    8  A    between atoms: C_18  and  O_19
REMARK                            x       y       z     vdW  Elec       q    Type
REMARK                         _______ _______ _______ _____ _____    ______ ____
ROOT
ATOM      1  C   UNL     1      48.903   6.688  15.434  0.00  0.00    +0.000 A 
ATOM      2  C   UNL     1      48.181   5.592  15.919  0.00  0.00    +0.000 A 
ATOM      3  C   UNL     1      48.638   4.880  17.028  0.00  0.00    +0.000 A 
ATOM      4  C   UNL     1      49.832   5.245  17.676  0.00  0.00    +0.000 A 
ATOM      5  C   UNL     1      50.514   6.386  17.229  0.00  0.00    +0.000 A 
ATOM      6  C   UNL     1      50.052   7.100  16.122  0.00  0.00    +0.000 A 
ENDROOT
BRANCH   1   7
ATOM      7  C   UNL     1      48.458   7.395  14.181  0.00  0.00    +0.000 C 
BRANCH   7  10
ATOM      8  O   UNL     1      47.654   7.104  11.506  0.00  0.00    +0.000 OA
ATOM      9  C   UNL     1      46.871   6.795  12.404  0.00  0.00    +0.000 C 
ATOM     10  N   UNL     1      47.169   6.951  13.730  0.00  0.00    +0.000 N 
ATOM     11  H   UNL     1      46.566   6.536  14.432  0.00  0.00    +0.000 HD
BRANCH   9  12
ATOM     12  C   UNL     1      45.540   6.276  12.100  0.00  0.00    +0.000 A 
ATOM     13  C   UNL     1      44.559   7.107  11.578  0.00  0.00    +0.000 A 
ATOM     14  S   UNL     1      43.097   6.298  11.231  0.00  0.00    +0.000 S 
ATOM     15  C   UNL     1      43.739   4.808  11.752  0.00  0.00    +0.000 A 
ATOM     16  N   UNL     1      43.008   3.665  11.672  0.00  0.00    +0.000 NA
ATOM     17  C   UNL     1      43.637   2.603  12.058  0.00  0.00    +0.000 A 
ATOM     18  N   UNL     1      44.919   2.589  12.540  0.00  0.00    +0.000 N 
ATOM     19  C   UNL     1      45.655   3.729  12.726  0.00  0.00    +0.000 A 
ATOM     20  O   UNL     1      46.726   3.697  13.327  0.00  0.00    +0.000 OA
ATOM     21  C   UNL     1      45.024   4.938  12.227  0.00  0.00    +0.000 A 
ATOM     22  H   UNL     1      45.335   1.734  12.877  0.00  0.00    +0.000 HD
ENDBRANCH   9  12
ENDBRANCH   7  10
ENDBRANCH   1   7
BRANCH   4  23
ATOM     23  C   UNL     1      50.315   4.412  18.842  0.00  0.00    +0.000 C 
BRANCH  23  24
ATOM     24  C   UNL     1      51.841   4.103  18.859  0.00  0.00    +0.000 C 
ATOM     25  O   UNL     1      52.620   4.830  19.486  0.00  0.00    +0.000 OA
ATOM     26  N   UNL     1      52.298   2.973  18.207  0.00  0.00    +0.000 N 
ATOM     27  C   UNL     1      51.534   2.048  17.388  0.00  0.00    +0.000 C 
ATOM     28  C   UNL     1      52.162   0.708  17.711  0.00  0.00    +0.000 C 
ATOM     29  C   UNL     1      53.643   1.042  17.852  0.00  0.00    +0.000 C 
ATOM     30  C   UNL     1      53.672   2.494  18.365  0.00  0.00    +0.000 C 
BRANCH  30  31
ATOM     31  C   UNL     1      54.707   3.334  17.598  0.00  0.00    +0.000 C 
BRANCH  31  32
ATOM     32  O   UNL     1      55.263   4.348  18.433  0.00  0.00    +0.000 OA
ATOM     33  H   UNL     1      56.075   3.981  18.824  0.00  0.00    +0.000 HD
ENDBRANCH  31  32
ENDBRANCH  30  31
ENDBRANCH  23  24
BRANCH  23  34
ATOM     34  O   UNL     1      49.870   5.067  20.029  0.00  0.00    +0.000 OA
ATOM     35  H   UNL     1      48.986   4.704  20.216  0.00  0.00    +0.000 HD
ENDBRANCH  23  34
ENDBRANCH   4  23
TORSDOF 8
ENDMDL
MODEL 3
REMARK VINA RESULT:    -6.744      1.542      2.061
REMARK INTER + INTRA:         -10.269
REMARK INTER:                  -9.250
REMARK INTRA:                  -1.019
REMARK UNBOUND:                -0.765
REMARK  Name = 
REMARK  8 active torsions:
REMARK  status: ('A' for Active; 'I' for Inactive)
REMARK    1  A    between atoms: C_2  and  C_22
REMARK    2  A    between atoms: N_3  and  C_4
REMARK    3  A    between atoms: C_4  and  C_5
REMARK    4  A    between atoms: C_8  and  C_9
REMARK    5  A    between atoms: C_9  and  O_10
REMARK    6  A    between atoms: C_9  and  C_11
REMARK    7  A    between atoms: C_17  and  C_18
REMARK    8  A    between atoms: C_18  and  O_19
REMARK                            x       y       z     vdW  Elec       q    Type
REMARK                         _______ _______ _______ _____ _____    ______ ____
ROOT
ATOM      1  C   UNL     1      48.787   7.623  13.684  0.00  0.00    +0.000 A 
ATOM      2  C   UNL     1      48.304   8.719  12.962  0.00  0.00    +0.000 A 
ATOM      3  C   UNL     1      47.098   8.632  12.267  0.00  0.00    +0.000 A 
ATOM      4  C   UNL     1      46.347   7.442  12.276  0.00  0.00    +0.000 A 
ATOM      5  C   UNL     1      46.800   6.371  13.059  0.00  0.00    +0.000 A 
ATOM      6  C   UNL     1      48.006   6.462  13.756  0.00  0.00    +0.000 A 
ENDROOT
BRANCH   1   7
ATOM      7  C   UNL     1      50.134   7.690  14.354  0.00  0.00    +0.000 C 
BRANCH   7  10
ATOM      8  O   UNL     1      52.283   6.725  15.884  0.00  0.00    +0.000 OA
ATOM      9  C   UNL     1      51.186   6.881  16.421  0.00  0.00    +0.000 C 
ATOM     10  N   UNL     1      50.080   7.302  15.735  0.00  0.00    +0.000 N 
ATOM     11  H   UNL     1      49.246   7.572  16.245  0.00  0.00    +0.000 HD
BRANCH   9  12
ATOM     12  C   UNL     1      50.990   6.581  17.837  0.00  0.00    +0.000 A 
ATOM     13  C   UNL     1      51.701   7.266  18.811  0.00  0.00    +0.000 A 
ATOM     14  S   UNL     1      51.280   6.816  20.403  0.00  0.00    +0.000 S 
ATOM     15  C   UNL     1      50.121   5.703  19.837  0.00  0.00    +0.000 A 
ATOM     16  N   UNL     1      49.348   4.997  20.702  0.00  0.00    +0.000 NA
ATOM     17  C   UNL     1      48.479   4.226  20.133  0.00  0.00    +0.000 A 
ATOM     18  N   UNL     1      48.337   4.079  18.778  0.00  0.00    +0.000 N 
ATOM     19  C   UNL     1      49.159   4.699  17.875  0.00  0.00    +0.000 A 
ATOM     20  O   UNL     1      49.120   4.403  16.683  0.00  0.00    +0.000 OA
ATOM     21  C   UNL     1      50.094   5.642  18.462  0.00  0.00    +0.000 A 
ATOM     22  H   UNL     1      47.678   3.420  18.396  0.00  0.00    +0.000 HD
ENDBRANCH   9  12
ENDBRANCH   7  10
ENDBRANCH   1   7
BRANCH   4  23
ATOM     23  C   UNL     1      45.071   7.377  11.466  0.00  0.00    +0.000 C 
BRANCH  23  24
ATOM     24  C   UNL     1      44.275   6.044  11.575  0.00  0.00    +0.000 C 
ATOM     25  O   UNL     1      43.349   5.933  12.387  0.00  0.00    +0.000 OA
ATOM     26  N   UNL     1      44.586   5.009  10.712  0.00  0.00    +0.000 N 
ATOM     27  C   UNL     1      45.667   4.954   9.743  0.00  0.00    +0.000 C 
ATOM     28  C   UNL     1      45.049   4.195   8.587  0.00  0.00    +0.000 C 
ATOM     29  C   UNL     1      44.178   3.153   9.280  0.00  0.00    +0.000 C 
ATOM     30  C   UNL     1      43.743   3.819  10.600  0.00  0.00    +0.000 C 
BRANCH  30  31
ATOM     31  C   UNL     1      43.888   2.850  11.785  0.00  0.00    +0.000 C 
BRANCH  31  32
ATOM     32  O   UNL     1      43.021   1.727  11.635  0.00  0.00    +0.000 OA
ATOM     33  H   UNL     1      43.228   1.109  12.358  0.00  0.00    +0.000 HD
ENDBRANCH  31  32
ENDBRANCH  30  31
ENDBRANCH  23  24
BRANCH  23  34
ATOM     34  O   UNL     1      44.294   8.517  11.828  0.00  0.00    +0.000 OA
ATOM     35  H   UNL     1      44.904   9.117  12.293  0.00  0.00    +0.000 HD
ENDBRANCH  23  34
ENDBRANCH   4  23
TORSDOF 8
ENDMDL
MODEL 4
REMARK VINA RESULT:    -6.660      4.017      8.602
REMARK INTER + INTRA:         -10.150
REMARK INTER:                  -9.119
REMARK INTRA:                  -1.031
REMARK UNBOUND:                -0.765
REMARK  Name = 
REMARK  8 active torsions:
REMARK  status: ('A' for Active; 'I' for Inactive)
REMARK    1  A    between atoms: C_2  and  C_22
REMARK    2  A    between atoms: N_3  and  C_4
REMARK    3  A    between atoms: C_4  and  C_5
REMARK    4  A    between atoms: C_8  and  C_9
REMARK    5  A    between atoms: C_9  and  O_10
REMARK    6  A    between atoms: C_9  and  C_11
REMARK    7  A    between atoms: C_17  and  C_18
REMARK    8  A    between atoms: C_18  and  O_19
REMARK                            x       y       z     vdW  Elec       q    Type
REMARK                         _______ _______ _______ _____ _____    ______ ____
ROOT
ATOM      1  C   UNL     1      45.102   4.695  12.246  0.00  0.00    +0.000 A 
ATOM      2  C   UNL     1      44.692   5.978  11.869  0.00  0.00    +0.000 A 
ATOM      3  C   UNL     1      45.383   7.102  12.318  0.00  0.00    +0.000 A 
ATOM      4  C   UNL     1      46.501   6.970  13.162  0.00  0.00    +0.000 A 
ATOM      5  C   UNL     1      46.951   5.681  13.479  0.00  0.00    +0.000 A 
ATOM      6  C   UNL     1      46.259   4.556  13.024  0.00  0.00    +0.000 A 
ENDROOT
BRANCH   1   7
ATOM      7  C   UNL     1      44.297   3.490  11.837  0.00  0.00    +0.000 C 
BRANCH   7  10
ATOM      8  O   UNL     1      44.068   3.813   9.057  0.00  0.00    +0.000 OA
ATOM      9  C   UNL     1      44.828   2.952   9.499  0.00  0.00    +0.000 C 
ATOM     10  N   UNL     1      44.961   2.701  10.838  0.00  0.00    +0.000 N 
ATOM     11  H   UNL     1      45.712   2.102  11.164  0.00  0.00    +0.000 HD
BRANCH   9  12
ATOM     12  C   UNL     1      45.613   2.106   8.605  0.00  0.00    +0.000 A 
ATOM     13  C   UNL     1      45.561   0.724   8.712  0.00  0.00    +0.000 A 
ATOM     14  S   UNL     1      46.497  -0.086   7.535  0.00  0.00    +0.000 S 
ATOM     15  C   UNL     1      46.987   1.390   6.837  0.00  0.00    +0.000 A 
ATOM     16  N   UNL     1      47.777   1.413   5.732  0.00  0.00    +0.000 NA
ATOM     17  C   UNL     1      48.030   2.599   5.283  0.00  0.00    +0.000 A 
ATOM     18  N   UNL     1      47.586   3.761   5.858  0.00  0.00    +0.000 N 
ATOM     19  C   UNL     1      46.869   3.785   7.024  0.00  0.00    +0.000 A 
ATOM     20  O   UNL     1      46.646   4.844   7.604  0.00  0.00    +0.000 OA
ATOM     21  C   UNL     1      46.485   2.474   7.520  0.00  0.00    +0.000 A 
ATOM     22  H   UNL     1      47.864   4.658   5.491  0.00  0.00    +0.000 HD
ENDBRANCH   9  12
ENDBRANCH   7  10
ENDBRANCH   1   7
BRANCH   4  23
ATOM     23  C   UNL     1      47.188   8.219  13.666  0.00  0.00    +0.000 C 
BRANCH  23  24
ATOM     24  C   UNL     1      48.385   8.721  12.806  0.00  0.00    +0.000 C 
ATOM     25  O   UNL     1      48.184   9.366  11.770  0.00  0.00    +0.000 OA
ATOM     26  N   UNL     1      49.672   8.479  13.250  0.00  0.00    +0.000 N 
ATOM     27  C   UNL     1      50.082   7.701  14.406  0.00  0.00    +0.000 C 
ATOM     28  C   UNL     1      51.284   8.465  14.921  0.00  0.00    +0.000 C 
ATOM     29  C   UNL     1      51.975   8.932  13.644  0.00  0.00    +0.000 C 
ATOM     30  C   UNL     1      50.835   9.107  12.623  0.00  0.00    +0.000 C 
BRANCH  30  31
ATOM     31  C   UNL     1      51.207   8.491  11.264  0.00  0.00    +0.000 C 
BRANCH  31  32
ATOM     32  O   UNL     1      51.092   7.070  11.299  0.00  0.00    +0.000 OA
ATOM     33  H   UNL     1      51.646   6.721  10.578  0.00  0.00    +0.000 HD
ENDBRANCH  31  32
ENDBRANCH  30  31
ENDBRANCH  23  24
BRANCH  23  34
ATOM     34  O   UNL     1      46.175   9.209  13.834  0.00  0.00    +0.000 OA
ATOM     35  H   UNL     1      45.550   8.841  14.484  0.00  0.00    +0.000 HD
ENDBRANCH  23  34
ENDBRANCH   4  23
TORSDOF 8
ENDMDL
MODEL 5
REMARK VINA RESULT:    -6.628      2.516      3.228
REMARK INTER + INTRA:         -10.106
REMARK INTER:                  -9.052
REMARK INTRA:                  -1.054
REMARK UNBOUND:                -0.765
REMARK  Name = 
REMARK  8 active torsions:
REMARK  status: ('A' for Active; 'I' for Inactive)
REMARK    1  A    between atoms: C_2  and  C_22
REMARK    2  A    between atoms: N_3  and  C_4
REMARK    3  A    between atoms: C_4  and  C_5
REMARK    4  A    between atoms: C_8  and  C_9
REMARK    5  A    between atoms: C_9  and  O_10
REMARK    6  A    between atoms: C_9  and  C_11
REMARK    7  A    between atoms: C_17  and  C_18
REMARK    8  A    between atoms: C_18  and  O_19
REMARK                            x       y       z     vdW  Elec       q    Type
REMARK                         _______ _______ _______ _____ _____    ______ ____
ROOT
ATOM      1  C   UNL     1      48.066   7.597  14.449  0.00  0.00    +0.000 A 
ATOM      2  C   UNL     1      47.316   8.714  14.065  0.00  0.00    +0.000 A 
ATOM      3  C   UNL     1      46.323   8.600  13.093  0.00  0.00    +0.000 A 
ATOM      4  C   UNL     1      46.059   7.363  12.476  0.00  0.00    +0.000 A 
ATOM      5  C   UNL     1      46.764   6.233  12.915  0.00  0.00    +0.000 A 
ATOM      6  C   UNL     1      47.755   6.350  13.892  0.00  0.00    +0.000 A 
ENDROOT
BRANCH   1   7
ATOM      7  C   UNL     1      49.200   7.745  15.428  0.00  0.00    +0.000 C 
BRANCH   7  10
ATOM      8  O   UNL     1      49.723   6.889  18.052  0.00  0.00    +0.000 OA
ATOM      9  C   UNL     1      49.949   6.123  17.115  0.00  0.00    +0.000 C 
ATOM     10  N   UNL     1      49.765   6.481  15.807  0.00  0.00    +0.000 N 
ATOM     11  H   UNL     1      49.807   5.772  15.083  0.00  0.00    +0.000 HD
BRANCH   9  12
ATOM     12  C   UNL     1      50.475   4.781  17.348  0.00  0.00    +0.000 A 
ATOM     13  C   UNL     1      49.659   3.668  17.208  0.00  0.00    +0.000 A 
ATOM     14  S   UNL     1      50.477   2.190  17.457  0.00  0.00    +0.000 S 
ATOM     15  C   UNL     1      51.951   2.995  17.742  0.00  0.00    +0.000 A 
ATOM     16  N   UNL     1      53.095   2.300  17.975  0.00  0.00    +0.000 NA
ATOM     17  C   UNL     1      54.146   3.038  18.127  0.00  0.00    +0.000 A 
ATOM     18  N   UNL     1      54.147   4.408  18.094  0.00  0.00    +0.000 N 
ATOM     19  C   UNL     1      53.002   5.148  17.958  0.00  0.00    +0.000 A 
ATOM     20  O   UNL     1      53.018   6.366  18.115  0.00  0.00    +0.000 OA
ATOM     21  C   UNL     1      51.808   4.363  17.697  0.00  0.00    +0.000 A 
ATOM     22  H   UNL     1      54.991   4.929  18.275  0.00  0.00    +0.000 HD
ENDBRANCH   9  12
ENDBRANCH   7  10
ENDBRANCH   1   7
BRANCH   4  23
ATOM     23  C   UNL     1      45.009   7.296  11.391  0.00  0.00    +0.000 C 
BRANCH  23  24
ATOM     24  C   UNL     1      44.286   5.926  11.239  0.00  0.00    +0.000 C 
ATOM     25  O   UNL     1      43.269   5.679  11.898  0.00  0.00    +0.000 OA
ATOM     26  N   UNL     1      44.770   5.016  10.318  0.00  0.00    +0.000 N 
ATOM     27  C   UNL     1      45.971   5.124   9.507  0.00  0.00    +0.000 C 
ATOM     28  C   UNL     1      45.558   4.481   8.199  0.00  0.00    +0.000 C 
ATOM     29  C   UNL     1      44.666   3.326   8.644  0.00  0.00    +0.000 C 
ATOM     30  C   UNL     1      44.022   3.812   9.957  0.00  0.00    +0.000 C 
BRANCH  30  31
ATOM     31  C   UNL     1      44.067   2.716  11.035  0.00  0.00    +0.000 C 
BRANCH  31  32
ATOM     32  O   UNL     1      42.794   2.562  11.661  0.00  0.00    +0.000 OA
ATOM     33  H   UNL     1      42.123   2.835  11.011  0.00  0.00    +0.000 HD
ENDBRANCH  31  32
ENDBRANCH  30  31
ENDBRANCH  23  24
BRANCH  23  34
ATOM     34  O   UNL     1      44.106   8.376  11.623  0.00  0.00    +0.000 OA
ATOM     35  H   UNL     1      43.231   7.966  11.750  0.00  0.00    +0.000 HD
ENDBRANCH  23  34
ENDBRANCH   4  23
TORSDOF 8
ENDMDL
MODEL 6
REMARK VINA RESULT:    -6.302      6.300      7.801
REMARK INTER + INTRA:          -9.646
REMARK INTER:                  -8.697
REMARK INTRA:                  -0.949
REMARK UNBOUND:                -0.765
REMARK  Name = 
REMARK  8 active torsions:
REMARK  status: ('A' for Active; 'I' for Inactive)
REMARK    1  A    between atoms: C_2  and  C_22
REMARK    2  A    between atoms: N_3  and  C_4
REMARK    3  A    between atoms: C_4  and  C_5
REMARK    4  A    between atoms: C_8  and  C_9
REMARK    5  A    between atoms: C_9  and  O_10
REMARK    6  A    between atoms: C_9  and  C_11
REMARK    7  A    between atoms: C_17  and  C_18
REMARK    8  A    between atoms: C_18  and  O_19
REMARK                            x       y       z     vdW  Elec       q    Type
REMARK                         _______ _______ _______ _____ _____    ______ ____
ROOT
ATOM      1  C   UNL     1      50.286   8.880  11.440  0.00  0.00    +0.000 A 
ATOM      2  C   UNL     1      49.794   7.571  11.412  0.00  0.00    +0.000 A 
ATOM      3  C   UNL     1      48.472   7.304  11.766  0.00  0.00    +0.000 A 
ATOM      4  C   UNL     1      47.610   8.343  12.162  0.00  0.00    +0.000 A 
ATOM      5  C   UNL     1      48.086   9.661  12.119  0.00  0.00    +0.000 A 
ATOM      6  C   UNL     1      49.410   9.925  11.760  0.00  0.00    +0.000 A 
ENDROOT
BRANCH   1   7
ATOM      7  C   UNL     1      51.738   9.151  11.148  0.00  0.00    +0.000 C 
BRANCH   7  10
ATOM      8  O   UNL     1      53.915   7.384  10.994  0.00  0.00    +0.000 OA
ATOM      9  C   UNL     1      53.242   7.595   9.985  0.00  0.00    +0.000 C 
ATOM     10  N   UNL     1      52.196   8.476   9.967  0.00  0.00    +0.000 N 
ATOM     11  H   UNL     1      51.572   8.497   9.167  0.00  0.00    +0.000 HD
BRANCH   9  12
ATOM     12  C   UNL     1      53.552   6.938   8.719  0.00  0.00    +0.000 A 
ATOM     13  C   UNL     1      53.703   5.560   8.655  0.00  0.00    +0.000 A 
ATOM     14  S   UNL     1      53.997   4.980   7.076  0.00  0.00    +0.000 S 
ATOM     15  C   UNL     1      53.913   6.554   6.428  0.00  0.00    +0.000 A 
ATOM     16  N   UNL     1      54.033   6.768   5.092  0.00  0.00    +0.000 NA
ATOM     17  C   UNL     1      53.902   8.004   4.736  0.00  0.00    +0.000 A 
ATOM     18  N   UNL     1      53.690   9.045   5.602  0.00  0.00    +0.000 N 
ATOM     19  C   UNL     1      53.660   8.885   6.962  0.00  0.00    +0.000 A 
ATOM     20  O   UNL     1      53.651   9.860   7.710  0.00  0.00    +0.000 OA
ATOM     21  C   UNL     1      53.716   7.503   7.405  0.00  0.00    +0.000 A 
ATOM     22  H   UNL     1      53.652   9.996   5.267  0.00  0.00    +0.000 HD
ENDBRANCH   9  12
ENDBRANCH   7  10
ENDBRANCH   1   7
BRANCH   4  23
ATOM     23  C   UNL     1      46.200   8.001  12.587  0.00  0.00    +0.000 C 
BRANCH  23  24
ATOM     24  C   UNL     1      45.955   6.510  12.962  0.00  0.00    +0.000 C 
ATOM     25  O   UNL     1      46.674   5.948  13.795  0.00  0.00    +0.000 OA
ATOM     26  N   UNL     1      44.888   5.845  12.386  0.00  0.00    +0.000 N 
ATOM     27  C   UNL     1      43.983   6.335  11.361  0.00  0.00    +0.000 C 
ATOM     28  C   UNL     1      42.654   5.730  11.762  0.00  0.00    +0.000 C 
ATOM     29  C   UNL     1      43.041   4.348  12.277  0.00  0.00    +0.000 C 
ATOM     30  C   UNL     1      44.459   4.526  12.852  0.00  0.00    +0.000 C 
BRANCH  30  31
ATOM     31  C   UNL     1      45.388   3.385  12.403  0.00  0.00    +0.000 C 
BRANCH  31  32
ATOM     32  O   UNL     1      46.370   3.104  13.399  0.00  0.00    +0.000 OA
ATOM     33  H   UNL     1      47.227   3.395  13.044  0.00  0.00    +0.000 HD
ENDBRANCH  31  32
ENDBRANCH  30  31
ENDBRANCH  23  24
BRANCH  23  34
ATOM     34  O   UNL     1      45.857   8.899  13.641  0.00  0.00    +0.000 OA
ATOM     35  H   UNL     1      45.235   8.413  14.212  0.00  0.00    +0.000 HD
ENDBRANCH  23  34
ENDBRANCH   4  23
TORSDOF 8
ENDMDL
MODEL 7
REMARK VINA RESULT:    -6.121      2.414      3.166
REMARK INTER + INTRA:          -9.391
REMARK INTER:                  -9.181
REMARK INTRA:                  -0.210
REMARK UNBOUND:                -0.765
REMARK  Name = 
REMARK  8 active torsions:
REMARK  status: ('A' for Active; 'I' for Inactive)
REMARK    1  A    between atoms: C_2  and  C_22
REMARK    2  A    between atoms: N_3  and  C_4
REMARK    3  A    between atoms: C_4  and  C_5
REMARK    4  A    between atoms: C_8  and  C_9
REMARK    5  A    between atoms: C_9  and  O_10
REMARK    6  A    between atoms: C_9  and  C_11
REMARK    7  A    between atoms: C_17  and  C_18
REMARK    8  A    between atoms: C_18  and  O_19
REMARK                            x       y       z     vdW  Elec       q    Type
REMARK                         _______ _______ _______ _____ _____    ______ ____
ROOT
ATOM      1  C   UNL     1      46.508   7.921  12.977  0.00  0.00    +0.000 A 
ATOM      2  C   UNL     1      45.446   8.287  12.143  0.00  0.00    +0.000 A 
ATOM      3  C   UNL     1      44.905   7.369  11.244  0.00  0.00    +0.000 A 
ATOM      4  C   UNL     1      45.418   6.062  11.153  0.00  0.00    +0.000 A 
ATOM      5  C   UNL     1      46.434   5.680  12.039  0.00  0.00    +0.000 A 
ATOM      6  C   UNL     1      46.972   6.600  12.942  0.00  0.00    +0.000 A 
ENDROOT
BRANCH   1   7
ATOM      7  C   UNL     1      47.151   8.942  13.878  0.00  0.00    +0.000 C 
BRANCH   7  10
ATOM      8  O   UNL     1      49.500   9.508  15.311  0.00  0.00    +0.000 OA
ATOM      9  C   UNL     1      48.661   8.757  15.808  0.00  0.00    +0.000 C 
ATOM     10  N   UNL     1      47.514   8.395  15.155  0.00  0.00    +0.000 N 
ATOM     11  H   UNL     1      46.780   7.911  15.661  0.00  0.00    +0.000 HD
BRANCH   9  12
ATOM     12  C   UNL     1      48.864   8.164  17.127  0.00  0.00    +0.000 A 
ATOM     13  C   UNL     1      49.082   8.968  18.237  0.00  0.00    +0.000 A 
ATOM     14  S   UNL     1      49.230   8.090  19.693  0.00  0.00    +0.000 S 
ATOM     15  C   UNL     1      48.991   6.609  18.884  0.00  0.00    +0.000 A 
ATOM     16  N   UNL     1      48.950   5.436  19.569  0.00  0.00    +0.000 NA
ATOM     17  C   UNL     1      48.713   4.399  18.834  0.00  0.00    +0.000 A 
ATOM     18  N   UNL     1      48.543   4.429  17.475  0.00  0.00    +0.000 N 
ATOM     19  C   UNL     1      48.672   5.575  16.736  0.00  0.00    +0.000 A 
ATOM     20  O   UNL     1      48.693   5.534  15.509  0.00  0.00    +0.000 OA
ATOM     21  C   UNL     1      48.851   6.781  17.526  0.00  0.00    +0.000 A 
ATOM     22  H   UNL     1      48.416   3.577  16.951  0.00  0.00    +0.000 HD
ENDBRANCH   9  12
ENDBRANCH   7  10
ENDBRANCH   1   7
BRANCH   4  23
ATOM     23  C   UNL     1      44.834   5.117  10.127  0.00  0.00    +0.000 C 
BRANCH  23  24
ATOM     24  C   UNL     1      45.778   4.740   8.948  0.00  0.00    +0.000 C 
ATOM     25  O   UNL     1      46.613   5.551   8.531  0.00  0.00    +0.000 OA
ATOM     26  N   UNL     1      45.701   3.468   8.413  0.00  0.00    +0.000 N 
ATOM     27  C   UNL     1      44.752   2.419   8.747  0.00  0.00    +0.000 C 
ATOM     28  C   UNL     1      45.588   1.160   8.649  0.00  0.00    +0.000 C 
ATOM     29  C   UNL     1      46.502   1.439   7.461  0.00  0.00    +0.000 C 
ATOM     30  C   UNL     1      46.697   2.968   7.466  0.00  0.00    +0.000 C 
BRANCH  30  31
ATOM     31  C   UNL     1      46.545   3.550   6.051  0.00  0.00    +0.000 C 
BRANCH  31  32
ATOM     32  O   UNL     1      47.082   2.662   5.072  0.00  0.00    +0.000 OA
ATOM     33  H   UNL     1      47.660   2.036   5.542  0.00  0.00    +0.000 HD
ENDBRANCH  31  32
ENDBRANCH  30  31
ENDBRANCH  23  24
BRANCH  23  34
ATOM     34  O   UNL     1      44.357   3.977  10.839  0.00  0.00    +0.000 OA
ATOM     35  H   UNL     1      43.388   4.069  10.868  0.00  0.00    +0.000 HD
ENDBRANCH  23  34
ENDBRANCH   4  23
TORSDOF 8
ENDMDL
MODEL 8
REMARK VINA RESULT:    -6.054      3.541      4.991
REMARK INTER + INTRA:          -9.296
REMARK INTER:                  -8.092
REMARK INTRA:                  -1.205
REMARK UNBOUND:                -0.765
REMARK  Name = 
REMARK  8 active torsions:
REMARK  status: ('A' for Active; 'I' for Inactive)
REMARK    1  A    between atoms: C_2  and  C_22
REMARK    2  A    between atoms: N_3  and  C_4
REMARK    3  A    between atoms: C_4  and  C_5
REMARK    4  A    between atoms: C_8  and  C_9
REMARK    5  A    between atoms: C_9  and  O_10
REMARK    6  A    between atoms: C_9  and  C_11
REMARK    7  A    between atoms: C_17  and  C_18
REMARK    8  A    between atoms: C_18  and  O_19
REMARK                            x       y       z     vdW  Elec       q    Type
REMARK                         _______ _______ _______ _____ _____    ______ ____
ROOT
ATOM      1  C   UNL     1      47.254   6.284  13.636  0.00  0.00    +0.000 A 
ATOM      2  C   UNL     1      46.780   7.358  12.874  0.00  0.00    +0.000 A 
ATOM      3  C   UNL     1      45.851   7.147  11.857  0.00  0.00    +0.000 A 
ATOM      4  C   UNL     1      45.376   5.854  11.572  0.00  0.00    +0.000 A 
ATOM      5  C   UNL     1      45.799   4.792  12.384  0.00  0.00    +0.000 A 
ATOM      6  C   UNL     1      46.726   5.007  13.406  0.00  0.00    +0.000 A 
ENDROOT
BRANCH   1   7
ATOM      7  C   UNL     1      48.327   6.502  14.670  0.00  0.00    +0.000 C 
BRANCH   7  10
ATOM      8  O   UNL     1      49.313   9.128  14.807  0.00  0.00    +0.000 OA
ATOM      9  C   UNL     1      49.985   8.264  14.244  0.00  0.00    +0.000 C 
ATOM     10  N   UNL     1      49.555   6.974  14.095  0.00  0.00    +0.000 N 
ATOM     11  H   UNL     1      50.203   6.263  13.773  0.00  0.00    +0.000 HD
BRANCH   9  12
ATOM     12  C   UNL     1      51.283   8.582  13.656  0.00  0.00    +0.000 A 
ATOM     13  C   UNL     1      52.286   9.155  14.425  0.00  0.00    +0.000 A 
ATOM     14  S   UNL     1      53.748   9.387  13.572  0.00  0.00    +0.000 S 
ATOM     15  C   UNL     1      53.087   8.711  12.154  0.00  0.00    +0.000 A 
ATOM     16  N   UNL     1      53.840   8.560  11.034  0.00  0.00    +0.000 NA
ATOM     17  C   UNL     1      53.224   7.990  10.050  0.00  0.00    +0.000 A 
ATOM     18  N   UNL     1      51.916   7.584  10.081  0.00  0.00    +0.000 N 
ATOM     19  C   UNL     1      51.096   7.804  11.156  0.00  0.00    +0.000 A 
ATOM     20  O   UNL     1      49.888   7.593  11.079  0.00  0.00    +0.000 OA
ATOM     21  C   UNL     1      51.765   8.363  12.317  0.00  0.00    +0.000 A 
ATOM     22  H   UNL     1      51.476   7.196   9.261  0.00  0.00    +0.000 HD
ENDBRANCH   9  12
ENDBRANCH   7  10
ENDBRANCH   1   7
BRANCH   4  23
ATOM     23  C   UNL     1      44.408   5.666  10.425  0.00  0.00    +0.000 C 
BRANCH  23  24
ATOM     24  C   UNL     1      44.363   4.236   9.813  0.00  0.00    +0.000 C 
ATOM     25  O   UNL     1      43.466   3.446  10.132  0.00  0.00    +0.000 OA
ATOM     26  N   UNL     1      45.310   3.886   8.868  0.00  0.00    +0.000 N 
ATOM     27  C   UNL     1      46.450   4.665   8.421  0.00  0.00    +0.000 C 
ATOM     28  C   UNL     1      46.535   4.331   6.945  0.00  0.00    +0.000 C 
ATOM     29  C   UNL     1      46.164   2.852   6.902  0.00  0.00    +0.000 C 
ATOM     30  C   UNL     1      45.200   2.653   8.087  0.00  0.00    +0.000 C 
BRANCH  30  31
ATOM     31  C   UNL     1      45.556   1.387   8.885  0.00  0.00    +0.000 C 
BRANCH  31  32
ATOM     32  O   UNL     1      46.369   0.507   8.111  0.00  0.00    +0.000 OA
ATOM     33  H   UNL     1      47.256   0.513   8.511  0.00  0.00    +0.000 HD
ENDBRANCH  31  32
ENDBRANCH  30  31
ENDBRANCH  23  24
BRANCH  23  34
ATOM     34  O   UNL     1      43.133   6.112  10.884  0.00  0.00    +0.000 OA
ATOM     35  H   UNL     1      43.129   7.078  10.758  0.00  0.00    +0.000 HD
ENDBRANCH  23  34
ENDBRANCH   4  23
TORSDOF 8
ENDMDL
MODEL 9
REMARK VINA RESULT:    -5.755      1.789      2.422
REMARK INTER + INTRA:          -8.875
REMARK INTER:                  -9.035
REMARK INTRA:                   0.160
REMARK UNBOUND:                -0.765
REMARK  Name = 
REMARK  8 active torsions:
REMARK  status: ('A' for Active; 'I' for Inactive)
REMARK    1  A    between atoms: C_2  and  C_22
REMARK    2  A    between atoms: N_3  and  C_4
REMARK    3  A    between atoms: C_4  and  C_5
REMARK    4  A    between atoms: C_8  and  C_9
REMARK    5  A    between atoms: C_9  and  O_10
REMARK    6  A    between atoms: C_9  and  C_11
REMARK    7  A    between atoms: C_17  and  C_18
REMARK    8  A    between atoms: C_18  and  O_19
REMARK                            x       y       z     vdW  Elec       q    Type
REMARK                         _______ _______ _______ _____ _____    ______ ____
ROOT
ATOM      1  C   UNL     1      47.130   7.350  13.068  0.00  0.00    +0.000 A 
ATOM      2  C   UNL     1      46.093   8.021  12.411  0.00  0.00    +0.000 A 
ATOM      3  C   UNL     1      44.901   7.361  12.113  0.00  0.00    +0.000 A 
ATOM      4  C   UNL     1      44.720   6.010  12.462  0.00  0.00    +0.000 A 
ATOM      5  C   UNL     1      45.733   5.364  13.184  0.00  0.00    +0.000 A 
ATOM      6  C   UNL     1      46.924   6.029  13.484  0.00  0.00    +0.000 A 
ENDROOT
BRANCH   1   7
ATOM      7  C   UNL     1      48.449   8.038  13.303  0.00  0.00    +0.000 C 
BRANCH   7  10
ATOM      8  O   UNL     1      50.095   9.059  15.335  0.00  0.00    +0.000 OA
ATOM      9  C   UNL     1      50.063   7.844  15.144  0.00  0.00    +0.000 C 
ATOM     10  N   UNL     1      49.324   7.273  14.145  0.00  0.00    +0.000 N 
ATOM     11  H   UNL     1      49.199   6.266  14.126  0.00  0.00    +0.000 HD
BRANCH   9  12
ATOM     12  C   UNL     1      50.859   6.930  15.959  0.00  0.00    +0.000 A 
ATOM     13  C   UNL     1      52.245   6.992  15.942  0.00  0.00    +0.000 A 
ATOM     14  S   UNL     1      52.988   5.887  17.011  0.00  0.00    +0.000 S 
ATOM     15  C   UNL     1      51.476   5.305  17.541  0.00  0.00    +0.000 A 
ATOM     16  N   UNL     1      51.392   4.358  18.512  0.00  0.00    +0.000 NA
ATOM     17  C   UNL     1      50.183   4.046  18.848  0.00  0.00    +0.000 A 
ATOM     18  N   UNL     1      49.055   4.576  18.279  0.00  0.00    +0.000 N 
ATOM     19  C   UNL     1      49.096   5.460  17.233  0.00  0.00    +0.000 A 
ATOM     20  O   UNL     1      48.071   5.772  16.632  0.00  0.00    +0.000 OA
ATOM     21  C   UNL     1      50.431   5.907  16.878  0.00  0.00    +0.000 A 
ATOM     22  H   UNL     1      48.139   4.250  18.547  0.00  0.00    +0.000 HD
ENDBRANCH   9  12
ENDBRANCH   7  10
ENDBRANCH   1   7
BRANCH   4  23
ATOM     23  C   UNL     1      43.431   5.321  12.073  0.00  0.00    +0.000 C 
BRANCH  23  24
ATOM     24  C   UNL     1      43.584   4.102  11.118  0.00  0.00    +0.000 C 
ATOM     25  O   UNL     1      42.801   3.148  11.190  0.00  0.00    +0.000 OA
ATOM     26  N   UNL     1      44.576   4.131  10.155  0.00  0.00    +0.000 N 
ATOM     27  C   UNL     1      45.604   5.140   9.967  0.00  0.00    +0.000 C 
ATOM     28  C   UNL     1      45.742   5.208   8.460  0.00  0.00    +0.000 C 
ATOM     29  C   UNL     1      45.576   3.754   8.028  0.00  0.00    +0.000 C 
ATOM     30  C   UNL     1      44.640   3.136   9.084  0.00  0.00    +0.000 C 
BRANCH  30  31
ATOM     31  C   UNL     1      45.158   1.765   9.550  0.00  0.00    +0.000 C 
BRANCH  31  32
ATOM     32  O   UNL     1      45.756   1.050   8.469  0.00  0.00    +0.000 OA
ATOM     33  H   UNL     1      45.038   0.587   8.004  0.00  0.00    +0.000 HD
ENDBRANCH  31  32
ENDBRANCH  30  31
ENDBRANCH  23  24
BRANCH  23  34
ATOM     34  O   UNL     1      42.757   4.992  13.286  0.00  0.00    +0.000 OA
ATOM     35  H   UNL     1      43.194   5.513  13.983  0.00  0.00    +0.000 HD
ENDBRANCH  23  34
ENDBRANCH   4  23
TORSDOF 8
ENDMDL
