MODEL 1
REMARK VINA RESULT:    -8.583      0.000      0.000
REMARK INTER + INTRA:         -13.191
REMARK INTER:                 -12.347
REMARK INTRA:                  -0.844
REMARK UNBOUND:                -0.844
REMARK  Name = 
REMARK  9 active torsions:
REMARK  status: ('A' for Active; 'I' for Inactive)
REMARK    1  A    between atoms: C_1  and  C_2
REMARK    2  A    between atoms: C_2  and  N_3
REMARK    3  A    between atoms: C_2  and  C_20
REMARK    4  A    between atoms: N_3  and  C_4
REMARK    5  A    between atoms: C_4  and  C_5
REMARK    6  A    between atoms: C_8  and  C_9
REMARK    7  A    between atoms: C_9  and  O_10
REMARK    8  A    between atoms: C_9  and  C_11
REMARK    9  A    between atoms: C_11  and  N_12
REMARK                            x       y       z     vdW  Elec       q    Type
REMARK                         _______ _______ _______ _____ _____    ______ ____
ROOT
ATOM      1  C   UNL     1      46.682   5.020  13.652  0.00  0.00    +0.000 A 
ATOM      2  C   UNL     1      46.027   6.007  12.905  0.00  0.00    +0.000 A 
ATOM      3  C   UNL     1      45.112   5.656  11.904  0.00  0.00    +0.000 A 
ATOM      4  C   UNL     1      44.830   4.309  11.628  0.00  0.00    +0.000 A 
ATOM      5  C   UNL     1      45.497   3.328  12.374  0.00  0.00    +0.000 A 
ATOM      6  C   UNL     1      46.400   3.677  13.377  0.00  0.00    +0.000 A 
ENDROOT
BRANCH   1   7
ATOM      7  C   UNL     1      47.731   5.361  14.683  0.00  0.00    +0.000 C 
BRANCH   7   8
ATOM      8  N   UNL     1      47.306   5.051  16.049  0.00  0.00    +0.000 NA
ATOM      9  H   UNL     1      47.563   5.834  16.648  0.00  0.00    +0.000 HD
BRANCH   8  11
ATOM     10  C   UNL     1      47.043   2.988  17.441  0.00  0.00    +0.000 C 
ATOM     11  C   UNL     1      47.969   3.842  16.567  0.00  0.00    +0.000 C 
BRANCH  11  12
ATOM     12  C   UNL     1      49.188   4.261  17.370  0.00  0.00    +0.000 A 
ATOM     13  C   UNL     1      49.311   5.428  18.109  0.00  0.00    +0.000 A 
ATOM     14  S   UNL     1      50.801   5.548  18.937  0.00  0.00    +0.000 S 
ATOM     15  C   UNL     1      51.315   4.030  18.362  0.00  0.00    +0.000 A 
ATOM     16  N   UNL     1      52.514   3.501  18.727  0.00  0.00    +0.000 NA
ATOM     17  C   UNL     1      52.751   2.333  18.227  0.00  0.00    +0.000 A 
ATOM     18  N   UNL     1      51.906   1.649  17.391  0.00  0.00    +0.000 N 
ATOM     19  C   UNL     1      50.686   2.144  16.990  0.00  0.00    +0.000 A 
ATOM     20  O   UNL     1      49.949   1.507  16.243  0.00  0.00    +0.000 OA
ATOM     21  C   UNL     1      50.373   3.452  17.533  0.00  0.00    +0.000 A 
ATOM     22  H   UNL     1      52.153   0.739  17.036  0.00  0.00    +0.000 HD
ENDBRANCH  11  12
ENDBRANCH   8  11
ENDBRANCH   7   8
ENDBRANCH   1   7
BRANCH   4  23
ATOM     23  C   UNL     1      43.857   3.953  10.517  0.00  0.00    +0.000 C 
BRANCH  23  24
ATOM     24  O   UNL     1      43.458   5.155   9.838  0.00  0.00    +0.000 OA
ATOM     25  H   UNL     1      43.609   5.893  10.455  0.00  0.00    +0.000 HD
ENDBRANCH  23  24
BRANCH  23  26
ATOM     26  C   UNL     1      44.440   2.967   9.481  0.00  0.00    +0.000 C 
BRANCH  26  27
ATOM     27  N   UNL     1      45.207   3.660   8.440  0.00  0.00    +0.000 N 
ATOM     28  C   UNL     1      46.162   2.913   7.850  0.00  0.00    +0.000 A 
ATOM     29  N   UNL     1      46.384   1.626   7.975  0.00  0.00    +0.000 NA
ATOM     30  C   UNL     1      47.460   1.352   7.174  0.00  0.00    +0.000 A 
ATOM     31  C   UNL     1      47.896   2.492   6.543  0.00  0.00    +0.000 A 
ATOM     32  N   UNL     1      47.060   3.481   6.988  0.00  0.00    +0.000 N 
ATOM     33  H   UNL     1      45.425   4.622   8.704  0.00  0.00    +0.000 HD
ATOM     34  H   UNL     1      47.068   4.451   6.715  0.00  0.00    +0.000 HD
ENDBRANCH  26  27
ENDBRANCH  23  26
ENDBRANCH   4  23
TORSDOF 8
ENDMDL
MODEL 2
REMARK VINA RESULT:    -7.686      2.736      8.809
REMARK INTER + INTRA:         -11.901
REMARK INTER:                 -10.803
REMARK INTRA:                  -1.098
REMARK UNBOUND:                -0.844
REMARK  Name = 
REMARK  9 active torsions:
REMARK  status: ('A' for Active; 'I' for Inactive)
REMARK    1  A    between atoms: C_1  and  C_2
REMARK    2  A    between atoms: C_2  and  N_3
REMARK    3  A    between atoms: C_2  and  C_20
REMARK    4  A    between atoms: N_3  and  C_4
REMARK    5  A    between atoms: C_4  and  C_5
REMARK    6  A    between atoms: C_8  and  C_9
REMARK    7  A    between atoms: C_9  and  O_10
REMARK    8  A    between atoms: C_9  and  C_11
REMARK    9  A    between atoms: C_11  and  N_12
REMARK                            x       y       z     vdW  Elec       q    Type
REMARK                         _______ _______ _______ _____ _____    ______ ____
ROOT
ATOM      1  C   UNL     1      47.640   5.849  13.817  0.00  0.00    +0.000 A 
ATOM      2  C   UNL     1      48.251   6.376  14.961  0.00  0.00    +0.000 A 
ATOM      3  C   UNL     1      48.316   5.630  16.145  0.00  0.00    +0.000 A 
ATOM      4  C   UNL     1      47.773   4.338  16.210  0.00  0.00    +0.000 A 
ATOM      5  C   UNL     1      47.154   3.821  15.063  0.00  0.00    +0.000 A 
ATOM      6  C   UNL     1      47.099   4.560  13.882  0.00  0.00    +0.000 A 
ENDROOT
BRANCH   1   7
ATOM      7  C   UNL     1      47.483   6.655  12.549  0.00  0.00    +0.000 C 
BRANCH   7   8
ATOM      8  N   UNL     1      46.271   7.474  12.544  0.00  0.00    +0.000 NA
ATOM      9  H   UNL     1      45.731   7.251  13.379  0.00  0.00    +0.000 HD
BRANCH   8  11
ATOM     10  C   UNL     1      44.370   8.279  11.129  0.00  0.00    +0.000 C 
ATOM     11  C   UNL     1      45.429   7.196  11.367  0.00  0.00    +0.000 C 
BRANCH  11  12
ATOM     12  C   UNL     1      44.751   5.852  11.560  0.00  0.00    +0.000 A 
ATOM     13  C   UNL     1      43.938   5.498  12.626  0.00  0.00    +0.000 A 
ATOM     14  S   UNL     1      43.294   3.920  12.490  0.00  0.00    +0.000 S 
ATOM     15  C   UNL     1      44.055   3.672  10.987  0.00  0.00    +0.000 A 
ATOM     16  N   UNL     1      43.888   2.517  10.288  0.00  0.00    +0.000 NA
ATOM     17  C   UNL     1      44.510   2.488   9.156  0.00  0.00    +0.000 A 
ATOM     18  N   UNL     1      45.289   3.503   8.661  0.00  0.00    +0.000 N 
ATOM     19  C   UNL     1      45.492   4.688   9.331  0.00  0.00    +0.000 A 
ATOM     20  O   UNL     1      46.193   5.579   8.862  0.00  0.00    +0.000 OA
ATOM     21  C   UNL     1      44.806   4.768  10.607  0.00  0.00    +0.000 A 
ATOM     22  H   UNL     1      45.747   3.415   7.767  0.00  0.00    +0.000 HD
ENDBRANCH  11  12
ENDBRANCH   8  11
ENDBRANCH   7   8
ENDBRANCH   1   7
BRANCH   4  23
ATOM     23  C   UNL     1      47.828   3.559  17.514  0.00  0.00    +0.000 C 
BRANCH  23  24
ATOM     24  O   UNL     1      46.585   2.862  17.699  0.00  0.00    +0.000 OA
ATOM     25  H   UNL     1      46.804   1.979  18.045  0.00  0.00    +0.000 HD
ENDBRANCH  23  24
BRANCH  23  26
ATOM     26  C   UNL     1      48.985   2.538  17.573  0.00  0.00    +0.000 C 
BRANCH  26  27
ATOM     27  N   UNL     1      50.284   3.196  17.749  0.00  0.00    +0.000 N 
ATOM     28  C   UNL     1      51.348   2.370  17.692  0.00  0.00    +0.000 A 
ATOM     29  N   UNL     1      51.379   1.103  17.350  0.00  0.00    +0.000 NA
ATOM     30  C   UNL     1      52.691   0.721  17.452  0.00  0.00    +0.000 A 
ATOM     31  C   UNL     1      53.473   1.776  17.856  0.00  0.00    +0.000 A 
ATOM     32  N   UNL     1      52.601   2.821  18.009  0.00  0.00    +0.000 N 
ATOM     33  H   UNL     1      50.253   3.912  18.475  0.00  0.00    +0.000 HD
ATOM     34  H   UNL     1      52.826   3.766  18.274  0.00  0.00    +0.000 HD
ENDBRANCH  26  27
ENDBRANCH  23  26
ENDBRANCH   4  23
TORSDOF 8
ENDMDL
MODEL 3
REMARK VINA RESULT:    -7.675      2.473      3.267
REMARK INTER + INTRA:         -11.885
REMARK INTER:                 -10.712
REMARK INTRA:                  -1.173
REMARK UNBOUND:                -0.844
REMARK  Name = 
REMARK  9 active torsions:
REMARK  status: ('A' for Active; 'I' for Inactive)
REMARK    1  A    between atoms: C_1  and  C_2
REMARK    2  A    between atoms: C_2  and  N_3
REMARK    3  A    between atoms: C_2  and  C_20
REMARK    4  A    between atoms: N_3  and  C_4
REMARK    5  A    between atoms: C_4  and  C_5
REMARK    6  A    between atoms: C_8  and  C_9
REMARK    7  A    between atoms: C_9  and  O_10
REMARK    8  A    between atoms: C_9  and  C_11
REMARK    9  A    between atoms: C_11  and  N_12
REMARK                            x       y       z     vdW  Elec       q    Type
REMARK                         _______ _______ _______ _____ _____    ______ ____
ROOT
ATOM      1  C   UNL     1      47.463   6.274  13.032  0.00  0.00    +0.000 A 
ATOM      2  C   UNL     1      47.275   4.925  13.360  0.00  0.00    +0.000 A 
ATOM      3  C   UNL     1      45.998   4.351  13.316  0.00  0.00    +0.000 A 
ATOM      4  C   UNL     1      44.880   5.113  12.942  0.00  0.00    +0.000 A 
ATOM      5  C   UNL     1      45.076   6.464  12.625  0.00  0.00    +0.000 A 
ATOM      6  C   UNL     1      46.348   7.033  12.659  0.00  0.00    +0.000 A 
ENDROOT
BRANCH   1   7
ATOM      7  C   UNL     1      48.812   6.944  13.143  0.00  0.00    +0.000 C 
BRANCH   7   8
ATOM      8  N   UNL     1      49.474   6.679  14.421  0.00  0.00    +0.000 NA
ATOM      9  H   UNL     1      49.512   5.670  14.557  0.00  0.00    +0.000 HD
BRANCH   8  11
ATOM     10  C   UNL     1      48.564   8.784  15.424  0.00  0.00    +0.000 C 
ATOM     11  C   UNL     1      48.734   7.265  15.552  0.00  0.00    +0.000 C 
BRANCH  11  12
ATOM     12  C   UNL     1      49.473   6.939  16.838  0.00  0.00    +0.000 A 
ATOM     13  C   UNL     1      50.556   7.637  17.351  0.00  0.00    +0.000 A 
ATOM     14  S   UNL     1      51.102   7.027  18.852  0.00  0.00    +0.000 S 
ATOM     15  C   UNL     1      49.888   5.834  18.880  0.00  0.00    +0.000 A 
ATOM     16  N   UNL     1      49.760   4.974  19.926  0.00  0.00    +0.000 NA
ATOM     17  C   UNL     1      48.779   4.143  19.812  0.00  0.00    +0.000 A 
ATOM     18  N   UNL     1      47.917   4.085  18.746  0.00  0.00    +0.000 N 
ATOM     19  C   UNL     1      48.007   4.928  17.663  0.00  0.00    +0.000 A 
ATOM     20  O   UNL     1      47.220   4.855  16.724  0.00  0.00    +0.000 OA
ATOM     21  C   UNL     1      49.093   5.886  17.751  0.00  0.00    +0.000 A 
ATOM     22  H   UNL     1      47.170   3.409  18.721  0.00  0.00    +0.000 HD
ENDBRANCH  11  12
ENDBRANCH   8  11
ENDBRANCH   7   8
ENDBRANCH   1   7
BRANCH   4  23
ATOM     23  C   UNL     1      43.500   4.475  12.932  0.00  0.00    +0.000 C 
BRANCH  23  24
ATOM     24  O   UNL     1      42.544   5.418  13.442  0.00  0.00    +0.000 OA
ATOM     25  H   UNL     1      42.036   4.960  14.136  0.00  0.00    +0.000 HD
ENDBRANCH  23  24
BRANCH  23  26
ATOM     26  C   UNL     1      43.046   4.015  11.531  0.00  0.00    +0.000 C 
BRANCH  26  27
ATOM     27  N   UNL     1      43.751   2.803  11.100  0.00  0.00    +0.000 N 
ATOM     28  C   UNL     1      44.472   2.941   9.968  0.00  0.00    +0.000 A 
ATOM     29  N   UNL     1      44.744   4.039   9.303  0.00  0.00    +0.000 NA
ATOM     30  C   UNL     1      45.505   3.650   8.233  0.00  0.00    +0.000 A 
ATOM     31  C   UNL     1      45.707   2.291   8.252  0.00  0.00    +0.000 A 
ATOM     32  N   UNL     1      45.038   1.852   9.363  0.00  0.00    +0.000 N 
ATOM     33  H   UNL     1      43.181   1.966  11.223  0.00  0.00    +0.000 HD
ATOM     34  H   UNL     1      44.988   0.906   9.707  0.00  0.00    +0.000 HD
ENDBRANCH  26  27
ENDBRANCH  23  26
ENDBRANCH   4  23
TORSDOF 8
ENDMDL
MODEL 4
REMARK VINA RESULT:    -7.611      3.543      4.911
REMARK INTER + INTRA:         -11.793
REMARK INTER:                 -10.509
REMARK INTRA:                  -1.284
REMARK UNBOUND:                -0.844
REMARK  Name = 
REMARK  9 active torsions:
REMARK  status: ('A' for Active; 'I' for Inactive)
REMARK    1  A    between atoms: C_1  and  C_2
REMARK    2  A    between atoms: C_2  and  N_3
REMARK    3  A    between atoms: C_2  and  C_20
REMARK    4  A    between atoms: N_3  and  C_4
REMARK    5  A    between atoms: C_4  and  C_5
REMARK    6  A    between atoms: C_8  and  C_9
REMARK    7  A    between atoms: C_9  and  O_10
REMARK    8  A    between atoms: C_9  and  C_11
REMARK    9  A    between atoms: C_11  and  N_12
REMARK                            x       y       z     vdW  Elec       q    Type
REMARK                         _______ _______ _______ _____ _____    ______ ____
ROOT
ATOM      1  C   UNL     1      47.478   6.550  12.565  0.00  0.00    +0.000 A 
ATOM      2  C   UNL     1      47.300   5.495  13.469  0.00  0.00    +0.000 A 
ATOM      3  C   UNL     1      46.063   4.845  13.572  0.00  0.00    +0.000 A 
ATOM      4  C   UNL     1      44.977   5.235  12.774  0.00  0.00    +0.000 A 
ATOM      5  C   UNL     1      45.161   6.298  11.880  0.00  0.00    +0.000 A 
ATOM      6  C   UNL     1      46.394   6.938  11.769  0.00  0.00    +0.000 A 
ENDROOT
BRANCH   1   7
ATOM      7  C   UNL     1      48.773   7.324  12.483  0.00  0.00    +0.000 C 
BRANCH   7   8
ATOM      8  N   UNL     1      49.755   6.894  13.477  0.00  0.00    +0.000 NA
ATOM      9  H   UNL     1      49.354   6.122  14.009  0.00  0.00    +0.000 HD
BRANCH   8  11
ATOM     10  C   UNL     1      51.598   8.149  14.615  0.00  0.00    +0.000 C 
ATOM     11  C   UNL     1      50.087   7.975  14.421  0.00  0.00    +0.000 C 
BRANCH  11  12
ATOM     12  C   UNL     1      49.431   7.674  15.757  0.00  0.00    +0.000 A 
ATOM     13  C   UNL     1      49.421   6.444  16.397  0.00  0.00    +0.000 A 
ATOM     14  S   UNL     1      48.640   6.480  17.917  0.00  0.00    +0.000 S 
ATOM     15  C   UNL     1      48.320   8.147  17.783  0.00  0.00    +0.000 A 
ATOM     16  N   UNL     1      47.696   8.834  18.778  0.00  0.00    +0.000 NA
ATOM     17  C   UNL     1      47.546  10.094  18.539  0.00  0.00    +0.000 A 
ATOM     18  N   UNL     1      47.955  10.731  17.395  0.00  0.00    +0.000 N 
ATOM     19  C   UNL     1      48.586  10.081  16.359  0.00  0.00    +0.000 A 
ATOM     20  O   UNL     1      48.943  10.679  15.348  0.00  0.00    +0.000 OA
ATOM     21  C   UNL     1      48.783   8.662  16.587  0.00  0.00    +0.000 A 
ATOM     22  H   UNL     1      47.806  11.721  17.272  0.00  0.00    +0.000 HD
ENDBRANCH  11  12
ENDBRANCH   8  11
ENDBRANCH   7   8
ENDBRANCH   1   7
BRANCH   4  23
ATOM     23  C   UNL     1      43.637   4.535  12.927  0.00  0.00    +0.000 C 
BRANCH  23  24
ATOM     24  O   UNL     1      42.660   5.484  13.383  0.00  0.00    +0.000 OA
ATOM     25  H   UNL     1      43.136   6.149  13.912  0.00  0.00    +0.000 HD
ENDBRANCH  23  24
BRANCH  23  26
ATOM     26  C   UNL     1      43.129   3.887  11.621  0.00  0.00    +0.000 C 
BRANCH  26  27
ATOM     27  N   UNL     1      43.994   2.785  11.186  0.00  0.00    +0.000 N 
ATOM     28  C   UNL     1      44.543   2.946   9.965  0.00  0.00    +0.000 A 
ATOM     29  N   UNL     1      44.527   4.011   9.198  0.00  0.00    +0.000 NA
ATOM     30  C   UNL     1      45.221   3.667   8.067  0.00  0.00    +0.000 A 
ATOM     31  C   UNL     1      45.674   2.373   8.152  0.00  0.00    +0.000 A 
ATOM     32  N   UNL     1      45.230   1.924   9.367  0.00  0.00    +0.000 N 
ATOM     33  H   UNL     1      43.608   1.875  11.438  0.00  0.00    +0.000 HD
ATOM     34  H   UNL     1      45.397   1.020   9.778  0.00  0.00    +0.000 HD
ENDBRANCH  26  27
ENDBRANCH  23  26
ENDBRANCH   4  23
TORSDOF 8
ENDMDL
MODEL 5
REMARK VINA RESULT:    -7.534      2.224      2.715
REMARK INTER + INTRA:         -11.682
REMARK INTER:                 -10.823
REMARK INTRA:                  -0.859
REMARK UNBOUND:                -0.844
REMARK  Name = 
REMARK  9 active torsions:
REMARK  status: ('A' for Active; 'I' for Inactive)
REMARK    1  A    between atoms: C_1  and  C_2
REMARK    2  A    between atoms: C_2  and  N_3
REMARK    3  A    between atoms: C_2  and  C_20
REMARK    4  A    between atoms: N_3  and  C_4
REMARK    5  A    between atoms: C_4  and  C_5
REMARK    6  A    between atoms: C_8  and  C_9
REMARK    7  A    between atoms: C_9  and  O_10
REMARK    8  A    between atoms: C_9  and  C_11
REMARK    9  A    between atoms: C_11  and  N_12
REMARK                            x       y       z     vdW  Elec       q    Type
REMARK                         _______ _______ _______ _____ _____    ______ ____
ROOT
ATOM      1  C   UNL     1      46.510   4.916  13.618  0.00  0.00    +0.000 A 
ATOM      2  C   UNL     1      45.916   5.918  12.840  0.00  0.00    +0.000 A 
ATOM      3  C   UNL     1      45.045   5.588  11.794  0.00  0.00    +0.000 A 
ATOM      4  C   UNL     1      44.747   4.248  11.502  0.00  0.00    +0.000 A 
ATOM      5  C   UNL     1      45.353   3.251  12.279  0.00  0.00    +0.000 A 
ATOM      6  C   UNL     1      46.212   3.579  13.327  0.00  0.00    +0.000 A 
ENDROOT
BRANCH   1   7
ATOM      7  C   UNL     1      47.513   5.232  14.702  0.00  0.00    +0.000 C 
BRANCH   7   8
ATOM      8  N   UNL     1      47.100   4.743  16.017  0.00  0.00    +0.000 NA
ATOM      9  H   UNL     1      46.523   5.459  16.458  0.00  0.00    +0.000 HD
BRANCH   8  11
ATOM     10  C   UNL     1      48.198   3.107  17.561  0.00  0.00    +0.000 C 
ATOM     11  C   UNL     1      48.257   4.486  16.892  0.00  0.00    +0.000 C 
BRANCH  11  12
ATOM     12  C   UNL     1      48.313   5.568  17.956  0.00  0.00    +0.000 A 
ATOM     13  C   UNL     1      47.494   5.653  19.072  0.00  0.00    +0.000 A 
ATOM     14  S   UNL     1      47.877   6.972  20.090  0.00  0.00    +0.000 S 
ATOM     15  C   UNL     1      49.169   7.451  19.090  0.00  0.00    +0.000 A 
ATOM     16  N   UNL     1      49.957   8.513  19.407  0.00  0.00    +0.000 NA
ATOM     17  C   UNL     1      50.909   8.737  18.563  0.00  0.00    +0.000 A 
ATOM     18  N   UNL     1      51.141   8.003  17.427  0.00  0.00    +0.000 N 
ATOM     19  C   UNL     1      50.371   6.924  17.061  0.00  0.00    +0.000 A 
ATOM     20  O   UNL     1      50.605   6.285  16.040  0.00  0.00    +0.000 OA
ATOM     21  C   UNL     1      49.292   6.630  17.985  0.00  0.00    +0.000 A 
ATOM     22  H   UNL     1      51.905   8.233  16.810  0.00  0.00    +0.000 HD
ENDBRANCH  11  12
ENDBRANCH   8  11
ENDBRANCH   7   8
ENDBRANCH   1   7
BRANCH   4  23
ATOM     23  C   UNL     1      43.824   3.914  10.342  0.00  0.00    +0.000 C 
BRANCH  23  24
ATOM     24  O   UNL     1      43.461   5.128   9.665  0.00  0.00    +0.000 OA
ATOM     25  H   UNL     1      42.692   4.922   9.105  0.00  0.00    +0.000 HD
ENDBRANCH  23  24
BRANCH  23  26
ATOM     26  C   UNL     1      44.450   2.942   9.318  0.00  0.00    +0.000 C 
BRANCH  26  27
ATOM     27  N   UNL     1      45.239   3.651   8.305  0.00  0.00    +0.000 N 
ATOM     28  C   UNL     1      46.229   2.924   7.749  0.00  0.00    +0.000 A 
ATOM     29  N   UNL     1      46.471   1.640   7.882  0.00  0.00    +0.000 NA
ATOM     30  C   UNL     1      47.581   1.389   7.119  0.00  0.00    +0.000 A 
ATOM     31  C   UNL     1      48.016   2.538   6.504  0.00  0.00    +0.000 A 
ATOM     32  N   UNL     1      47.146   3.510   6.919  0.00  0.00    +0.000 N 
ATOM     33  H   UNL     1      45.428   4.616   8.577  0.00  0.00    +0.000 HD
ATOM     34  H   UNL     1      47.144   4.479   6.648  0.00  0.00    +0.000 HD
ENDBRANCH  26  27
ENDBRANCH  23  26
ENDBRANCH   4  23
TORSDOF 8
ENDMDL
MODEL 6
REMARK VINA RESULT:    -7.240      3.046      4.382
REMARK INTER + INTRA:         -11.259
REMARK INTER:                 -10.008
REMARK INTRA:                  -1.251
REMARK UNBOUND:                -0.844
REMARK  Name = 
REMARK  9 active torsions:
REMARK  status: ('A' for Active; 'I' for Inactive)
REMARK    1  A    between atoms: C_1  and  C_2
REMARK    2  A    between atoms: C_2  and  N_3
REMARK    3  A    between atoms: C_2  and  C_20
REMARK    4  A    between atoms: N_3  and  C_4
REMARK    5  A    between atoms: C_4  and  C_5
REMARK    6  A    between atoms: C_8  and  C_9
REMARK    7  A    between atoms: C_9  and  O_10
REMARK    8  A    between atoms: C_9  and  C_11
REMARK    9  A    between atoms: C_11  and  N_12
REMARK                            x       y       z     vdW  Elec       q    Type
REMARK                         _______ _______ _______ _____ _____    ______ ____
ROOT
ATOM      1  C   UNL     1      46.422   4.524  13.890  0.00  0.00    +0.000 A 
ATOM      2  C   UNL     1      45.630   5.576  13.414  0.00  0.00    +0.000 A 
ATOM      3  C   UNL     1      44.777   5.389  12.319  0.00  0.00    +0.000 A 
ATOM      4  C   UNL     1      44.697   4.145  11.675  0.00  0.00    +0.000 A 
ATOM      5  C   UNL     1      45.501   3.100  12.151  0.00  0.00    +0.000 A 
ATOM      6  C   UNL     1      46.341   3.283  13.248  0.00  0.00    +0.000 A 
ENDROOT
BRANCH   1   7
ATOM      7  C   UNL     1      47.408   4.712  15.019  0.00  0.00    +0.000 C 
BRANCH   7   8
ATOM      8  N   UNL     1      47.611   6.118  15.368  0.00  0.00    +0.000 NA
ATOM      9  H   UNL     1      47.330   6.688  14.572  0.00  0.00    +0.000 HD
BRANCH   8  11
ATOM     10  C   UNL     1      49.373   6.209  17.144  0.00  0.00    +0.000 C 
ATOM     11  C   UNL     1      49.024   6.409  15.664  0.00  0.00    +0.000 C 
BRANCH  11  12
ATOM     12  C   UNL     1      49.320   7.842  15.258  0.00  0.00    +0.000 A 
ATOM     13  C   UNL     1      49.556   8.899  16.124  0.00  0.00    +0.000 A 
ATOM     14  S   UNL     1      49.915  10.364  15.320  0.00  0.00    +0.000 S 
ATOM     15  C   UNL     1      49.800   9.625  13.790  0.00  0.00    +0.000 A 
ATOM     16  N   UNL     1      50.033  10.322  12.645  0.00  0.00    +0.000 NA
ATOM     17  C   UNL     1      49.930   9.618  11.567  0.00  0.00    +0.000 A 
ATOM     18  N   UNL     1      49.607   8.285  11.526  0.00  0.00    +0.000 N 
ATOM     19  C   UNL     1      49.359   7.539  12.654  0.00  0.00    +0.000 A 
ATOM     20  O   UNL     1      49.076   6.346  12.586  0.00  0.00    +0.000 OA
ATOM     21  C   UNL     1      49.471   8.287  13.892  0.00  0.00    +0.000 A 
ATOM     22  H   UNL     1      49.544   7.795  10.647  0.00  0.00    +0.000 HD
ENDBRANCH  11  12
ENDBRANCH   8  11
ENDBRANCH   7   8
ENDBRANCH   1   7
BRANCH   4  23
ATOM     23  C   UNL     1      43.788   3.975  10.468  0.00  0.00    +0.000 C 
BRANCH  23  24
ATOM     24  O   UNL     1      43.589   5.255   9.846  0.00  0.00    +0.000 OA
ATOM     25  H   UNL     1      44.018   5.918  10.417  0.00  0.00    +0.000 HD
ENDBRANCH  23  24
BRANCH  23  26
ATOM     26  C   UNL     1      44.341   2.991   9.416  0.00  0.00    +0.000 C 
BRANCH  26  27
ATOM     27  N   UNL     1      45.158   3.674   8.407  0.00  0.00    +0.000 N 
ATOM     28  C   UNL     1      46.127   2.914   7.856  0.00  0.00    +0.000 A 
ATOM     29  N   UNL     1      46.327   1.624   7.990  0.00  0.00    +0.000 NA
ATOM     30  C   UNL     1      47.432   1.336   7.234  0.00  0.00    +0.000 A 
ATOM     31  C   UNL     1      47.908   2.470   6.621  0.00  0.00    +0.000 A 
ATOM     32  N   UNL     1      47.067   3.470   7.031  0.00  0.00    +0.000 N 
ATOM     33  H   UNL     1      45.377   4.632   8.679  0.00  0.00    +0.000 HD
ATOM     34  H   UNL     1      47.099   4.440   6.760  0.00  0.00    +0.000 HD
ENDBRANCH  26  27
ENDBRANCH  23  26
ENDBRANCH   4  23
TORSDOF 8
ENDMDL
MODEL 7
REMARK VINA RESULT:    -7.237      1.947      2.365
REMARK INTER + INTRA:         -11.254
REMARK INTER:                 -10.407
REMARK INTRA:                  -0.848
REMARK UNBOUND:                -0.844
REMARK  Name = 
REMARK  9 active torsions:
REMARK  status: ('A' for Active; 'I' for Inactive)
REMARK    1  A    between atoms: C_1  and  C_2
REMARK    2  A    between atoms: C_2  and  N_3
REMARK    3  A    between atoms: C_2  and  C_20
REMARK    4  A    between atoms: N_3  and  C_4
REMARK    5  A    between atoms: C_4  and  C_5
REMARK    6  A    between atoms: C_8  and  C_9
REMARK    7  A    between atoms: C_9  and  O_10
REMARK    8  A    between atoms: C_9  and  C_11
REMARK    9  A    between atoms: C_11  and  N_12
REMARK                            x       y       z     vdW  Elec       q    Type
REMARK                         _______ _______ _______ _____ _____    ______ ____
ROOT
ATOM      1  C   UNL     1      46.519   4.898  13.787  0.00  0.00    +0.000 A 
ATOM      2  C   UNL     1      45.748   5.897  13.181  0.00  0.00    +0.000 A 
ATOM      3  C   UNL     1      44.876   5.588  12.128  0.00  0.00    +0.000 A 
ATOM      4  C   UNL     1      44.756   4.270  11.659  0.00  0.00    +0.000 A 
ATOM      5  C   UNL     1      45.539   3.278  12.265  0.00  0.00    +0.000 A 
ATOM      6  C   UNL     1      46.398   3.584  13.319  0.00  0.00    +0.000 A 
ENDROOT
BRANCH   1   7
ATOM      7  C   UNL     1      47.524   5.209  14.870  0.00  0.00    +0.000 C 
BRANCH   7   8
ATOM      8  N   UNL     1      48.449   6.279  14.496  0.00  0.00    +0.000 NA
ATOM      9  H   UNL     1      49.277   5.854  14.080  0.00  0.00    +0.000 HD
BRANCH   8  11
ATOM     10  C   UNL     1      48.461   8.537  15.575  0.00  0.00    +0.000 C 
ATOM     11  C   UNL     1      48.878   7.064  15.666  0.00  0.00    +0.000 C 
BRANCH  11  12
ATOM     12  C   UNL     1      50.388   6.968  15.791  0.00  0.00    +0.000 A 
ATOM     13  C   UNL     1      51.310   7.779  15.146  0.00  0.00    +0.000 A 
ATOM     14  S   UNL     1      52.929   7.426  15.565  0.00  0.00    +0.000 S 
ATOM     15  C   UNL     1      52.449   6.201  16.645  0.00  0.00    +0.000 A 
ATOM     16  N   UNL     1      53.358   5.504  17.380  0.00  0.00    +0.000 NA
ATOM     17  C   UNL     1      52.838   4.625  18.170  0.00  0.00    +0.000 A 
ATOM     18  N   UNL     1      51.495   4.371  18.289  0.00  0.00    +0.000 N 
ATOM     19  C   UNL     1      50.537   5.044  17.566  0.00  0.00    +0.000 A 
ATOM     20  O   UNL     1      49.342   4.798  17.697  0.00  0.00    +0.000 OA
ATOM     21  C   UNL     1      51.075   6.050  16.669  0.00  0.00    +0.000 A 
ATOM     22  H   UNL     1      51.156   3.669  18.928  0.00  0.00    +0.000 HD
ENDBRANCH  11  12
ENDBRANCH   8  11
ENDBRANCH   7   8
ENDBRANCH   1   7
BRANCH   4  23
ATOM     23  C   UNL     1      43.828   3.965  10.495  0.00  0.00    +0.000 C 
BRANCH  23  24
ATOM     24  O   UNL     1      43.512   5.188   9.812  0.00  0.00    +0.000 OA
ATOM     25  H   UNL     1      43.753   5.918  10.410  0.00  0.00    +0.000 HD
ENDBRANCH  23  24
BRANCH  23  26
ATOM     26  C   UNL     1      44.424   2.967   9.479  0.00  0.00    +0.000 C 
BRANCH  26  27
ATOM     27  N   UNL     1      45.165   3.650   8.414  0.00  0.00    +0.000 N 
ATOM     28  C   UNL     1      46.136   2.913   7.838  0.00  0.00    +0.000 A 
ATOM     29  N   UNL     1      46.392   1.635   7.997  0.00  0.00    +0.000 NA
ATOM     30  C   UNL     1      47.470   1.368   7.196  0.00  0.00    +0.000 A 
ATOM     31  C   UNL     1      47.872   2.501   6.530  0.00  0.00    +0.000 A 
ATOM     32  N   UNL     1      47.013   3.480   6.954  0.00  0.00    +0.000 N 
ATOM     33  H   UNL     1      45.359   4.624   8.650  0.00  0.00    +0.000 HD
ATOM     34  H   UNL     1      46.994   4.441   6.655  0.00  0.00    +0.000 HD
ENDBRANCH  26  27
ENDBRANCH  23  26
ENDBRANCH   4  23
TORSDOF 8
ENDMDL
MODEL 8
REMARK VINA RESULT:    -6.878      2.979      9.385
REMARK INTER + INTRA:         -10.738
REMARK INTER:                  -9.568
REMARK INTRA:                  -1.169
REMARK UNBOUND:                -0.844
REMARK  Name = 
REMARK  9 active torsions:
REMARK  status: ('A' for Active; 'I' for Inactive)
REMARK    1  A    between atoms: C_1  and  C_2
REMARK    2  A    between atoms: C_2  and  N_3
REMARK    3  A    between atoms: C_2  and  C_20
REMARK    4  A    between atoms: N_3  and  C_4
REMARK    5  A    between atoms: C_4  and  C_5
REMARK    6  A    between atoms: C_8  and  C_9
REMARK    7  A    between atoms: C_9  and  O_10
REMARK    8  A    between atoms: C_9  and  C_11
REMARK    9  A    between atoms: C_11  and  N_12
REMARK                            x       y       z     vdW  Elec       q    Type
REMARK                         _______ _______ _______ _____ _____    ______ ____
ROOT
ATOM      1  C   UNL     1      47.306   6.005  13.752  0.00  0.00    +0.000 A 
ATOM      2  C   UNL     1      47.958   6.268  14.963  0.00  0.00    +0.000 A 
ATOM      3  C   UNL     1      48.219   5.235  15.873  0.00  0.00    +0.000 A 
ATOM      4  C   UNL     1      47.834   3.915  15.592  0.00  0.00    +0.000 A 
ATOM      5  C   UNL     1      47.174   3.662  14.382  0.00  0.00    +0.000 A 
ATOM      6  C   UNL     1      46.923   4.688  13.472  0.00  0.00    +0.000 A 
ENDROOT
BRANCH   1   7
ATOM      7  C   UNL     1      46.940   7.105  12.784  0.00  0.00    +0.000 C 
BRANCH   7   8
ATOM      8  N   UNL     1      46.774   6.623  11.413  0.00  0.00    +0.000 NA
ATOM      9  H   UNL     1      47.344   7.204  10.799  0.00  0.00    +0.000 HD
BRANCH   8  11
ATOM     10  C   UNL     1      44.550   7.703  11.805  0.00  0.00    +0.000 C 
ATOM     11  C   UNL     1      45.374   6.719  10.965  0.00  0.00    +0.000 C 
BRANCH  11  12
ATOM     12  C   UNL     1      44.746   5.339  11.031  0.00  0.00    +0.000 A 
ATOM     13  C   UNL     1      43.885   4.885  12.019  0.00  0.00    +0.000 A 
ATOM     14  S   UNL     1      43.320   3.295  11.745  0.00  0.00    +0.000 S 
ATOM     15  C   UNL     1      44.182   3.174  10.281  0.00  0.00    +0.000 A 
ATOM     16  N   UNL     1      44.110   2.061   9.503  0.00  0.00    +0.000 NA
ATOM     17  C   UNL     1      44.800   2.130   8.414  0.00  0.00    +0.000 A 
ATOM     18  N   UNL     1      45.563   3.204   8.033  0.00  0.00    +0.000 N 
ATOM     19  C   UNL     1      45.673   4.351   8.787  0.00  0.00    +0.000 A 
ATOM     20  O   UNL     1      46.361   5.298   8.419  0.00  0.00    +0.000 OA
ATOM     21  C   UNL     1      44.906   4.322  10.018  0.00  0.00    +0.000 A 
ATOM     22  H   UNL     1      46.079   3.192   7.167  0.00  0.00    +0.000 HD
ENDBRANCH  11  12
ENDBRANCH   8  11
ENDBRANCH   7   8
ENDBRANCH   1   7
BRANCH   4  23
ATOM     23  C   UNL     1      48.100   2.817  16.609  0.00  0.00    +0.000 C 
BRANCH  23  24
ATOM     24  O   UNL     1      49.501   2.497  16.599  0.00  0.00    +0.000 OA
ATOM     25  H   UNL     1      49.974   3.303  16.327  0.00  0.00    +0.000 HD
ENDBRANCH  23  24
BRANCH  23  26
ATOM     26  C   UNL     1      47.687   3.198  18.046  0.00  0.00    +0.000 C 
BRANCH  26  27
ATOM     27  N   UNL     1      48.834   3.201  18.961  0.00  0.00    +0.000 N 
ATOM     28  C   UNL     1      49.040   4.368  19.604  0.00  0.00    +0.000 A 
ATOM     29  N   UNL     1      48.269   5.429  19.636  0.00  0.00    +0.000 NA
ATOM     30  C   UNL     1      48.920   6.341  20.424  0.00  0.00    +0.000 A 
ATOM     31  C   UNL     1      50.104   5.822  20.888  0.00  0.00    +0.000 A 
ATOM     32  N   UNL     1      50.169   4.563  20.353  0.00  0.00    +0.000 N 
ATOM     33  H   UNL     1      49.634   2.704  18.569  0.00  0.00    +0.000 HD
ATOM     34  H   UNL     1      50.893   3.878  20.499  0.00  0.00    +0.000 HD
ENDBRANCH  26  27
ENDBRANCH  23  26
ENDBRANCH   4  23
TORSDOF 8
ENDMDL
