MODEL 1
REMARK VINA RESULT:    -7.815      0.000      0.000
REMARK INTER + INTRA:         -11.339
REMARK INTER:                 -10.556
REMARK INTRA:                  -0.784
REMARK UNBOUND:                -0.784
REMARK  Name = 
REMARK  8 active torsions:
REMARK  status: ('A' for Active; 'I' for Inactive)
REMARK    1  A    between atoms: C_1  and  N_2
REMARK    2  A    between atoms: N_2  and  C_3
REMARK    3  A    between atoms: C_3  and  C_4
REMARK    4  A    between atoms: C_7  and  C_8
REMARK    5  A    between atoms: C_8  and  N_9
REMARK    6  A    between atoms: N_9  and  C_10
REMARK    7  A    between atoms: C_13  and  C_14
REMARK    8  A    between atoms: C_18  and  C_19
REMARK                            x       y       z     vdW  Elec       q    Type
REMARK                         _______ _______ _______ _____ _____    ______ ____
ROOT
ATOM      1  N   UNL     1      44.356   5.252   9.924  0.00  0.00    +0.000 N 
ATOM      2  H   UNL     1      43.619   5.660   9.358  0.00  0.00    +0.000 HD
ENDROOT
BRANCH   1   3
ATOM      3  C   UNL     1      45.116   4.370   9.134  0.00  0.00    +0.000 A 
ATOM      4  N   UNL     1      45.975   4.892   8.230  0.00  0.00    +0.000 NA
ATOM      5  C   UNL     1      46.715   4.051   7.465  0.00  0.00    +0.000 A 
ATOM      6  C   UNL     1      46.665   2.675   7.554  0.00  0.00    +0.000 A 
ATOM      7  C   UNL     1      45.800   2.141   8.509  0.00  0.00    +0.000 A 
ATOM      8  C   UNL     1      45.002   2.982   9.306  0.00  0.00    +0.000 A 
ATOM      9  C   UNL     1      44.102   2.360  10.334  0.00  0.00    +0.000 C 
BRANCH   6  10
ATOM     10  C   UNL     1      47.463   1.765   6.698  0.00  0.00    +0.000 C 
ATOM     11  N   UNL     1      48.569   2.252   6.058  0.00  0.00    +0.000 N 
ATOM     12  O   UNL     1      47.139   0.590   6.548  0.00  0.00    +0.000 OA
ATOM     13  H   UNL     1      48.907   3.200   6.088  0.00  0.00    +0.000 HD
ATOM     14  H   UNL     1      49.071   1.597   5.468  0.00  0.00    +0.000 HD
ENDBRANCH   6  10
ENDBRANCH   1   3
BRANCH   1  15
ATOM     15  C   UNL     1      45.161   6.290  10.567  0.00  0.00    +0.000 C 
BRANCH  15  19
ATOM     16  C   UNL     1      46.809   4.810  14.303  0.00  0.00    +0.000 A 
ATOM     17  C   UNL     1      45.531   4.418  13.877  0.00  0.00    +0.000 A 
ATOM     18  C   UNL     1      44.993   4.909  12.681  0.00  0.00    +0.000 A 
ATOM     19  C   UNL     1      45.721   5.802  11.884  0.00  0.00    +0.000 A 
ATOM     20  C   UNL     1      46.991   6.208  12.317  0.00  0.00    +0.000 A 
ATOM     21  C   UNL     1      47.530   5.714  13.510  0.00  0.00    +0.000 A 
BRANCH  16  22
ATOM     22  C   UNL     1      47.387   4.294  15.604  0.00  0.00    +0.000 C 
BRANCH  22  24
ATOM     23  C   UNL     1      48.627   2.516  16.657  0.00  0.00    +0.000 C 
ATOM     24  N   UNL     1      47.889   2.925  15.471  0.00  0.00    +0.000 NA
ATOM     25  H   UNL     1      47.101   2.295  15.336  0.00  0.00    +0.000 HD
ENDBRANCH  22  24
ENDBRANCH  16  22
ENDBRANCH  15  19
ENDBRANCH   1  15
TORSDOF 6
ENDMDL
MODEL 2
REMARK VINA RESULT:    -7.360      2.326      6.827
REMARK INTER + INTRA:         -10.726
REMARK INTER:                 -10.283
REMARK INTRA:                  -0.443
REMARK UNBOUND:                -0.784
REMARK  Name = 
REMARK  8 active torsions:
REMARK  status: ('A' for Active; 'I' for Inactive)
REMARK    1  A    between atoms: C_1  and  N_2
REMARK    2  A    between atoms: N_2  and  C_3
REMARK    3  A    between atoms: C_3  and  C_4
REMARK    4  A    between atoms: C_7  and  C_8
REMARK    5  A    between atoms: C_8  and  N_9
REMARK    6  A    between atoms: N_9  and  C_10
REMARK    7  A    between atoms: C_13  and  C_14
REMARK    8  A    between atoms: C_18  and  C_19
REMARK                            x       y       z     vdW  Elec       q    Type
REMARK                         _______ _______ _______ _____ _____    ______ ____
ROOT
ATOM      1  N   UNL     1      44.583   5.977  10.725  0.00  0.00    +0.000 N 
ATOM      2  H   UNL     1      44.018   6.782  10.973  0.00  0.00    +0.000 HD
ENDROOT
BRANCH   1   3
ATOM      3  C   UNL     1      45.261   5.514  11.868  0.00  0.00    +0.000 A 
ATOM      4  N   UNL     1      44.674   4.558  12.623  0.00  0.00    +0.000 NA
ATOM      5  C   UNL     1      45.319   4.102  13.725  0.00  0.00    +0.000 A 
ATOM      6  C   UNL     1      46.563   4.540  14.132  0.00  0.00    +0.000 A 
ATOM      7  C   UNL     1      47.179   5.504  13.334  0.00  0.00    +0.000 A 
ATOM      8  C   UNL     1      46.530   6.015  12.194  0.00  0.00    +0.000 A 
ATOM      9  C   UNL     1      47.243   7.036  11.356  0.00  0.00    +0.000 C 
BRANCH   6  10
ATOM     10  C   UNL     1      47.250   4.050  15.350  0.00  0.00    +0.000 C 
ATOM     11  N   UNL     1      47.234   4.819  16.480  0.00  0.00    +0.000 N 
ATOM     12  O   UNL     1      47.840   2.972  15.354  0.00  0.00    +0.000 OA
ATOM     13  H   UNL     1      46.808   5.727  16.579  0.00  0.00    +0.000 HD
ATOM     14  H   UNL     1      47.735   4.451  17.282  0.00  0.00    +0.000 HD
ENDBRANCH   6  10
ENDBRANCH   1   3
BRANCH   1  15
ATOM     15  C   UNL     1      43.772   4.946  10.078  0.00  0.00    +0.000 C 
BRANCH  15  19
ATOM     16  C   UNL     1      46.337   2.209   7.887  0.00  0.00    +0.000 A 
ATOM     17  C   UNL     1      46.413   3.594   7.670  0.00  0.00    +0.000 A 
ATOM     18  C   UNL     1      45.575   4.473   8.364  0.00  0.00    +0.000 A 
ATOM     19  C   UNL     1      44.641   3.991   9.291  0.00  0.00    +0.000 A 
ATOM     20  C   UNL     1      44.551   2.607   9.495  0.00  0.00    +0.000 A 
ATOM     21  C   UNL     1      45.393   1.727   8.804  0.00  0.00    +0.000 A 
BRANCH  16  22
ATOM     22  C   UNL     1      47.231   1.253   7.125  0.00  0.00    +0.000 C 
BRANCH  22  24
ATOM     23  C   UNL     1      47.928   2.360   5.101  0.00  0.00    +0.000 C 
ATOM     24  N   UNL     1      48.320   1.953   6.443  0.00  0.00    +0.000 NA
ATOM     25  H   UNL     1      48.571   2.781   6.981  0.00  0.00    +0.000 HD
ENDBRANCH  22  24
ENDBRANCH  16  22
ENDBRANCH  15  19
ENDBRANCH   1  15
TORSDOF 6
ENDMDL
MODEL 3
REMARK VINA RESULT:    -6.894      2.403      6.644
REMARK INTER + INTRA:         -10.096
REMARK INTER:                 -10.237
REMARK INTRA:                   0.142
REMARK UNBOUND:                -0.784
REMARK  Name = 
REMARK  8 active torsions:
REMARK  status: ('A' for Active; 'I' for Inactive)
REMARK    1  A    between atoms: C_1  and  N_2
REMARK    2  A    between atoms: N_2  and  C_3
REMARK    3  A    between atoms: C_3  and  C_4
REMARK    4  A    between atoms: C_7  and  C_8
REMARK    5  A    between atoms: C_8  and  N_9
REMARK    6  A    between atoms: N_9  and  C_10
REMARK    7  A    between atoms: C_13  and  C_14
REMARK    8  A    between atoms: C_18  and  C_19
REMARK                            x       y       z     vdW  Elec       q    Type
REMARK                         _______ _______ _______ _____ _____    ______ ____
ROOT
ATOM      1  N   UNL     1      44.498   5.971  10.630  0.00  0.00    +0.000 N 
ATOM      2  H   UNL     1      43.886   6.752  10.841  0.00  0.00    +0.000 HD
ENDROOT
BRANCH   1   3
ATOM      3  C   UNL     1      45.214   5.614  11.787  0.00  0.00    +0.000 A 
ATOM      4  N   UNL     1      46.539   5.883  11.833  0.00  0.00    +0.000 NA
ATOM      5  C   UNL     1      47.240   5.546  12.945  0.00  0.00    +0.000 A 
ATOM      6  C   UNL     1      46.685   4.951  14.060  0.00  0.00    +0.000 A 
ATOM      7  C   UNL     1      45.313   4.704  14.021  0.00  0.00    +0.000 A 
ATOM      8  C   UNL     1      44.559   5.021  12.876  0.00  0.00    +0.000 A 
ATOM      9  C   UNL     1      43.081   4.754  12.891  0.00  0.00    +0.000 C 
BRANCH   6  10
ATOM     10  C   UNL     1      47.465   4.569  15.261  0.00  0.00    +0.000 C 
ATOM     11  N   UNL     1      47.865   5.542  16.134  0.00  0.00    +0.000 N 
ATOM     12  O   UNL     1      47.764   3.397  15.475  0.00  0.00    +0.000 OA
ATOM     13  H   UNL     1      47.701   6.532  16.041  0.00  0.00    +0.000 HD
ATOM     14  H   UNL     1      48.413   5.234  16.930  0.00  0.00    +0.000 HD
ENDBRANCH   6  10
ENDBRANCH   1   3
BRANCH   1  15
ATOM     15  C   UNL     1      43.749   4.858  10.048  0.00  0.00    +0.000 C 
BRANCH  15  19
ATOM     16  C   UNL     1      46.332   2.121   7.879  0.00  0.00    +0.000 A 
ATOM     17  C   UNL     1      45.421   1.644   8.834  0.00  0.00    +0.000 A 
ATOM     18  C   UNL     1      44.601   2.528   9.544  0.00  0.00    +0.000 A 
ATOM     19  C   UNL     1      44.672   3.909   9.318  0.00  0.00    +0.000 A 
ATOM     20  C   UNL     1      45.595   4.388   8.378  0.00  0.00    +0.000 A 
ATOM     21  C   UNL     1      46.412   3.504   7.664  0.00  0.00    +0.000 A 
BRANCH  16  22
ATOM     22  C   UNL     1      47.233   1.170   7.120  0.00  0.00    +0.000 C 
BRANCH  22  24
ATOM     23  C   UNL     1      47.888   2.302   5.095  0.00  0.00    +0.000 C 
ATOM     24  N   UNL     1      48.308   1.878   6.423  0.00  0.00    +0.000 NA
ATOM     25  H   UNL     1      48.571   2.699   6.966  0.00  0.00    +0.000 HD
ENDBRANCH  22  24
ENDBRANCH  16  22
ENDBRANCH  15  19
ENDBRANCH   1  15
TORSDOF 6
ENDMDL
MODEL 4
REMARK VINA RESULT:    -6.622      1.408      1.543
REMARK INTER + INTRA:          -9.729
REMARK INTER:                  -9.165
REMARK INTRA:                  -0.564
REMARK UNBOUND:                -0.784
REMARK  Name = 
REMARK  8 active torsions:
REMARK  status: ('A' for Active; 'I' for Inactive)
REMARK    1  A    between atoms: C_1  and  N_2
REMARK    2  A    between atoms: N_2  and  C_3
REMARK    3  A    between atoms: C_3  and  C_4
REMARK    4  A    between atoms: C_7  and  C_8
REMARK    5  A    between atoms: C_8  and  N_9
REMARK    6  A    between atoms: N_9  and  C_10
REMARK    7  A    between atoms: C_13  and  C_14
REMARK    8  A    between atoms: C_18  and  C_19
REMARK                            x       y       z     vdW  Elec       q    Type
REMARK                         _______ _______ _______ _____ _____    ______ ____
ROOT
ATOM      1  N   UNL     1      44.561   5.207  10.186  0.00  0.00    +0.000 N 
ATOM      2  H   UNL     1      43.630   5.410   9.838  0.00  0.00    +0.000 HD
ENDROOT
BRANCH   1   3
ATOM      3  C   UNL     1      45.227   4.370   9.271  0.00  0.00    +0.000 A 
ATOM      4  N   UNL     1      46.055   4.937   8.364  0.00  0.00    +0.000 NA
ATOM      5  C   UNL     1      46.704   4.142   7.478  0.00  0.00    +0.000 A 
ATOM      6  C   UNL     1      46.591   2.766   7.444  0.00  0.00    +0.000 A 
ATOM      7  C   UNL     1      45.760   2.183   8.400  0.00  0.00    +0.000 A 
ATOM      8  C   UNL     1      45.055   2.979   9.321  0.00  0.00    +0.000 A 
ATOM      9  C   UNL     1      44.188   2.302  10.344  0.00  0.00    +0.000 C 
BRANCH   6  10
ATOM     10  C   UNL     1      47.290   1.908   6.459  0.00  0.00    +0.000 C 
ATOM     11  N   UNL     1      48.045   2.493   5.482  0.00  0.00    +0.000 N 
ATOM     12  O   UNL     1      47.189   0.684   6.501  0.00  0.00    +0.000 OA
ATOM     13  H   UNL     1      48.172   3.483   5.337  0.00  0.00    +0.000 HD
ATOM     14  H   UNL     1      48.487   1.866   4.819  0.00  0.00    +0.000 HD
ENDBRANCH   6  10
ENDBRANCH   1   3
BRANCH   1  15
ATOM     15  C   UNL     1      45.293   6.438  10.481  0.00  0.00    +0.000 C 
BRANCH  15  19
ATOM     16  C   UNL     1      47.520   6.078  14.192  0.00  0.00    +0.000 A 
ATOM     17  C   UNL     1      46.822   4.981  13.664  0.00  0.00    +0.000 A 
ATOM     18  C   UNL     1      46.091   5.102  12.477  0.00  0.00    +0.000 A 
ATOM     19  C   UNL     1      46.040   6.322  11.790  0.00  0.00    +0.000 A 
ATOM     20  C   UNL     1      46.721   7.424  12.326  0.00  0.00    +0.000 A 
ATOM     21  C   UNL     1      47.456   7.301  13.511  0.00  0.00    +0.000 A 
BRANCH  16  22
ATOM     22  C   UNL     1      48.299   5.955  15.485  0.00  0.00    +0.000 C 
BRANCH  22  24
ATOM     23  C   UNL     1      50.301   6.677  16.618  0.00  0.00    +0.000 C 
ATOM     24  N   UNL     1      49.686   6.395  15.328  0.00  0.00    +0.000 NA
ATOM     25  H   UNL     1      50.216   5.661  14.860  0.00  0.00    +0.000 HD
ENDBRANCH  22  24
ENDBRANCH  16  22
ENDBRANCH  15  19
ENDBRANCH   1  15
TORSDOF 6
ENDMDL
MODEL 5
REMARK VINA RESULT:    -6.508      3.041      6.277
REMARK INTER + INTRA:          -9.574
REMARK INTER:                  -8.597
REMARK INTRA:                  -0.978
REMARK UNBOUND:                -0.784
REMARK  Name = 
REMARK  8 active torsions:
REMARK  status: ('A' for Active; 'I' for Inactive)
REMARK    1  A    between atoms: C_1  and  N_2
REMARK    2  A    between atoms: N_2  and  C_3
REMARK    3  A    between atoms: C_3  and  C_4
REMARK    4  A    between atoms: C_7  and  C_8
REMARK    5  A    between atoms: C_8  and  N_9
REMARK    6  A    between atoms: N_9  and  C_10
REMARK    7  A    between atoms: C_13  and  C_14
REMARK    8  A    between atoms: C_18  and  C_19
REMARK                            x       y       z     vdW  Elec       q    Type
REMARK                         _______ _______ _______ _____ _____    ______ ____
ROOT
ATOM      1  N   UNL     1      43.914   5.816  12.896  0.00  0.00    +0.000 N 
ATOM      2  H   UNL     1      43.976   4.935  13.396  0.00  0.00    +0.000 HD
ENDROOT
BRANCH   1   3
ATOM      3  C   UNL     1      45.206   6.345  12.723  0.00  0.00    +0.000 A 
ATOM      4  N   UNL     1      45.327   7.624  12.301  0.00  0.00    +0.000 NA
ATOM      5  C   UNL     1      46.568   8.146  12.133  0.00  0.00    +0.000 A 
ATOM      6  C   UNL     1      47.739   7.458  12.381  0.00  0.00    +0.000 A 
ATOM      7  C   UNL     1      47.609   6.149  12.846  0.00  0.00    +0.000 A 
ATOM      8  C   UNL     1      46.339   5.568  13.012  0.00  0.00    +0.000 A 
ATOM      9  C   UNL     1      46.251   4.163  13.534  0.00  0.00    +0.000 C 
BRANCH   6  10
ATOM     10  C   UNL     1      49.089   8.032  12.175  0.00  0.00    +0.000 C 
ATOM     11  N   UNL     1      50.171   7.409  12.731  0.00  0.00    +0.000 N 
ATOM     12  O   UNL     1      49.247   9.062  11.524  0.00  0.00    +0.000 OA
ATOM     13  H   UNL     1      50.153   6.580  13.304  0.00  0.00    +0.000 HD
ATOM     14  H   UNL     1      51.072   7.850  12.579  0.00  0.00    +0.000 HD
ENDBRANCH   6  10
ENDBRANCH   1   3
BRANCH   1  15
ATOM     15  C   UNL     1      43.183   5.656  11.640  0.00  0.00    +0.000 C 
BRANCH  15  19
ATOM     16  C   UNL     1      45.214   2.756   9.124  0.00  0.00    +0.000 A 
ATOM     17  C   UNL     1      45.357   4.133   8.892  0.00  0.00    +0.000 A 
ATOM     18  C   UNL     1      44.689   5.067   9.693  0.00  0.00    +0.000 A 
ATOM     19  C   UNL     1      43.862   4.646  10.743  0.00  0.00    +0.000 A 
ATOM     20  C   UNL     1      43.704   3.271  10.964  0.00  0.00    +0.000 A 
ATOM     21  C   UNL     1      44.376   2.338  10.166  0.00  0.00    +0.000 A 
BRANCH  16  22
ATOM     22  C   UNL     1      45.922   1.743   8.249  0.00  0.00    +0.000 C 
BRANCH  22  24
ATOM     23  C   UNL     1      47.873   2.011   6.859  0.00  0.00    +0.000 C 
ATOM     24  N   UNL     1      46.470   2.358   7.039  0.00  0.00    +0.000 NA
ATOM     25  H   UNL     1      45.941   2.032   6.233  0.00  0.00    +0.000 HD
ENDBRANCH  22  24
ENDBRANCH  16  22
ENDBRANCH  15  19
ENDBRANCH   1  15
TORSDOF 6
ENDMDL
MODEL 6
REMARK VINA RESULT:    -6.259      2.740      5.509
REMARK INTER + INTRA:          -9.239
REMARK INTER:                  -8.778
REMARK INTRA:                  -0.460
REMARK UNBOUND:                -0.784
REMARK  Name = 
REMARK  8 active torsions:
REMARK  status: ('A' for Active; 'I' for Inactive)
REMARK    1  A    between atoms: C_1  and  N_2
REMARK    2  A    between atoms: N_2  and  C_3
REMARK    3  A    between atoms: C_3  and  C_4
REMARK    4  A    between atoms: C_7  and  C_8
REMARK    5  A    between atoms: C_8  and  N_9
REMARK    6  A    between atoms: N_9  and  C_10
REMARK    7  A    between atoms: C_13  and  C_14
REMARK    8  A    between atoms: C_18  and  C_19
REMARK                            x       y       z     vdW  Elec       q    Type
REMARK                         _______ _______ _______ _____ _____    ______ ____
ROOT
ATOM      1  N   UNL     1      47.301   5.290  14.929  0.00  0.00    +0.000 N 
ATOM      2  H   UNL     1      48.282   5.385  14.686  0.00  0.00    +0.000 HD
ENDROOT
BRANCH   1   3
ATOM      3  C   UNL     1      46.564   4.968  13.775  0.00  0.00    +0.000 A 
ATOM      4  N   UNL     1      46.198   3.681  13.582  0.00  0.00    +0.000 NA
ATOM      5  C   UNL     1      45.485   3.358  12.474  0.00  0.00    +0.000 A 
ATOM      6  C   UNL     1      45.085   4.270  11.517  0.00  0.00    +0.000 A 
ATOM      7  C   UNL     1      45.439   5.602  11.735  0.00  0.00    +0.000 A 
ATOM      8  C   UNL     1      46.196   5.969  12.863  0.00  0.00    +0.000 A 
ATOM      9  C   UNL     1      46.534   7.418  13.063  0.00  0.00    +0.000 C 
BRANCH   6  10
ATOM     10  C   UNL     1      44.324   3.904  10.300  0.00  0.00    +0.000 C 
ATOM     11  N   UNL     1      44.310   4.764   9.238  0.00  0.00    +0.000 N 
ATOM     12  O   UNL     1      43.700   2.848  10.238  0.00  0.00    +0.000 OA
ATOM     13  H   UNL     1      44.761   5.665   9.193  0.00  0.00    +0.000 HD
ATOM     14  H   UNL     1      43.759   4.480   8.436  0.00  0.00    +0.000 HD
ENDBRANCH   6  10
ENDBRANCH   1   3
BRANCH   1  15
ATOM     15  C   UNL     1      47.120   4.328  16.016  0.00  0.00    +0.000 C 
BRANCH  15  19
ATOM     16  C   UNL     1      50.983   3.185  17.640  0.00  0.00    +0.000 A 
ATOM     17  C   UNL     1      50.045   2.211  17.266  0.00  0.00    +0.000 A 
ATOM     18  C   UNL     1      48.794   2.580  16.758  0.00  0.00    +0.000 A 
ATOM     19  C   UNL     1      48.452   3.931  16.613  0.00  0.00    +0.000 A 
ATOM     20  C   UNL     1      49.381   4.905  17.004  0.00  0.00    +0.000 A 
ATOM     21  C   UNL     1      50.634   4.536  17.507  0.00  0.00    +0.000 A 
BRANCH  16  22
ATOM     22  C   UNL     1      52.332   2.790  18.205  0.00  0.00    +0.000 C 
BRANCH  22  24
ATOM     23  C   UNL     1      53.633   0.910  17.441  0.00  0.00    +0.000 C 
ATOM     24  N   UNL     1      52.498   1.336  18.248  0.00  0.00    +0.000 NA
ATOM     25  H   UNL     1      52.650   1.048  19.213  0.00  0.00    +0.000 HD
ENDBRANCH  22  24
ENDBRANCH  16  22
ENDBRANCH  15  19
ENDBRANCH   1  15
TORSDOF 6
ENDMDL
MODEL 7
REMARK VINA RESULT:    -5.976      4.298      8.280
REMARK INTER + INTRA:          -8.856
REMARK INTER:                  -8.216
REMARK INTRA:                  -0.640
REMARK UNBOUND:                -0.784
REMARK  Name = 
REMARK  8 active torsions:
REMARK  status: ('A' for Active; 'I' for Inactive)
REMARK    1  A    between atoms: C_1  and  N_2
REMARK    2  A    between atoms: N_2  and  C_3
REMARK    3  A    between atoms: C_3  and  C_4
REMARK    4  A    between atoms: C_7  and  C_8
REMARK    5  A    between atoms: C_8  and  N_9
REMARK    6  A    between atoms: N_9  and  C_10
REMARK    7  A    between atoms: C_13  and  C_14
REMARK    8  A    between atoms: C_18  and  C_19
REMARK                            x       y       z     vdW  Elec       q    Type
REMARK                         _______ _______ _______ _____ _____    ______ ____
ROOT
ATOM      1  N   UNL     1      47.884   5.674  16.022  0.00  0.00    +0.000 N 
ATOM      2  H   UNL     1      47.117   5.013  15.951  0.00  0.00    +0.000 HD
ENDROOT
BRANCH   1   3
ATOM      3  C   UNL     1      48.991   5.040  16.616  0.00  0.00    +0.000 A 
ATOM      4  N   UNL     1      50.173   5.698  16.641  0.00  0.00    +0.000 NA
ATOM      5  C   UNL     1      51.247   5.099  17.213  0.00  0.00    +0.000 A 
ATOM      6  C   UNL     1      51.217   3.848  17.796  0.00  0.00    +0.000 A 
ATOM      7  C   UNL     1      49.990   3.186  17.796  0.00  0.00    +0.000 A 
ATOM      8  C   UNL     1      48.859   3.768  17.193  0.00  0.00    +0.000 A 
ATOM      9  C   UNL     1      47.556   3.025  17.236  0.00  0.00    +0.000 C 
BRANCH   6  10
ATOM     10  C   UNL     1      52.402   3.195  18.400  0.00  0.00    +0.000 C 
ATOM     11  N   UNL     1      52.483   1.830  18.401  0.00  0.00    +0.000 N 
ATOM     12  O   UNL     1      53.302   3.859  18.908  0.00  0.00    +0.000 OA
ATOM     13  H   UNL     1      51.793   1.191  18.040  0.00  0.00    +0.000 HD
ATOM     14  H   UNL     1      53.302   1.429  18.844  0.00  0.00    +0.000 HD
ENDBRANCH   6  10
ENDBRANCH   1   3
BRANCH   1  15
ATOM     15  C   UNL     1      48.188   6.267  14.720  0.00  0.00    +0.000 C 
BRANCH  15  19
ATOM     16  C   UNL     1      45.307   4.956  11.746  0.00  0.00    +0.000 A 
ATOM     17  C   UNL     1      45.535   4.201  12.907  0.00  0.00    +0.000 A 
ATOM     18  C   UNL     1      46.476   4.615  13.856  0.00  0.00    +0.000 A 
ATOM     19  C   UNL     1      47.210   5.793  13.669  0.00  0.00    +0.000 A 
ATOM     20  C   UNL     1      46.997   6.539  12.501  0.00  0.00    +0.000 A 
ATOM     21  C   UNL     1      46.052   6.127  11.553  0.00  0.00    +0.000 A 
BRANCH  16  22
ATOM     22  C   UNL     1      44.302   4.502  10.708  0.00  0.00    +0.000 C 
BRANCH  22  24
ATOM     23  C   UNL     1      42.360   5.510  11.719  0.00  0.00    +0.000 C 
ATOM     24  N   UNL     1      43.217   5.471  10.542  0.00  0.00    +0.000 NA
ATOM     25  H   UNL     1      43.617   6.395  10.391  0.00  0.00    +0.000 HD
ENDBRANCH  22  24
ENDBRANCH  16  22
ENDBRANCH  15  19
ENDBRANCH   1  15
TORSDOF 6
ENDMDL
MODEL 8
REMARK VINA RESULT:    -5.605      3.341      7.784
REMARK INTER + INTRA:          -8.355
REMARK INTER:                  -7.858
REMARK INTRA:                  -0.497
REMARK UNBOUND:                -0.784
REMARK  Name = 
REMARK  8 active torsions:
REMARK  status: ('A' for Active; 'I' for Inactive)
REMARK    1  A    between atoms: C_1  and  N_2
REMARK    2  A    between atoms: N_2  and  C_3
REMARK    3  A    between atoms: C_3  and  C_4
REMARK    4  A    between atoms: C_7  and  C_8
REMARK    5  A    between atoms: C_8  and  N_9
REMARK    6  A    between atoms: N_9  and  C_10
REMARK    7  A    between atoms: C_13  and  C_14
REMARK    8  A    between atoms: C_18  and  C_19
REMARK                            x       y       z     vdW  Elec       q    Type
REMARK                         _______ _______ _______ _____ _____    ______ ____
ROOT
ATOM      1  N   UNL     1      46.891   6.091  13.534  0.00  0.00    +0.000 N 
ATOM      2  H   UNL     1      47.000   7.098  13.598  0.00  0.00    +0.000 HD
ENDROOT
BRANCH   1   3
ATOM      3  C   UNL     1      47.407   5.491  14.697  0.00  0.00    +0.000 A 
ATOM      4  N   UNL     1      46.971   4.256  15.033  0.00  0.00    +0.000 NA
ATOM      5  C   UNL     1      47.463   3.666  16.151  0.00  0.00    +0.000 A 
ATOM      6  C   UNL     1      48.406   4.240  16.979  0.00  0.00    +0.000 A 
ATOM      7  C   UNL     1      48.876   5.501  16.613  0.00  0.00    +0.000 A 
ATOM      8  C   UNL     1      48.373   6.152  15.471  0.00  0.00    +0.000 A 
ATOM      9  C   UNL     1      48.926   7.500  15.108  0.00  0.00    +0.000 C 
BRANCH   6  10
ATOM     10  C   UNL     1      48.922   3.595  18.210  0.00  0.00    +0.000 C 
ATOM     11  N   UNL     1      50.231   3.776  18.559  0.00  0.00    +0.000 N 
ATOM     12  O   UNL     1      48.195   2.894  18.909  0.00  0.00    +0.000 OA
ATOM     13  H   UNL     1      50.918   4.304  18.046  0.00  0.00    +0.000 HD
ATOM     14  H   UNL     1      50.542   3.298  19.398  0.00  0.00    +0.000 HD
ENDBRANCH   6  10
ENDBRANCH   1   3
BRANCH   1  15
ATOM     15  C   UNL     1      45.500   5.729  13.266  0.00  0.00    +0.000 C 
BRANCH  15  19
ATOM     16  C   UNL     1      45.183   3.912   9.334  0.00  0.00    +0.000 A 
ATOM     17  C   UNL     1      45.657   5.224   9.482  0.00  0.00    +0.000 A 
ATOM     18  C   UNL     1      45.743   5.815  10.748  0.00  0.00    +0.000 A 
ATOM     19  C   UNL     1      45.358   5.109  11.895  0.00  0.00    +0.000 A 
ATOM     20  C   UNL     1      44.866   3.804  11.746  0.00  0.00    +0.000 A 
ATOM     21  C   UNL     1      44.785   3.211  10.481  0.00  0.00    +0.000 A 
BRANCH  16  22
ATOM     22  C   UNL     1      45.073   3.275   7.965  0.00  0.00    +0.000 C 
BRANCH  22  24
ATOM     23  C   UNL     1      47.223   2.902   6.940  0.00  0.00    +0.000 C 
ATOM     24  N   UNL     1      46.148   2.311   7.725  0.00  0.00    +0.000 NA
ATOM     25  H   UNL     1      46.522   2.002   8.621  0.00  0.00    +0.000 HD
ENDBRANCH  22  24
ENDBRANCH  16  22
ENDBRANCH  15  19
ENDBRANCH   1  15
TORSDOF 6
ENDMDL
MODEL 9
REMARK VINA RESULT:    -5.537      4.173      8.543
REMARK INTER + INTRA:          -8.263
REMARK INTER:                  -7.682
REMARK INTRA:                  -0.581
REMARK UNBOUND:                -0.784
REMARK  Name = 
REMARK  8 active torsions:
REMARK  status: ('A' for Active; 'I' for Inactive)
REMARK    1  A    between atoms: C_1  and  N_2
REMARK    2  A    between atoms: N_2  and  C_3
REMARK    3  A    between atoms: C_3  and  C_4
REMARK    4  A    between atoms: C_7  and  C_8
REMARK    5  A    between atoms: C_8  and  N_9
REMARK    6  A    between atoms: N_9  and  C_10
REMARK    7  A    between atoms: C_13  and  C_14
REMARK    8  A    between atoms: C_18  and  C_19
REMARK                            x       y       z     vdW  Elec       q    Type
REMARK                         _______ _______ _______ _____ _____    ______ ____
ROOT
ATOM      1  N   UNL     1      47.167   5.135  15.613  0.00  0.00    +0.000 N 
ATOM      2  H   UNL     1      46.804   4.191  15.529  0.00  0.00    +0.000 HD
ENDROOT
BRANCH   1   3
ATOM      3  C   UNL     1      48.242   5.142  16.521  0.00  0.00    +0.000 A 
ATOM      4  N   UNL     1      48.714   6.334  16.951  0.00  0.00    +0.000 NA
ATOM      5  C   UNL     1      49.748   6.354  17.828  0.00  0.00    +0.000 A 
ATOM      6  C   UNL     1      50.356   5.224  18.335  0.00  0.00    +0.000 A 
ATOM      7  C   UNL     1      49.846   3.996  17.913  0.00  0.00    +0.000 A 
ATOM      8  C   UNL     1      48.788   3.937  16.988  0.00  0.00    +0.000 A 
ATOM      9  C   UNL     1      48.261   2.591  16.580  0.00  0.00    +0.000 C 
BRANCH   6  10
ATOM     10  C   UNL     1      51.499   5.257  19.278  0.00  0.00    +0.000 C 
ATOM     11  N   UNL     1      51.966   4.085  19.802  0.00  0.00    +0.000 N 
ATOM     12  O   UNL     1      52.022   6.321  19.601  0.00  0.00    +0.000 OA
ATOM     13  H   UNL     1      51.596   3.163  19.628  0.00  0.00    +0.000 HD
ATOM     14  H   UNL     1      52.737   4.160  20.457  0.00  0.00    +0.000 HD
ENDBRANCH   6  10
ENDBRANCH   1   3
BRANCH   1  15
ATOM     15  C   UNL     1      47.514   5.683  14.303  0.00  0.00    +0.000 C 
BRANCH  15  19
ATOM     16  C   UNL     1      44.997   4.046  11.163  0.00  0.00    +0.000 A 
ATOM     17  C   UNL     1      45.474   5.364  11.088  0.00  0.00    +0.000 A 
ATOM     18  C   UNL     1      46.271   5.896  12.108  0.00  0.00    +0.000 A 
ATOM     19  C   UNL     1      46.610   5.124  13.227  0.00  0.00    +0.000 A 
ATOM     20  C   UNL     1      46.120   3.814  13.312  0.00  0.00    +0.000 A 
ATOM     21  C   UNL     1      45.327   3.280  12.289  0.00  0.00    +0.000 A 
BRANCH  16  22
ATOM     22  C   UNL     1      44.121   3.472  10.070  0.00  0.00    +0.000 C 
BRANCH  22  24
ATOM     23  C   UNL     1      45.535   2.030   8.753  0.00  0.00    +0.000 C 
ATOM     24  N   UNL     1      44.481   2.088   9.755  0.00  0.00    +0.000 NA
ATOM     25  H   UNL     1      44.804   1.628  10.605  0.00  0.00    +0.000 HD
ENDBRANCH  22  24
ENDBRANCH  16  22
ENDBRANCH  15  19
ENDBRANCH   1  15
TORSDOF 6
ENDMDL
