MODEL 1
REMARK VINA RESULT:    -7.402      0.000      0.000
REMARK INTER + INTRA:          -9.554
REMARK INTER:                  -9.133
REMARK INTRA:                  -0.421
REMARK UNBOUND:                -0.421
REMARK  Name = 
REMARK  7 active torsions:
REMARK  status: ('A' for Active; 'I' for Inactive)
REMARK    1  A    between atoms: C_1  and  C_2
REMARK    2  A    between atoms: C_2  and  C_3
REMARK    3  A    between atoms: C_2  and  C_4
REMARK    4  A    between atoms: C_2  and  C_5
REMARK    5  A    between atoms: C_7  and  C_8
REMARK    6  A    between atoms: N_16  and  C_17
REMARK    7  A    between atoms: C_17  and  C_18
REMARK                            x       y       z     vdW  Elec       q    Type
REMARK                         _______ _______ _______ _____ _____    ______ ____
ROOT
ATOM      1  C   UNL     1      47.039   7.192  13.401  0.00  0.00    +0.000 A 
ATOM      2  C   UNL     1      46.318   8.255  12.825  0.00  0.00    +0.000 A 
ATOM      3  C   UNL     1      45.232   8.020  11.971  0.00  0.00    +0.000 A 
ATOM      4  N   UNL     1      44.771   6.795  11.639  0.00  0.00    +0.000 NA
ATOM      5  C   UNL     1      45.438   5.774  12.204  0.00  0.00    +0.000 A 
ATOM      6  C   UNL     1      46.553   5.924  13.055  0.00  0.00    +0.000 A 
ATOM      7  C   UNL     1      47.005   4.556  13.476  0.00  0.00    +0.000 C 
ATOM      8  C   UNL     1      46.052   3.611  12.713  0.00  0.00    +0.000 C 
ATOM      9  N   UNL     1      45.087   4.446  12.034  0.00  0.00    +0.000 N 
ENDROOT
BRANCH   3  10
ATOM     10  C   UNL     1      44.517   9.205  11.381  0.00  0.00    +0.000 C 
ATOM     11  N   UNL     1      43.306   8.950  10.799  0.00  0.00    +0.000 N 
ATOM     12  O   UNL     1      44.980  10.340  11.412  0.00  0.00    +0.000 OA
ATOM     13  H   UNL     1      42.955   8.004  10.764  0.00  0.00    +0.000 HD
ATOM     14  H   UNL     1      42.799   9.712  10.369  0.00  0.00    +0.000 HD
ENDBRANCH   3  10
BRANCH   1  16
ATOM     15  C   UNL     1      49.595   7.374  13.613  0.00  0.00    +0.000 C 
ATOM     16  C   UNL     1      48.228   7.468  14.346  0.00  0.00    +0.000 C 
ATOM     17  C   UNL     1      48.309   6.456  15.508  0.00  0.00    +0.000 C 
ATOM     18  C   UNL     1      48.147   8.889  14.941  0.00  0.00    +0.000 C 
ENDBRANCH   1  16
BRANCH   9  19
ATOM     19  C   UNL     1      44.091   3.973  11.109  0.00  0.00    +0.000 C 
BRANCH  19  20
ATOM     20  C   UNL     1      44.747   3.498   9.831  0.00  0.00    +0.000 A 
ATOM     21  C   UNL     1      44.927   2.123   9.600  0.00  0.00    +0.000 A 
ATOM     22  C   UNL     1      45.609   1.677   8.468  0.00  0.00    +0.000 A 
ATOM     23  C   UNL     1      46.113   2.603   7.564  0.00  0.00    +0.000 A 
ATOM     24  F   UNL     1      46.798   2.176   6.494  0.00  0.00    +0.000 F 
ATOM     25  C   UNL     1      45.927   3.967   7.757  0.00  0.00    +0.000 A 
ATOM     26  C   UNL     1      45.244   4.415   8.890  0.00  0.00    +0.000 A 
ENDBRANCH  19  20
ENDBRANCH   9  19
TORSDOF 4
ENDMDL
MODEL 2
REMARK VINA RESULT:    -7.236      0.886      1.177
REMARK INTER + INTRA:          -9.349
REMARK INTER:                  -8.721
REMARK INTRA:                  -0.628
REMARK UNBOUND:                -0.421
REMARK  Name = 
REMARK  7 active torsions:
REMARK  status: ('A' for Active; 'I' for Inactive)
REMARK    1  A    between atoms: C_1  and  C_2
REMARK    2  A    between atoms: C_2  and  C_3
REMARK    3  A    between atoms: C_2  and  C_4
REMARK    4  A    between atoms: C_2  and  C_5
REMARK    5  A    between atoms: C_7  and  C_8
REMARK    6  A    between atoms: N_16  and  C_17
REMARK    7  A    between atoms: C_17  and  C_18
REMARK                            x       y       z     vdW  Elec       q    Type
REMARK                         _______ _______ _______ _____ _____    ______ ____
ROOT
ATOM      1  C   UNL     1      47.059   8.181  13.117  0.00  0.00    +0.000 A 
ATOM      2  C   UNL     1      46.218   9.160  12.556  0.00  0.00    +0.000 A 
ATOM      3  C   UNL     1      45.052   8.808  11.864  0.00  0.00    +0.000 A 
ATOM      4  N   UNL     1      44.620   7.541  11.687  0.00  0.00    +0.000 NA
ATOM      5  C   UNL     1      45.404   6.600  12.241  0.00  0.00    +0.000 A 
ATOM      6  C   UNL     1      46.604   6.868  12.933  0.00  0.00    +0.000 A 
ATOM      7  C   UNL     1      47.175   5.561  13.398  0.00  0.00    +0.000 C 
ATOM      8  C   UNL     1      46.190   4.516  12.835  0.00  0.00    +0.000 C 
ATOM      9  N   UNL     1      45.107   5.249  12.218  0.00  0.00    +0.000 N 
ENDROOT
BRANCH   3  10
ATOM     10  C   UNL     1      44.209   9.907  11.277  0.00  0.00    +0.000 C 
ATOM     11  N   UNL     1      43.704   9.678  10.027  0.00  0.00    +0.000 N 
ATOM     12  O   UNL     1      43.977  10.954  11.874  0.00  0.00    +0.000 OA
ATOM     13  H   UNL     1      43.927   8.820   9.545  0.00  0.00    +0.000 HD
ATOM     14  H   UNL     1      43.151  10.399   9.583  0.00  0.00    +0.000 HD
ENDBRANCH   3  10
BRANCH   1  16
ATOM     15  C   UNL     1      48.633  10.107  13.769  0.00  0.00    +0.000 C 
ATOM     16  C   UNL     1      48.337   8.586  13.884  0.00  0.00    +0.000 C 
ATOM     17  C   UNL     1      49.599   7.875  13.350  0.00  0.00    +0.000 C 
ATOM     18  C   UNL     1      48.203   8.279  15.390  0.00  0.00    +0.000 C 
ENDBRANCH   1  16
BRANCH   9  19
ATOM     19  C   UNL     1      44.034   4.657  11.463  0.00  0.00    +0.000 C 
BRANCH  19  20
ATOM     20  C   UNL     1      44.577   3.979  10.224  0.00  0.00    +0.000 A 
ATOM     21  C   UNL     1      44.474   2.585  10.081  0.00  0.00    +0.000 A 
ATOM     22  C   UNL     1      45.049   1.939   8.986  0.00  0.00    +0.000 A 
ATOM     23  C   UNL     1      45.728   2.686   8.032  0.00  0.00    +0.000 A 
ATOM     24  F   UNL     1      46.310   2.062   6.998  0.00  0.00    +0.000 F 
ATOM     25  C   UNL     1      45.823   4.068   8.138  0.00  0.00    +0.000 A 
ATOM     26  C   UNL     1      45.248   4.716   9.233  0.00  0.00    +0.000 A 
ENDBRANCH  19  20
ENDBRANCH   9  19
TORSDOF 4
ENDMDL
MODEL 3
REMARK VINA RESULT:    -6.992      2.354      3.765
REMARK INTER + INTRA:          -9.047
REMARK INTER:                  -8.518
REMARK INTRA:                  -0.530
REMARK UNBOUND:                -0.421
REMARK  Name = 
REMARK  7 active torsions:
REMARK  status: ('A' for Active; 'I' for Inactive)
REMARK    1  A    between atoms: C_1  and  C_2
REMARK    2  A    between atoms: C_2  and  C_3
REMARK    3  A    between atoms: C_2  and  C_4
REMARK    4  A    between atoms: C_2  and  C_5
REMARK    5  A    between atoms: C_7  and  C_8
REMARK    6  A    between atoms: N_16  and  C_17
REMARK    7  A    between atoms: C_17  and  C_18
REMARK                            x       y       z     vdW  Elec       q    Type
REMARK                         _______ _______ _______ _____ _____    ______ ____
ROOT
ATOM      1  C   UNL     1      47.894   7.431  13.634  0.00  0.00    +0.000 A 
ATOM      2  C   UNL     1      48.007   6.205  14.317  0.00  0.00    +0.000 A 
ATOM      3  C   UNL     1      47.013   5.222  14.217  0.00  0.00    +0.000 A 
ATOM      4  N   UNL     1      45.895   5.338  13.469  0.00  0.00    +0.000 NA
ATOM      5  C   UNL     1      45.790   6.495  12.794  0.00  0.00    +0.000 A 
ATOM      6  C   UNL     1      46.732   7.543  12.857  0.00  0.00    +0.000 A 
ATOM      7  C   UNL     1      46.257   8.650  11.963  0.00  0.00    +0.000 C 
ATOM      8  C   UNL     1      44.904   8.132  11.434  0.00  0.00    +0.000 C 
ATOM      9  N   UNL     1      44.748   6.783  11.931  0.00  0.00    +0.000 N 
ENDROOT
BRANCH   3  10
ATOM     10  C   UNL     1      47.194   3.942  14.987  0.00  0.00    +0.000 C 
ATOM     11  N   UNL     1      46.922   4.001  16.326  0.00  0.00    +0.000 N 
ATOM     12  O   UNL     1      47.562   2.899  14.459  0.00  0.00    +0.000 OA
ATOM     13  H   UNL     1      46.643   4.876  16.744  0.00  0.00    +0.000 HD
ATOM     14  H   UNL     1      47.052   3.170  16.889  0.00  0.00    +0.000 HD
ENDBRANCH   3  10
BRANCH   1  16
ATOM     15  C   UNL     1      50.210   8.007  14.590  0.00  0.00    +0.000 C 
ATOM     16  C   UNL     1      49.001   8.501  13.748  0.00  0.00    +0.000 C 
ATOM     17  C   UNL     1      48.511   9.791  14.441  0.00  0.00    +0.000 C 
ATOM     18  C   UNL     1      49.558   8.875  12.359  0.00  0.00    +0.000 C 
ENDBRANCH   1  16
BRANCH   9  19
ATOM     19  C   UNL     1      43.566   5.977  11.773  0.00  0.00    +0.000 C 
BRANCH  19  20
ATOM     20  C   UNL     1      43.874   4.755  10.935  0.00  0.00    +0.000 A 
ATOM     21  C   UNL     1      43.518   3.476  11.396  0.00  0.00    +0.000 A 
ATOM     22  C   UNL     1      43.875   2.337  10.674  0.00  0.00    +0.000 A 
ATOM     23  C   UNL     1      44.588   2.474   9.490  0.00  0.00    +0.000 A 
ATOM     24  F   UNL     1      44.961   1.378   8.814  0.00  0.00    +0.000 F 
ATOM     25  C   UNL     1      44.930   3.728   9.000  0.00  0.00    +0.000 A 
ATOM     26  C   UNL     1      44.574   4.870   9.721  0.00  0.00    +0.000 A 
ENDBRANCH  19  20
ENDBRANCH   9  19
TORSDOF 4
ENDMDL
MODEL 4
REMARK VINA RESULT:    -6.715      3.428      6.636
REMARK INTER + INTRA:          -8.707
REMARK INTER:                  -8.092
REMARK INTRA:                  -0.614
REMARK UNBOUND:                -0.421
REMARK  Name = 
REMARK  7 active torsions:
REMARK  status: ('A' for Active; 'I' for Inactive)
REMARK    1  A    between atoms: C_1  and  C_2
REMARK    2  A    between atoms: C_2  and  C_3
REMARK    3  A    between atoms: C_2  and  C_4
REMARK    4  A    between atoms: C_2  and  C_5
REMARK    5  A    between atoms: C_7  and  C_8
REMARK    6  A    between atoms: N_16  and  C_17
REMARK    7  A    between atoms: C_17  and  C_18
REMARK                            x       y       z     vdW  Elec       q    Type
REMARK                         _______ _______ _______ _____ _____    ______ ____
ROOT
ATOM      1  C   UNL     1      44.834   5.184  12.354  0.00  0.00    +0.000 A 
ATOM      2  C   UNL     1      45.501   4.407  13.320  0.00  0.00    +0.000 A 
ATOM      3  C   UNL     1      46.543   4.941  14.090  0.00  0.00    +0.000 A 
ATOM      4  N   UNL     1      46.986   6.213  14.001  0.00  0.00    +0.000 NA
ATOM      5  C   UNL     1      46.338   6.970  13.099  0.00  0.00    +0.000 A 
ATOM      6  C   UNL     1      45.296   6.504  12.269  0.00  0.00    +0.000 A 
ATOM      7  C   UNL     1      44.837   7.648  11.412  0.00  0.00    +0.000 C 
ATOM      8  C   UNL     1      45.785   8.799  11.809  0.00  0.00    +0.000 C 
ATOM      9  N   UNL     1      46.604   8.312  12.896  0.00  0.00    +0.000 N 
ENDROOT
BRANCH   3  10
ATOM     10  C   UNL     1      47.221   4.047  15.092  0.00  0.00    +0.000 C 
ATOM     11  N   UNL     1      47.301   4.527  16.371  0.00  0.00    +0.000 N 
ATOM     12  O   UNL     1      47.680   2.949  14.797  0.00  0.00    +0.000 OA
ATOM     13  H   UNL     1      46.937   5.443  16.587  0.00  0.00    +0.000 HD
ATOM     14  H   UNL     1      47.768   3.971  17.074  0.00  0.00    +0.000 HD
ENDBRANCH   3  10
BRANCH   1  16
ATOM     15  C   UNL     1      43.376   3.111  11.914  0.00  0.00    +0.000 C 
ATOM     16  C   UNL     1      43.682   4.583  11.519  0.00  0.00    +0.000 C 
ATOM     17  C   UNL     1      43.998   4.552  10.009  0.00  0.00    +0.000 C 
ATOM     18  C   UNL     1      42.373   5.373  11.727  0.00  0.00    +0.000 C 
ENDBRANCH   1  16
BRANCH   9  19
ATOM     19  C   UNL     1      47.707   9.028  13.484  0.00  0.00    +0.000 C 
BRANCH  19  20
ATOM     20  C   UNL     1      48.869   9.085  12.516  0.00  0.00    +0.000 A 
ATOM     21  C   UNL     1      49.652   7.941  12.289  0.00  0.00    +0.000 A 
ATOM     22  C   UNL     1      50.779   8.004  11.468  0.00  0.00    +0.000 A 
ATOM     23  C   UNL     1      51.124   9.211  10.872  0.00  0.00    +0.000 A 
ATOM     24  F   UNL     1      52.225   9.280  10.111  0.00  0.00    +0.000 F 
ATOM     25  C   UNL     1      50.350  10.350  11.062  0.00  0.00    +0.000 A 
ATOM     26  C   UNL     1      49.223  10.288  11.883  0.00  0.00    +0.000 A 
ENDBRANCH  19  20
ENDBRANCH   9  19
TORSDOF 4
ENDMDL
MODEL 5
REMARK VINA RESULT:    -6.160      3.946      6.089
REMARK INTER + INTRA:          -8.022
REMARK INTER:                  -7.475
REMARK INTRA:                  -0.547
REMARK UNBOUND:                -0.421
REMARK  Name = 
REMARK  7 active torsions:
REMARK  status: ('A' for Active; 'I' for Inactive)
REMARK    1  A    between atoms: C_1  and  C_2
REMARK    2  A    between atoms: C_2  and  C_3
REMARK    3  A    between atoms: C_2  and  C_4
REMARK    4  A    between atoms: C_2  and  C_5
REMARK    5  A    between atoms: C_7  and  C_8
REMARK    6  A    between atoms: N_16  and  C_17
REMARK    7  A    between atoms: C_17  and  C_18
REMARK                            x       y       z     vdW  Elec       q    Type
REMARK                         _______ _______ _______ _____ _____    ______ ____
ROOT
ATOM      1  C   UNL     1      48.500   6.834  17.781  0.00  0.00    +0.000 A 
ATOM      2  C   UNL     1      48.280   5.443  17.787  0.00  0.00    +0.000 A 
ATOM      3  C   UNL     1      48.187   4.716  16.594  0.00  0.00    +0.000 A 
ATOM      4  N   UNL     1      48.314   5.249  15.360  0.00  0.00    +0.000 NA
ATOM      5  C   UNL     1      48.549   6.573  15.344  0.00  0.00    +0.000 A 
ATOM      6  C   UNL     1      48.634   7.381  16.497  0.00  0.00    +0.000 A 
ATOM      7  C   UNL     1      48.910   8.790  16.059  0.00  0.00    +0.000 C 
ATOM      8  C   UNL     1      48.910   8.695  14.519  0.00  0.00    +0.000 C 
ATOM      9  N   UNL     1      48.763   7.296  14.185  0.00  0.00    +0.000 N 
ENDROOT
BRANCH   3  10
ATOM     10  C   UNL     1      47.936   3.235  16.677  0.00  0.00    +0.000 C 
ATOM     11  N   UNL     1      46.993   2.833  17.584  0.00  0.00    +0.000 N 
ATOM     12  O   UNL     1      48.531   2.421  15.979  0.00  0.00    +0.000 OA
ATOM     13  H   UNL     1      46.532   3.518  18.164  0.00  0.00    +0.000 HD
ATOM     14  H   UNL     1      46.807   1.845  17.691  0.00  0.00    +0.000 HD
ENDBRANCH   3  10
BRANCH   1  16
ATOM     15  C   UNL     1      48.372   6.715  20.346  0.00  0.00    +0.000 C 
ATOM     16  C   UNL     1      48.607   7.620  19.105  0.00  0.00    +0.000 C 
ATOM     17  C   UNL     1      47.560   8.750  19.210  0.00  0.00    +0.000 C 
ATOM     18  C   UNL     1      50.010   8.239  19.273  0.00  0.00    +0.000 C 
ENDBRANCH   1  16
BRANCH   9  19
ATOM     19  C   UNL     1      48.593   6.779  12.852  0.00  0.00    +0.000 C 
BRANCH  19  20
ATOM     20  C   UNL     1      47.126   6.767  12.478  0.00  0.00    +0.000 A 
ATOM     21  C   UNL     1      46.430   5.550  12.400  0.00  0.00    +0.000 A 
ATOM     22  C   UNL     1      45.102   5.518  11.971  0.00  0.00    +0.000 A 
ATOM     23  C   UNL     1      44.469   6.704  11.620  0.00  0.00    +0.000 A 
ATOM     24  F   UNL     1      43.205   6.670  11.176  0.00  0.00    +0.000 F 
ATOM     25  C   UNL     1      45.129   7.923  11.713  0.00  0.00    +0.000 A 
ATOM     26  C   UNL     1      46.458   7.956  12.142  0.00  0.00    +0.000 A 
ENDBRANCH  19  20
ENDBRANCH   9  19
TORSDOF 4
ENDMDL
MODEL 6
REMARK VINA RESULT:    -6.021      3.794      5.564
REMARK INTER + INTRA:          -7.850
REMARK INTER:                  -7.232
REMARK INTRA:                  -0.617
REMARK UNBOUND:                -0.421
REMARK  Name = 
REMARK  7 active torsions:
REMARK  status: ('A' for Active; 'I' for Inactive)
REMARK    1  A    between atoms: C_1  and  C_2
REMARK    2  A    between atoms: C_2  and  C_3
REMARK    3  A    between atoms: C_2  and  C_4
REMARK    4  A    between atoms: C_2  and  C_5
REMARK    5  A    between atoms: C_7  and  C_8
REMARK    6  A    between atoms: N_16  and  C_17
REMARK    7  A    between atoms: C_17  and  C_18
REMARK                            x       y       z     vdW  Elec       q    Type
REMARK                         _______ _______ _______ _____ _____    ______ ____
ROOT
ATOM      1  C   UNL     1      48.671   6.687  16.395  0.00  0.00    +0.000 A 
ATOM      2  C   UNL     1      48.429   5.614  17.274  0.00  0.00    +0.000 A 
ATOM      3  C   UNL     1      47.832   4.428  16.827  0.00  0.00    +0.000 A 
ATOM      4  N   UNL     1      47.458   4.193  15.551  0.00  0.00    +0.000 NA
ATOM      5  C   UNL     1      47.708   5.202  14.699  0.00  0.00    +0.000 A 
ATOM      6  C   UNL     1      48.283   6.435  15.072  0.00  0.00    +0.000 A 
ATOM      7  C   UNL     1      48.399   7.285  13.840  0.00  0.00    +0.000 C 
ATOM      8  C   UNL     1      47.764   6.412  12.738  0.00  0.00    +0.000 C 
ATOM      9  N   UNL     1      47.449   5.137  13.342  0.00  0.00    +0.000 N 
ENDROOT
BRANCH   3  10
ATOM     10  C   UNL     1      47.591   3.330  17.826  0.00  0.00    +0.000 C 
ATOM     11  N   UNL     1      48.461   3.270  18.879  0.00  0.00    +0.000 N 
ATOM     12  O   UNL     1      46.670   2.527  17.718  0.00  0.00    +0.000 OA
ATOM     13  H   UNL     1      49.226   3.926  18.936  0.00  0.00    +0.000 HD
ATOM     14  H   UNL     1      48.352   2.534  19.564  0.00  0.00    +0.000 HD
ENDBRANCH   3  10
BRANCH   1  16
ATOM     15  C   UNL     1      49.659   7.926  18.420  0.00  0.00    +0.000 C 
ATOM     16  C   UNL     1      49.337   7.985  16.901  0.00  0.00    +0.000 C 
ATOM     17  C   UNL     1      48.437   9.225  16.714  0.00  0.00    +0.000 C 
ATOM     18  C   UNL     1      50.676   8.241  16.179  0.00  0.00    +0.000 C 
ENDBRANCH   1  16
BRANCH   9  19
ATOM     19  C   UNL     1      46.731   4.071  12.694  0.00  0.00    +0.000 C 
BRANCH  19  20
ATOM     20  C   UNL     1      45.309   4.500  12.402  0.00  0.00    +0.000 A 
ATOM     21  C   UNL     1      44.960   4.952  11.118  0.00  0.00    +0.000 A 
ATOM     22  C   UNL     1      43.676   5.433  10.860  0.00  0.00    +0.000 A 
ATOM     23  C   UNL     1      42.739   5.463  11.885  0.00  0.00    +0.000 A 
ATOM     24  F   UNL     1      41.516   5.957  11.646  0.00  0.00    +0.000 F 
ATOM     25  C   UNL     1      43.052   4.998  13.156  0.00  0.00    +0.000 A 
ATOM     26  C   UNL     1      44.337   4.517  13.416  0.00  0.00    +0.000 A 
ENDBRANCH  19  20
ENDBRANCH   9  19
TORSDOF 4
ENDMDL
MODEL 7
REMARK VINA RESULT:    -5.875      3.762      6.218
REMARK INTER + INTRA:          -7.670
REMARK INTER:                  -7.080
REMARK INTRA:                  -0.590
REMARK UNBOUND:                -0.421
REMARK  Name = 
REMARK  7 active torsions:
REMARK  status: ('A' for Active; 'I' for Inactive)
REMARK    1  A    between atoms: C_1  and  C_2
REMARK    2  A    between atoms: C_2  and  C_3
REMARK    3  A    between atoms: C_2  and  C_4
REMARK    4  A    between atoms: C_2  and  C_5
REMARK    5  A    between atoms: C_7  and  C_8
REMARK    6  A    between atoms: N_16  and  C_17
REMARK    7  A    between atoms: C_17  and  C_18
REMARK                            x       y       z     vdW  Elec       q    Type
REMARK                         _______ _______ _______ _____ _____    ______ ____
ROOT
ATOM      1  C   UNL     1      47.810   5.028  15.786  0.00  0.00    +0.000 A 
ATOM      2  C   UNL     1      46.965   4.368  14.874  0.00  0.00    +0.000 A 
ATOM      3  C   UNL     1      46.681   4.917  13.617  0.00  0.00    +0.000 A 
ATOM      4  N   UNL     1      47.185   6.083  13.159  0.00  0.00    +0.000 NA
ATOM      5  C   UNL     1      48.014   6.708  14.014  0.00  0.00    +0.000 A 
ATOM      6  C   UNL     1      48.333   6.236  15.304  0.00  0.00    +0.000 A 
ATOM      7  C   UNL     1      49.285   7.210  15.933  0.00  0.00    +0.000 C 
ATOM      8  C   UNL     1      49.419   8.321  14.871  0.00  0.00    +0.000 C 
ATOM      9  N   UNL     1      48.674   7.886  13.712  0.00  0.00    +0.000 N 
ENDROOT
BRANCH   3  10
ATOM     10  C   UNL     1      45.756   4.163  12.700  0.00  0.00    +0.000 C 
ATOM     11  N   UNL     1      45.727   2.805  12.857  0.00  0.00    +0.000 N 
ATOM     12  O   UNL     1      45.062   4.720  11.856  0.00  0.00    +0.000 OA
ATOM     13  H   UNL     1      46.325   2.366  13.541  0.00  0.00    +0.000 HD
ATOM     14  H   UNL     1      45.137   2.254  12.247  0.00  0.00    +0.000 HD
ENDBRANCH   3  10
BRANCH   1  16
ATOM     15  C   UNL     1      47.594   5.282  18.336  0.00  0.00    +0.000 C 
ATOM     16  C   UNL     1      48.119   4.406  17.165  0.00  0.00    +0.000 C 
ATOM     17  C   UNL     1      49.634   4.241  17.415  0.00  0.00    +0.000 C 
ATOM     18  C   UNL     1      47.448   3.025  17.315  0.00  0.00    +0.000 C 
ENDBRANCH   1  16
BRANCH   9  19
ATOM     19  C   UNL     1      48.437   8.682  12.536  0.00  0.00    +0.000 C 
BRANCH  19  20
ATOM     20  C   UNL     1      49.701   8.787  11.711  0.00  0.00    +0.000 A 
ATOM     21  C   UNL     1      50.415   7.627  11.365  0.00  0.00    +0.000 A 
ATOM     22  C   UNL     1      51.629   7.718  10.682  0.00  0.00    +0.000 A 
ATOM     23  C   UNL     1      52.130   8.968  10.342  0.00  0.00    +0.000 A 
ATOM     24  F   UNL     1      53.312   9.057   9.716  0.00  0.00    +0.000 F 
ATOM     25  C   UNL     1      51.430  10.128  10.651  0.00  0.00    +0.000 A 
ATOM     26  C   UNL     1      50.216  10.039  11.335  0.00  0.00    +0.000 A 
ENDBRANCH  19  20
ENDBRANCH   9  19
TORSDOF 4
ENDMDL
MODEL 8
REMARK VINA RESULT:    -5.725      4.531      7.228
REMARK INTER + INTRA:          -7.484
REMARK INTER:                  -6.966
REMARK INTRA:                  -0.519
REMARK UNBOUND:                -0.421
REMARK  Name = 
REMARK  7 active torsions:
REMARK  status: ('A' for Active; 'I' for Inactive)
REMARK    1  A    between atoms: C_1  and  C_2
REMARK    2  A    between atoms: C_2  and  C_3
REMARK    3  A    between atoms: C_2  and  C_4
REMARK    4  A    between atoms: C_2  and  C_5
REMARK    5  A    between atoms: C_7  and  C_8
REMARK    6  A    between atoms: N_16  and  C_17
REMARK    7  A    between atoms: C_17  and  C_18
REMARK                            x       y       z     vdW  Elec       q    Type
REMARK                         _______ _______ _______ _____ _____    ______ ____
ROOT
ATOM      1  C   UNL     1      49.006   7.447  13.743  0.00  0.00    +0.000 A 
ATOM      2  C   UNL     1      48.084   6.514  13.230  0.00  0.00    +0.000 A 
ATOM      3  C   UNL     1      47.580   5.477  14.026  0.00  0.00    +0.000 A 
ATOM      4  N   UNL     1      47.899   5.283  15.323  0.00  0.00    +0.000 NA
ATOM      5  C   UNL     1      48.759   6.183  15.829  0.00  0.00    +0.000 A 
ATOM      6  C   UNL     1      49.330   7.241  15.091  0.00  0.00    +0.000 A 
ATOM      7  C   UNL     1      50.227   8.018  16.010  0.00  0.00    +0.000 C 
ATOM      8  C   UNL     1      50.145   7.238  17.339  0.00  0.00    +0.000 C 
ATOM      9  N   UNL     1      49.167   6.190  17.151  0.00  0.00    +0.000 N 
ENDROOT
BRANCH   3  10
ATOM     10  C   UNL     1      46.610   4.508  13.406  0.00  0.00    +0.000 C 
ATOM     11  N   UNL     1      46.824   3.184  13.674  0.00  0.00    +0.000 N 
ATOM     12  O   UNL     1      45.674   4.869  12.699  0.00  0.00    +0.000 OA
ATOM     13  H   UNL     1      47.614   2.909  14.239  0.00  0.00    +0.000 HD
ATOM     14  H   UNL     1      46.211   2.495  13.261  0.00  0.00    +0.000 HD
ENDBRANCH   3  10
BRANCH   1  16
ATOM     15  C   UNL     1      48.989   8.522  11.407  0.00  0.00    +0.000 C 
ATOM     16  C   UNL     1      49.547   8.589  12.856  0.00  0.00    +0.000 C 
ATOM     17  C   UNL     1      51.083   8.551  12.713  0.00  0.00    +0.000 C 
ATOM     18  C   UNL     1      49.143   9.968  13.418  0.00  0.00    +0.000 C 
ENDBRANCH   1  16
BRANCH   9  19
ATOM     19  C   UNL     1      48.873   5.153  18.106  0.00  0.00    +0.000 C 
BRANCH  19  20
ATOM     20  C   UNL     1      49.796   3.973  17.897  0.00  0.00    +0.000 A 
ATOM     21  C   UNL     1      51.156   4.073  18.238  0.00  0.00    +0.000 A 
ATOM     22  C   UNL     1      52.035   3.023  17.968  0.00  0.00    +0.000 A 
ATOM     23  C   UNL     1      51.555   1.870  17.360  0.00  0.00    +0.000 A 
ATOM     24  F   UNL     1      52.405   0.875  17.069  0.00  0.00    +0.000 F 
ATOM     25  C   UNL     1      50.210   1.737  17.036  0.00  0.00    +0.000 A 
ATOM     26  C   UNL     1      49.330   2.787  17.305  0.00  0.00    +0.000 A 
ENDBRANCH  19  20
ENDBRANCH   9  19
TORSDOF 4
ENDMDL
MODEL 9
REMARK VINA RESULT:    -5.560      3.648      5.030
REMARK INTER + INTRA:          -7.281
REMARK INTER:                  -6.756
REMARK INTRA:                  -0.525
REMARK UNBOUND:                -0.421
REMARK  Name = 
REMARK  7 active torsions:
REMARK  status: ('A' for Active; 'I' for Inactive)
REMARK    1  A    between atoms: C_1  and  C_2
REMARK    2  A    between atoms: C_2  and  C_3
REMARK    3  A    between atoms: C_2  and  C_4
REMARK    4  A    between atoms: C_2  and  C_5
REMARK    5  A    between atoms: C_7  and  C_8
REMARK    6  A    between atoms: N_16  and  C_17
REMARK    7  A    between atoms: C_17  and  C_18
REMARK                            x       y       z     vdW  Elec       q    Type
REMARK                         _______ _______ _______ _____ _____    ______ ____
ROOT
ATOM      1  C   UNL     1      48.921   6.813  17.166  0.00  0.00    +0.000 A 
ATOM      2  C   UNL     1      49.472   7.642  16.170  0.00  0.00    +0.000 A 
ATOM      3  C   UNL     1      49.318   7.344  14.809  0.00  0.00    +0.000 A 
ATOM      4  N   UNL     1      48.637   6.282  14.331  0.00  0.00    +0.000 NA
ATOM      5  C   UNL     1      48.086   5.499  15.274  0.00  0.00    +0.000 A 
ATOM      6  C   UNL     1      48.212   5.715  16.662  0.00  0.00    +0.000 A 
ATOM      7  C   UNL     1      47.455   4.631  17.372  0.00  0.00    +0.000 C 
ATOM      8  C   UNL     1      46.937   3.740  16.224  0.00  0.00    +0.000 C 
ATOM      9  N   UNL     1      47.303   4.394  14.988  0.00  0.00    +0.000 N 
ENDROOT
BRANCH   3  10
ATOM     10  C   UNL     1      49.947   8.267  13.801  0.00  0.00    +0.000 C 
ATOM     11  N   UNL     1      50.929   7.724  13.017  0.00  0.00    +0.000 N 
ATOM     12  O   UNL     1      49.610   9.439  13.675  0.00  0.00    +0.000 OA
ATOM     13  H   UNL     1      51.206   6.764  13.154  0.00  0.00    +0.000 HD
ATOM     14  H   UNL     1      51.396   8.313  12.340  0.00  0.00    +0.000 HD
ENDBRANCH   3  10
BRANCH   1  16
ATOM     15  C   UNL     1      49.977   8.419  18.875  0.00  0.00    +0.000 C 
ATOM     16  C   UNL     1      49.092   7.160  18.661  0.00  0.00    +0.000 C 
ATOM     17  C   UNL     1      49.779   6.029  19.457  0.00  0.00    +0.000 C 
ATOM     18  C   UNL     1      47.731   7.463  19.321  0.00  0.00    +0.000 C 
ENDBRANCH   1  16
BRANCH   9  19
ATOM     19  C   UNL     1      47.119   3.838  13.673  0.00  0.00    +0.000 C 
BRANCH  19  20
ATOM     20  C   UNL     1      45.768   4.239  13.120  0.00  0.00    +0.000 A 
ATOM     21  C   UNL     1      45.309   5.558  13.270  0.00  0.00    +0.000 A 
ATOM     22  C   UNL     1      44.029   5.917  12.844  0.00  0.00    +0.000 A 
ATOM     23  C   UNL     1      43.207   4.958  12.266  0.00  0.00    +0.000 A 
ATOM     24  F   UNL     1      41.966   5.294  11.888  0.00  0.00    +0.000 F 
ATOM     25  C   UNL     1      43.648   3.653  12.084  0.00  0.00    +0.000 A 
ATOM     26  C   UNL     1      44.928   3.292  12.510  0.00  0.00    +0.000 A 
ENDBRANCH  19  20
ENDBRANCH   9  19
TORSDOF 4
ENDMDL
