MODEL 1
REMARK VINA RESULT:    -7.802      0.000      0.000
REMARK INTER + INTRA:         -11.932
REMARK INTER:                 -10.767
REMARK INTRA:                  -1.165
REMARK UNBOUND:                -1.165
REMARK  Name = 
REMARK  7 active torsions:
REMARK  status: ('A' for Active; 'I' for Inactive)
REMARK    1  A    between atoms: N_1  and  C_2
REMARK    2  A    between atoms: C_2  and  C_3
REMARK    3  A    between atoms: C_3  and  N_4
REMARK    4  A    between atoms: C_3  and  C_17
REMARK    5  A    between atoms: C_5  and  C_7
REMARK    6  A    between atoms: C_20  and  C_21
REMARK    7  A    between atoms: C_21  and  N_22
REMARK                            x       y       z     vdW  Elec       q    Type
REMARK                         _______ _______ _______ _____ _____    ______ ____
ROOT
ATOM      1  C   UNL     1      47.386   4.854  14.496  0.00  0.00    +0.000 C 
ENDROOT
BRANCH   1   2
ATOM      2  C   UNL     1      46.513   4.678  13.264  0.00  0.00    +0.000 A 
ATOM      3  C   UNL     1      45.885   3.442  13.035  0.00  0.00    +0.000 A 
ATOM      4  C   UNL     1      45.100   3.240  11.898  0.00  0.00    +0.000 A 
ATOM      5  C   UNL     1      44.950   4.262  10.955  0.00  0.00    +0.000 A 
ATOM      6  C   UNL     1      45.566   5.498  11.183  0.00  0.00    +0.000 A 
ATOM      7  C   UNL     1      46.348   5.699  12.318  0.00  0.00    +0.000 A 
BRANCH   5   8
ATOM      8  C   UNL     1      44.152   4.044   9.695  0.00  0.00    +0.000 C 
BRANCH   8   9
ATOM      9  N   UNL     1      44.921   4.460   8.530  0.00  0.00    +0.000 N 
ATOM     10  C   UNL     1      45.690   3.407   8.002  0.00  0.00    +0.000 A 
ATOM     11  C   UNL     1      46.478   3.649   6.881  0.00  0.00    +0.000 A 
ATOM     12  C   UNL     1      47.229   2.608   6.334  0.00  0.00    +0.000 A 
ATOM     13  C   UNL     1      47.175   1.352   6.920  0.00  0.00    +0.000 A 
ATOM     14  C   UNL     1      46.362   1.188   8.025  0.00  0.00    +0.000 A 
ATOM     15  N   UNL     1      45.624   2.182   8.562  0.00  0.00    +0.000 NA
ATOM     16  H   UNL     1      45.526   5.249   8.734  0.00  0.00    +0.000 HD
ENDBRANCH   8   9
ENDBRANCH   5   8
ENDBRANCH   1   2
BRANCH   1  17
ATOM     17  N   UNL     1      47.676   6.273  14.651  0.00  0.00    +0.000 N 
ATOM     18  C   UNL     1      48.784   6.707  15.338  0.00  0.00    +0.000 C 
ATOM     19  O   UNL     1      49.584   5.939  15.857  0.00  0.00    +0.000 OA
ATOM     20  H   UNL     1      46.982   6.935  14.332  0.00  0.00    +0.000 HD
BRANCH  18  21
ATOM     21  C   UNL     1      48.963   8.157  15.364  0.00  0.00    +0.000 A 
ATOM     22  C   UNL     1      48.977   8.913  16.526  0.00  0.00    +0.000 A 
ATOM     23  S   UNL     1      49.053  10.595  16.229  0.00  0.00    +0.000 S 
ATOM     24  C   UNL     1      49.061  10.356  14.543  0.00  0.00    +0.000 A 
ATOM     25  N   UNL     1      49.070  11.407  13.679  0.00  0.00    +0.000 NA
ATOM     26  C   UNL     1      49.047  11.066  12.433  0.00  0.00    +0.000 A 
ATOM     27  N   UNL     1      49.045   9.773  11.972  0.00  0.00    +0.000 N 
ATOM     28  C   UNL     1      49.155   8.682  12.805  0.00  0.00    +0.000 A 
ATOM     29  O   UNL     1      49.394   7.567  12.357  0.00  0.00    +0.000 OA
ATOM     30  C   UNL     1      49.065   9.014  14.215  0.00  0.00    +0.000 A 
ATOM     31  H   UNL     1      49.107   9.576  10.985  0.00  0.00    +0.000 HD
ENDBRANCH  18  21
ENDBRANCH   1  17
BRANCH   1  32
ATOM     32  C   UNL     1      46.800   4.258  15.810  0.00  0.00    +0.000 C 
BRANCH  32  33
ATOM     33  N   UNL     1      47.648   3.233  16.429  0.00  0.00    +0.000 NA
ATOM     34  H   UNL     1      47.098   2.690  17.091  0.00  0.00    +0.000 HD
ATOM     35  H   UNL     1      48.379   3.693  16.973  0.00  0.00    +0.000 HD
ENDBRANCH  32  33
ENDBRANCH   1  32
TORSDOF 7
ENDMDL
MODEL 2
REMARK VINA RESULT:    -7.773      2.308      3.546
REMARK INTER + INTRA:         -11.892
REMARK INTER:                 -10.573
REMARK INTRA:                  -1.319
REMARK UNBOUND:                -1.165
REMARK  Name = 
REMARK  7 active torsions:
REMARK  status: ('A' for Active; 'I' for Inactive)
REMARK    1  A    between atoms: N_1  and  C_2
REMARK    2  A    between atoms: C_2  and  C_3
REMARK    3  A    between atoms: C_3  and  N_4
REMARK    4  A    between atoms: C_3  and  C_17
REMARK    5  A    between atoms: C_5  and  C_7
REMARK    6  A    between atoms: C_20  and  C_21
REMARK    7  A    between atoms: C_21  and  N_22
REMARK                            x       y       z     vdW  Elec       q    Type
REMARK                         _______ _______ _______ _____ _____    ______ ____
ROOT
ATOM      1  C   UNL     1      47.848   4.475  15.267  0.00  0.00    +0.000 C 
ENDROOT
BRANCH   1   2
ATOM      2  C   UNL     1      46.906   4.520  14.075  0.00  0.00    +0.000 A 
ATOM      3  C   UNL     1      46.420   3.318  13.534  0.00  0.00    +0.000 A 
ATOM      4  C   UNL     1      45.576   3.325  12.423  0.00  0.00    +0.000 A 
ATOM      5  C   UNL     1      45.223   4.534  11.814  0.00  0.00    +0.000 A 
ATOM      6  C   UNL     1      45.697   5.734  12.353  0.00  0.00    +0.000 A 
ATOM      7  C   UNL     1      46.538   5.727  13.464  0.00  0.00    +0.000 A 
BRANCH   5   8
ATOM      8  C   UNL     1      44.357   4.557  10.579  0.00  0.00    +0.000 C 
BRANCH   8   9
ATOM      9  N   UNL     1      45.134   4.987   9.424  0.00  0.00    +0.000 N 
ATOM     10  C   UNL     1      45.664   3.897   8.711  0.00  0.00    +0.000 A 
ATOM     11  C   UNL     1      46.429   4.148   7.575  0.00  0.00    +0.000 A 
ATOM     12  C   UNL     1      46.942   3.076   6.845  0.00  0.00    +0.000 A 
ATOM     13  C   UNL     1      46.681   1.781   7.267  0.00  0.00    +0.000 A 
ATOM     14  C   UNL     1      45.906   1.612   8.398  0.00  0.00    +0.000 A 
ATOM     15  N   UNL     1      45.396   2.638   9.112  0.00  0.00    +0.000 NA
ATOM     16  H   UNL     1      45.885   5.617   9.684  0.00  0.00    +0.000 HD
ENDBRANCH   8   9
ENDBRANCH   5   8
ENDBRANCH   1   2
BRANCH   1  17
ATOM     17  N   UNL     1      47.725   5.731  15.994  0.00  0.00    +0.000 N 
ATOM     18  C   UNL     1      48.832   6.448  16.378  0.00  0.00    +0.000 C 
ATOM     19  O   UNL     1      49.976   6.080  16.138  0.00  0.00    +0.000 OA
ATOM     20  H   UNL     1      46.805   6.009  16.305  0.00  0.00    +0.000 HD
BRANCH  18  21
ATOM     21  C   UNL     1      48.543   7.710  17.055  0.00  0.00    +0.000 A 
ATOM     22  C   UNL     1      48.743   8.957  16.483  0.00  0.00    +0.000 A 
ATOM     23  S   UNL     1      48.458  10.246  17.570  0.00  0.00    +0.000 S 
ATOM     24  C   UNL     1      48.068   9.172  18.832  0.00  0.00    +0.000 A 
ATOM     25  N   UNL     1      47.765   9.625  20.079  0.00  0.00    +0.000 NA
ATOM     26  C   UNL     1      47.518   8.689  20.935  0.00  0.00    +0.000 A 
ATOM     27  N   UNL     1      47.519   7.346  20.652  0.00  0.00    +0.000 N 
ATOM     28  C   UNL     1      47.702   6.849  19.382  0.00  0.00    +0.000 A 
ATOM     29  O   UNL     1      47.458   5.677  19.120  0.00  0.00    +0.000 OA
ATOM     30  C   UNL     1      48.099   7.856  18.414  0.00  0.00    +0.000 A 
ATOM     31  H   UNL     1      47.240   6.671  21.348  0.00  0.00    +0.000 HD
ENDBRANCH  18  21
ENDBRANCH   1  17
BRANCH   1  32
ATOM     32  C   UNL     1      47.651   3.258  16.218  0.00  0.00    +0.000 C 
BRANCH  32  33
ATOM     33  N   UNL     1      46.686   3.495  17.297  0.00  0.00    +0.000 NA
ATOM     34  H   UNL     1      47.040   3.097  18.164  0.00  0.00    +0.000 HD
ATOM     35  H   UNL     1      45.822   2.994  17.084  0.00  0.00    +0.000 HD
ENDBRANCH  32  33
ENDBRANCH   1  32
TORSDOF 7
ENDMDL
MODEL 3
REMARK VINA RESULT:    -7.733      2.647      4.248
REMARK INTER + INTRA:         -11.836
REMARK INTER:                 -11.045
REMARK INTRA:                  -0.790
REMARK UNBOUND:                -1.165
REMARK  Name = 
REMARK  7 active torsions:
REMARK  status: ('A' for Active; 'I' for Inactive)
REMARK    1  A    between atoms: N_1  and  C_2
REMARK    2  A    between atoms: C_2  and  C_3
REMARK    3  A    between atoms: C_3  and  N_4
REMARK    4  A    between atoms: C_3  and  C_17
REMARK    5  A    between atoms: C_5  and  C_7
REMARK    6  A    between atoms: C_20  and  C_21
REMARK    7  A    between atoms: C_21  and  N_22
REMARK                            x       y       z     vdW  Elec       q    Type
REMARK                         _______ _______ _______ _____ _____    ______ ____
ROOT
ATOM      1  C   UNL     1      47.420   6.815  13.576  0.00  0.00    +0.000 C 
ENDROOT
BRANCH   1   2
ATOM      2  C   UNL     1      46.550   5.958  12.671  0.00  0.00    +0.000 A 
ATOM      3  C   UNL     1      46.156   4.680  13.101  0.00  0.00    +0.000 A 
ATOM      4  C   UNL     1      45.381   3.858  12.281  0.00  0.00    +0.000 A 
ATOM      5  C   UNL     1      45.007   4.289  11.003  0.00  0.00    +0.000 A 
ATOM      6  C   UNL     1      45.389   5.564  10.574  0.00  0.00    +0.000 A 
ATOM      7  C   UNL     1      46.161   6.384  11.394  0.00  0.00    +0.000 A 
BRANCH   5   8
ATOM      8  C   UNL     1      44.218   3.393  10.083  0.00  0.00    +0.000 C 
BRANCH   8   9
ATOM      9  N   UNL     1      44.969   2.180   9.789  0.00  0.00    +0.000 N 
ATOM     10  C   UNL     1      45.646   2.265   8.560  0.00  0.00    +0.000 A 
ATOM     11  C   UNL     1      46.414   1.181   8.142  0.00  0.00    +0.000 A 
ATOM     12  C   UNL     1      47.108   1.260   6.934  0.00  0.00    +0.000 A 
ATOM     13  C   UNL     1      47.019   2.417   6.175  0.00  0.00    +0.000 A 
ATOM     14  C   UNL     1      46.246   3.452   6.661  0.00  0.00    +0.000 A 
ATOM     15  N   UNL     1      45.573   3.396   7.830  0.00  0.00    +0.000 NA
ATOM     16  H   UNL     1      44.378   1.356   9.792  0.00  0.00    +0.000 HD
ENDBRANCH   8   9
ENDBRANCH   5   8
ENDBRANCH   1   2
BRANCH   1  17
ATOM     17  N   UNL     1      47.936   5.971  14.645  0.00  0.00    +0.000 N 
ATOM     18  C   UNL     1      48.429   6.511  15.809  0.00  0.00    +0.000 C 
ATOM     19  O   UNL     1      48.466   7.718  16.016  0.00  0.00    +0.000 OA
ATOM     20  H   UNL     1      48.024   4.981  14.466  0.00  0.00    +0.000 HD
BRANCH  18  21
ATOM     21  C   UNL     1      48.864   5.534  16.804  0.00  0.00    +0.000 A 
ATOM     22  C   UNL     1      48.008   4.652  17.447  0.00  0.00    +0.000 A 
ATOM     23  S   UNL     1      48.782   3.736  18.666  0.00  0.00    +0.000 S 
ATOM     24  C   UNL     1      50.275   4.498  18.371  0.00  0.00    +0.000 A 
ATOM     25  N   UNL     1      51.377   4.207  19.114  0.00  0.00    +0.000 NA
ATOM     26  C   UNL     1      52.427   4.886  18.789  0.00  0.00    +0.000 A 
ATOM     27  N   UNL     1      52.484   5.807  17.773  0.00  0.00    +0.000 N 
ATOM     28  C   UNL     1      51.430   6.046  16.921  0.00  0.00    +0.000 A 
ATOM     29  O   UNL     1      51.586   6.684  15.886  0.00  0.00    +0.000 OA
ATOM     30  C   UNL     1      50.197   5.393  17.322  0.00  0.00    +0.000 A 
ATOM     31  H   UNL     1      53.357   6.244  17.520  0.00  0.00    +0.000 HD
ENDBRANCH  18  21
ENDBRANCH   1  17
BRANCH   1  32
ATOM     32  C   UNL     1      48.574   7.572  12.856  0.00  0.00    +0.000 C 
BRANCH  32  33
ATOM     33  N   UNL     1      49.729   6.728  12.530  0.00  0.00    +0.000 NA
ATOM     34  H   UNL     1      50.556   7.083  13.007  0.00  0.00    +0.000 HD
ATOM     35  H   UNL     1      49.921   6.801  11.531  0.00  0.00    +0.000 HD
ENDBRANCH  32  33
ENDBRANCH   1  32
TORSDOF 7
ENDMDL
MODEL 4
REMARK VINA RESULT:    -7.707      1.903      4.421
REMARK INTER + INTRA:         -11.800
REMARK INTER:                 -11.287
REMARK INTRA:                  -0.513
REMARK UNBOUND:                -1.165
REMARK  Name = 
REMARK  7 active torsions:
REMARK  status: ('A' for Active; 'I' for Inactive)
REMARK    1  A    between atoms: N_1  and  C_2
REMARK    2  A    between atoms: C_2  and  C_3
REMARK    3  A    between atoms: C_3  and  N_4
REMARK    4  A    between atoms: C_3  and  C_17
REMARK    5  A    between atoms: C_5  and  C_7
REMARK    6  A    between atoms: C_20  and  C_21
REMARK    7  A    between atoms: C_21  and  N_22
REMARK                            x       y       z     vdW  Elec       q    Type
REMARK                         _______ _______ _______ _____ _____    ______ ____
ROOT
ATOM      1  C   UNL     1      46.676   8.113  12.946  0.00  0.00    +0.000 C 
ENDROOT
BRANCH   1   2
ATOM      2  C   UNL     1      46.009   7.013  12.135  0.00  0.00    +0.000 A 
ATOM      3  C   UNL     1      46.558   6.641  10.896  0.00  0.00    +0.000 A 
ATOM      4  C   UNL     1      45.953   5.655  10.115  0.00  0.00    +0.000 A 
ATOM      5  C   UNL     1      44.771   5.042  10.545  0.00  0.00    +0.000 A 
ATOM      6  C   UNL     1      44.225   5.403  11.782  0.00  0.00    +0.000 A 
ATOM      7  C   UNL     1      44.831   6.386  12.562  0.00  0.00    +0.000 A 
BRANCH   5   8
ATOM      8  C   UNL     1      44.074   4.015   9.689  0.00  0.00    +0.000 C 
BRANCH   8   9
ATOM      9  N   UNL     1      44.813   2.760   9.700  0.00  0.00    +0.000 N 
ATOM     10  C   UNL     1      45.533   2.562   8.508  0.00  0.00    +0.000 A 
ATOM     11  C   UNL     1      46.295   1.406   8.370  0.00  0.00    +0.000 A 
ATOM     12  C   UNL     1      47.032   1.207   7.202  0.00  0.00    +0.000 A 
ATOM     13  C   UNL     1      46.989   2.166   6.201  0.00  0.00    +0.000 A 
ATOM     14  C   UNL     1      46.217   3.292   6.416  0.00  0.00    +0.000 A 
ATOM     15  N   UNL     1      45.505   3.503   7.543  0.00  0.00    +0.000 NA
ATOM     16  H   UNL     1      44.208   1.963   9.864  0.00  0.00    +0.000 HD
ENDBRANCH   8   9
ENDBRANCH   5   8
ENDBRANCH   1   2
BRANCH   1  17
ATOM     17  N   UNL     1      47.157   7.533  14.192  0.00  0.00    +0.000 N 
ATOM     18  C   UNL     1      48.327   6.814  14.244  0.00  0.00    +0.000 C 
ATOM     19  O   UNL     1      49.027   6.617  13.258  0.00  0.00    +0.000 OA
ATOM     20  H   UNL     1      46.552   7.580  15.000  0.00  0.00    +0.000 HD
BRANCH  18  21
ATOM     21  C   UNL     1      48.699   6.340  15.575  0.00  0.00    +0.000 A 
ATOM     22  C   UNL     1      49.640   6.962  16.381  0.00  0.00    +0.000 A 
ATOM     23  S   UNL     1      49.973   6.092  17.815  0.00  0.00    +0.000 S 
ATOM     24  C   UNL     1      48.875   4.862  17.393  0.00  0.00    +0.000 A 
ATOM     25  N   UNL     1      48.704   3.765  18.179  0.00  0.00    +0.000 NA
ATOM     26  C   UNL     1      47.858   2.907  17.712  0.00  0.00    +0.000 A 
ATOM     27  N   UNL     1      47.149   3.058  16.547  0.00  0.00    +0.000 N 
ATOM     28  C   UNL     1      47.201   4.202  15.782  0.00  0.00    +0.000 A 
ATOM     29  O   UNL     1      46.384   4.404  14.892  0.00  0.00    +0.000 OA
ATOM     30  C   UNL     1      48.225   5.139  16.206  0.00  0.00    +0.000 A 
ATOM     31  H   UNL     1      46.445   2.387  16.279  0.00  0.00    +0.000 HD
ENDBRANCH  18  21
ENDBRANCH   1  17
BRANCH   1  32
ATOM     32  C   UNL     1      47.816   8.876  12.210  0.00  0.00    +0.000 C 
BRANCH  32  33
ATOM     33  N   UNL     1      47.442  10.224  11.768  0.00  0.00    +0.000 NA
ATOM     34  H   UNL     1      47.086  10.184  10.815  0.00  0.00    +0.000 HD
ATOM     35  H   UNL     1      48.280  10.806  11.735  0.00  0.00    +0.000 HD
ENDBRANCH  32  33
ENDBRANCH   1  32
TORSDOF 7
ENDMDL
MODEL 5
REMARK VINA RESULT:    -6.982      2.452      3.531
REMARK INTER + INTRA:         -10.801
REMARK INTER:                  -9.827
REMARK INTRA:                  -0.973
REMARK UNBOUND:                -1.165
REMARK  Name = 
REMARK  7 active torsions:
REMARK  status: ('A' for Active; 'I' for Inactive)
REMARK    1  A    between atoms: N_1  and  C_2
REMARK    2  A    between atoms: C_2  and  C_3
REMARK    3  A    between atoms: C_3  and  N_4
REMARK    4  A    between atoms: C_3  and  C_17
REMARK    5  A    between atoms: C_5  and  C_7
REMARK    6  A    between atoms: C_20  and  C_21
REMARK    7  A    between atoms: C_21  and  N_22
REMARK                            x       y       z     vdW  Elec       q    Type
REMARK                         _______ _______ _______ _____ _____    ______ ____
ROOT
ATOM      1  C   UNL     1      46.724   8.070  13.498  0.00  0.00    +0.000 C 
ENDROOT
BRANCH   1   2
ATOM      2  C   UNL     1      46.112   7.046  12.556  0.00  0.00    +0.000 A 
ATOM      3  C   UNL     1      46.708   6.817  11.305  0.00  0.00    +0.000 A 
ATOM      4  C   UNL     1      46.153   5.904  10.406  0.00  0.00    +0.000 A 
ATOM      5  C   UNL     1      44.975   5.224  10.730  0.00  0.00    +0.000 A 
ATOM      6  C   UNL     1      44.381   5.442  11.979  0.00  0.00    +0.000 A 
ATOM      7  C   UNL     1      44.937   6.352  12.876  0.00  0.00    +0.000 A 
BRANCH   5   8
ATOM      8  C   UNL     1      44.331   4.276   9.750  0.00  0.00    +0.000 C 
BRANCH   8   9
ATOM      9  N   UNL     1      44.872   4.485   8.414  0.00  0.00    +0.000 N 
ATOM     10  C   UNL     1      45.580   3.361   7.951  0.00  0.00    +0.000 A 
ATOM     11  C   UNL     1      46.155   3.407   6.684  0.00  0.00    +0.000 A 
ATOM     12  C   UNL     1      46.842   2.292   6.204  0.00  0.00    +0.000 A 
ATOM     13  C   UNL     1      46.938   1.160   6.999  0.00  0.00    +0.000 A 
ATOM     14  C   UNL     1      46.333   1.188   8.240  0.00  0.00    +0.000 A 
ATOM     15  N   UNL     1      45.659   2.255   8.718  0.00  0.00    +0.000 NA
ATOM     16  H   UNL     1      45.472   5.303   8.369  0.00  0.00    +0.000 HD
ENDBRANCH   8   9
ENDBRANCH   5   8
ENDBRANCH   1   2
BRANCH   1  17
ATOM     17  N   UNL     1      47.797   7.423  14.240  0.00  0.00    +0.000 N 
ATOM     18  C   UNL     1      48.273   7.948  15.417  0.00  0.00    +0.000 C 
ATOM     19  O   UNL     1      47.831   8.980  15.908  0.00  0.00    +0.000 OA
ATOM     20  H   UNL     1      48.260   6.633  13.811  0.00  0.00    +0.000 HD
BRANCH  18  21
ATOM     21  C   UNL     1      49.316   7.158  16.067  0.00  0.00    +0.000 A 
ATOM     22  C   UNL     1      49.100   6.363  17.183  0.00  0.00    +0.000 A 
ATOM     23  S   UNL     1      50.539   5.680  17.806  0.00  0.00    +0.000 S 
ATOM     24  C   UNL     1      51.484   6.432  16.607  0.00  0.00    +0.000 A 
ATOM     25  N   UNL     1      52.838   6.300  16.586  0.00  0.00    +0.000 NA
ATOM     26  C   UNL     1      53.418   6.951  15.633  0.00  0.00    +0.000 A 
ATOM     27  N   UNL     1      52.767   7.699  14.683  0.00  0.00    +0.000 N 
ATOM     28  C   UNL     1      51.395   7.764  14.594  0.00  0.00    +0.000 A 
ATOM     29  O   UNL     1      50.847   8.233  13.603  0.00  0.00    +0.000 OA
ATOM     30  C   UNL     1      50.708   7.145  15.713  0.00  0.00    +0.000 A 
ATOM     31  H   UNL     1      53.274   8.118  13.919  0.00  0.00    +0.000 HD
ENDBRANCH  18  21
ENDBRANCH   1  17
BRANCH   1  32
ATOM     32  C   UNL     1      47.226   9.376  12.816  0.00  0.00    +0.000 C 
BRANCH  32  33
ATOM     33  N   UNL     1      46.161  10.336  12.509  0.00  0.00    +0.000 NA
ATOM     34  H   UNL     1      46.449  10.929  11.733  0.00  0.00    +0.000 HD
ATOM     35  H   UNL     1      46.032  10.956  13.310  0.00  0.00    +0.000 HD
ENDBRANCH  32  33
ENDBRANCH   1  32
TORSDOF 7
ENDMDL
MODEL 6
REMARK VINA RESULT:    -6.794      4.620      8.334
REMARK INTER + INTRA:         -10.541
REMARK INTER:                  -9.137
REMARK INTRA:                  -1.403
REMARK UNBOUND:                -1.165
REMARK  Name = 
REMARK  7 active torsions:
REMARK  status: ('A' for Active; 'I' for Inactive)
REMARK    1  A    between atoms: N_1  and  C_2
REMARK    2  A    between atoms: C_2  and  C_3
REMARK    3  A    between atoms: C_3  and  N_4
REMARK    4  A    between atoms: C_3  and  C_17
REMARK    5  A    between atoms: C_5  and  C_7
REMARK    6  A    between atoms: C_20  and  C_21
REMARK    7  A    between atoms: C_21  and  N_22
REMARK                            x       y       z     vdW  Elec       q    Type
REMARK                         _______ _______ _______ _____ _____    ______ ____
ROOT
ATOM      1  C   UNL     1      49.079   7.405  15.325  0.00  0.00    +0.000 C 
ENDROOT
BRANCH   1   2
ATOM      2  C   UNL     1      49.921   6.470  16.178  0.00  0.00    +0.000 A 
ATOM      3  C   UNL     1      49.287   5.479  16.946  0.00  0.00    +0.000 A 
ATOM      4  C   UNL     1      50.030   4.623  17.761  0.00  0.00    +0.000 A 
ATOM      5  C   UNL     1      51.420   4.760  17.844  0.00  0.00    +0.000 A 
ATOM      6  C   UNL     1      52.057   5.739  17.075  0.00  0.00    +0.000 A 
ATOM      7  C   UNL     1      51.315   6.592  16.260  0.00  0.00    +0.000 A 
BRANCH   5   8
ATOM      8  C   UNL     1      52.232   3.881  18.761  0.00  0.00    +0.000 C 
BRANCH   8   9
ATOM      9  N   UNL     1      52.031   2.477  18.426  0.00  0.00    +0.000 N 
ATOM     10  C   UNL     1      53.155   1.922  17.787  0.00  0.00    +0.000 A 
ATOM     11  C   UNL     1      53.116   0.584  17.408  0.00  0.00    +0.000 A 
ATOM     12  C   UNL     1      54.232   0.014  16.794  0.00  0.00    +0.000 A 
ATOM     13  C   UNL     1      55.356   0.794  16.572  0.00  0.00    +0.000 A 
ATOM     14  C   UNL     1      55.322   2.112  16.985  0.00  0.00    +0.000 A 
ATOM     15  N   UNL     1      54.254   2.677  17.587  0.00  0.00    +0.000 NA
ATOM     16  H   UNL     1      51.211   2.338  17.846  0.00  0.00    +0.000 HD
ENDBRANCH   8   9
ENDBRANCH   5   8
ENDBRANCH   1   2
BRANCH   1  17
ATOM     17  N   UNL     1      47.947   6.653  14.802  0.00  0.00    +0.000 N 
ATOM     18  C   UNL     1      47.956   6.139  13.528  0.00  0.00    +0.000 C 
ATOM     19  O   UNL     1      48.902   6.281  12.763  0.00  0.00    +0.000 OA
ATOM     20  H   UNL     1      47.108   6.610  15.363  0.00  0.00    +0.000 HD
BRANCH  18  21
ATOM     21  C   UNL     1      46.769   5.367  13.168  0.00  0.00    +0.000 A 
ATOM     22  C   UNL     1      46.707   3.982  13.205  0.00  0.00    +0.000 A 
ATOM     23  S   UNL     1      45.240   3.360  12.584  0.00  0.00    +0.000 S 
ATOM     24  C   UNL     1      44.654   4.922  12.246  0.00  0.00    +0.000 A 
ATOM     25  N   UNL     1      43.446   5.111  11.649  0.00  0.00    +0.000 NA
ATOM     26  C   UNL     1      43.153   6.350  11.432  0.00  0.00    +0.000 A 
ATOM     27  N   UNL     1      43.942   7.418  11.781  0.00  0.00    +0.000 N 
ATOM     28  C   UNL     1      45.114   7.280  12.491  0.00  0.00    +0.000 A 
ATOM     29  O   UNL     1      45.665   8.252  12.995  0.00  0.00    +0.000 OA
ATOM     30  C   UNL     1      45.539   5.902  12.652  0.00  0.00    +0.000 A 
ATOM     31  H   UNL     1      43.618   8.364  11.654  0.00  0.00    +0.000 HD
ENDBRANCH  18  21
ENDBRANCH   1  17
BRANCH   1  32
ATOM     32  C   UNL     1      48.603   8.702  16.044  0.00  0.00    +0.000 C 
BRANCH  32  33
ATOM     33  N   UNL     1      47.364   9.266  15.496  0.00  0.00    +0.000 NA
ATOM     34  H   UNL     1      47.391  10.281  15.569  0.00  0.00    +0.000 HD
ATOM     35  H   UNL     1      46.578   8.959  16.071  0.00  0.00    +0.000 HD
ENDBRANCH  32  33
ENDBRANCH   1  32
TORSDOF 7
ENDMDL
MODEL 7
REMARK VINA RESULT:    -6.719      2.630      4.984
REMARK INTER + INTRA:         -10.438
REMARK INTER:                  -9.078
REMARK INTRA:                  -1.360
REMARK UNBOUND:                -1.165
REMARK  Name = 
REMARK  7 active torsions:
REMARK  status: ('A' for Active; 'I' for Inactive)
REMARK    1  A    between atoms: N_1  and  C_2
REMARK    2  A    between atoms: C_2  and  C_3
REMARK    3  A    between atoms: C_3  and  N_4
REMARK    4  A    between atoms: C_3  and  C_17
REMARK    5  A    between atoms: C_5  and  C_7
REMARK    6  A    between atoms: C_20  and  C_21
REMARK    7  A    between atoms: C_21  and  N_22
REMARK                            x       y       z     vdW  Elec       q    Type
REMARK                         _______ _______ _______ _____ _____    ______ ____
ROOT
ATOM      1  C   UNL     1      49.202   8.300  14.532  0.00  0.00    +0.000 C 
ENDROOT
BRANCH   1   2
ATOM      2  C   UNL     1      48.008   7.770  13.756  0.00  0.00    +0.000 A 
ATOM      3  C   UNL     1      47.975   6.418  13.379  0.00  0.00    +0.000 A 
ATOM      4  C   UNL     1      46.905   5.907  12.642  0.00  0.00    +0.000 A 
ATOM      5  C   UNL     1      45.860   6.747  12.244  0.00  0.00    +0.000 A 
ATOM      6  C   UNL     1      45.883   8.094  12.623  0.00  0.00    +0.000 A 
ATOM      7  C   UNL     1      46.950   8.602  13.361  0.00  0.00    +0.000 A 
BRANCH   5   8
ATOM      8  C   UNL     1      44.724   6.226  11.400  0.00  0.00    +0.000 C 
BRANCH   8   9
ATOM      9  N   UNL     1      45.163   6.031  10.025  0.00  0.00    +0.000 N 
ATOM     10  C   UNL     1      45.110   4.678   9.642  0.00  0.00    +0.000 A 
ATOM     11  C   UNL     1      45.496   4.332   8.351  0.00  0.00    +0.000 A 
ATOM     12  C   UNL     1      45.427   2.997   7.951  0.00  0.00    +0.000 A 
ATOM     13  C   UNL     1      44.976   2.042   8.850  0.00  0.00    +0.000 A 
ATOM     14  C   UNL     1      44.602   2.465  10.110  0.00  0.00    +0.000 A 
ATOM     15  N   UNL     1      44.656   3.753  10.511  0.00  0.00    +0.000 NA
ATOM     16  H   UNL     1      46.100   6.388   9.870  0.00  0.00    +0.000 HD
ENDBRANCH   8   9
ENDBRANCH   5   8
ENDBRANCH   1   2
BRANCH   1  17
ATOM     17  N   UNL     1      49.845   7.179  15.203  0.00  0.00    +0.000 N 
ATOM     18  C   UNL     1      50.039   7.173  16.563  0.00  0.00    +0.000 C 
ATOM     19  O   UNL     1      49.688   8.099  17.286  0.00  0.00    +0.000 OA
ATOM     20  H   UNL     1      50.245   6.450  14.629  0.00  0.00    +0.000 HD
BRANCH  18  21
ATOM     21  C   UNL     1      50.651   5.958  17.092  0.00  0.00    +0.000 A 
ATOM     22  C   UNL     1      51.949   5.895  17.578  0.00  0.00    +0.000 A 
ATOM     23  S   UNL     1      52.434   4.307  17.987  0.00  0.00    +0.000 S 
ATOM     24  C   UNL     1      50.929   3.664  17.521  0.00  0.00    +0.000 A 
ATOM     25  N   UNL     1      50.683   2.327  17.573  0.00  0.00    +0.000 NA
ATOM     26  C   UNL     1      49.506   1.990  17.160  0.00  0.00    +0.000 A 
ATOM     27  N   UNL     1      48.544   2.868  16.727  0.00  0.00    +0.000 N 
ATOM     28  C   UNL     1      48.705   4.235  16.770  0.00  0.00    +0.000 A 
ATOM     29  O   UNL     1      47.753   4.989  16.610  0.00  0.00    +0.000 OA
ATOM     30  C   UNL     1      50.052   4.652  17.114  0.00  0.00    +0.000 A 
ATOM     31  H   UNL     1      47.617   2.546  16.494  0.00  0.00    +0.000 HD
ENDBRANCH  18  21
ENDBRANCH   1  17
BRANCH   1  32
ATOM     32  C   UNL     1      50.231   9.109  13.686  0.00  0.00    +0.000 C 
BRANCH  32  33
ATOM     33  N   UNL     1      51.464   8.373  13.385  0.00  0.00    +0.000 NA
ATOM     34  H   UNL     1      51.294   7.719  12.625  0.00  0.00    +0.000 HD
ATOM     35  H   UNL     1      51.719   7.809  14.197  0.00  0.00    +0.000 HD
ENDBRANCH  32  33
ENDBRANCH   1  32
TORSDOF 7
ENDMDL
MODEL 8
REMARK VINA RESULT:    -6.548      2.689      3.741
REMARK INTER + INTRA:         -10.202
REMARK INTER:                 -10.205
REMARK INTRA:                   0.003
REMARK UNBOUND:                -1.165
REMARK  Name = 
REMARK  7 active torsions:
REMARK  status: ('A' for Active; 'I' for Inactive)
REMARK    1  A    between atoms: N_1  and  C_2
REMARK    2  A    between atoms: C_2  and  C_3
REMARK    3  A    between atoms: C_3  and  N_4
REMARK    4  A    between atoms: C_3  and  C_17
REMARK    5  A    between atoms: C_5  and  C_7
REMARK    6  A    between atoms: C_20  and  C_21
REMARK    7  A    between atoms: C_21  and  N_22
REMARK                            x       y       z     vdW  Elec       q    Type
REMARK                         _______ _______ _______ _____ _____    ______ ____
ROOT
ATOM      1  C   UNL     1      47.460   6.909  13.457  0.00  0.00    +0.000 C 
ENDROOT
BRANCH   1   2
ATOM      2  C   UNL     1      46.666   5.976  12.559  0.00  0.00    +0.000 A 
ATOM      3  C   UNL     1      46.238   6.429  11.300  0.00  0.00    +0.000 A 
ATOM      4  C   UNL     1      45.482   5.605  10.464  0.00  0.00    +0.000 A 
ATOM      5  C   UNL     1      45.116   4.321  10.883  0.00  0.00    +0.000 A 
ATOM      6  C   UNL     1      45.547   3.862  12.132  0.00  0.00    +0.000 A 
ATOM      7  C   UNL     1      46.303   4.684  12.965  0.00  0.00    +0.000 A 
BRANCH   5   8
ATOM      8  C   UNL     1      44.254   3.439  10.016  0.00  0.00    +0.000 C 
BRANCH   8   9
ATOM      9  N   UNL     1      44.959   2.207   9.688  0.00  0.00    +0.000 N 
ATOM     10  C   UNL     1      45.696   2.325   8.496  0.00  0.00    +0.000 A 
ATOM     11  C   UNL     1      46.429   1.228   8.051  0.00  0.00    +0.000 A 
ATOM     12  C   UNL     1      47.183   1.338   6.882  0.00  0.00    +0.000 A 
ATOM     13  C   UNL     1      47.185   2.538   6.186  0.00  0.00    +0.000 A 
ATOM     14  C   UNL     1      46.440   3.583   6.696  0.00  0.00    +0.000 A 
ATOM     15  N   UNL     1      45.711   3.496   7.829  0.00  0.00    +0.000 NA
ATOM     16  H   UNL     1      44.329   1.415   9.618  0.00  0.00    +0.000 HD
ENDBRANCH   8   9
ENDBRANCH   5   8
ENDBRANCH   1   2
BRANCH   1  17
ATOM     17  N   UNL     1      48.812   7.013  12.926  0.00  0.00    +0.000 N 
ATOM     18  C   UNL     1      49.171   8.027  12.071  0.00  0.00    +0.000 C 
ATOM     19  O   UNL     1      48.386   8.894  11.706  0.00  0.00    +0.000 OA
ATOM     20  H   UNL     1      49.455   6.257  13.116  0.00  0.00    +0.000 HD
BRANCH  18  21
ATOM     21  C   UNL     1      50.574   8.023  11.665  0.00  0.00    +0.000 A 
ATOM     22  C   UNL     1      51.047   7.390  10.526  0.00  0.00    +0.000 A 
ATOM     23  S   UNL     1      52.752   7.430  10.396  0.00  0.00    +0.000 S 
ATOM     24  C   UNL     1      52.901   8.287  11.859  0.00  0.00    +0.000 A 
ATOM     25  N   UNL     1      54.120   8.611  12.369  0.00  0.00    +0.000 NA
ATOM     26  C   UNL     1      54.071   9.235  13.499  0.00  0.00    +0.000 A 
ATOM     27  N   UNL     1      52.916   9.590  14.151  0.00  0.00    +0.000 N 
ATOM     28  C   UNL     1      51.664   9.389  13.617  0.00  0.00    +0.000 A 
ATOM     29  O   UNL     1      50.676   9.928  14.101  0.00  0.00    +0.000 OA
ATOM     30  C   UNL     1      51.669   8.586  12.407  0.00  0.00    +0.000 A 
ATOM     31  H   UNL     1      52.947  10.147  14.991  0.00  0.00    +0.000 HD
ENDBRANCH  18  21
ENDBRANCH   1  17
BRANCH   1  32
ATOM     32  C   UNL     1      46.832   8.319  13.662  0.00  0.00    +0.000 C 
BRANCH  32  33
ATOM     33  N   UNL     1      47.435   9.087  14.758  0.00  0.00    +0.000 NA
ATOM     34  H   UNL     1      47.847   8.448  15.435  0.00  0.00    +0.000 HD
ATOM     35  H   UNL     1      46.699   9.592  15.252  0.00  0.00    +0.000 HD
ENDBRANCH  32  33
ENDBRANCH   1  32
TORSDOF 7
ENDMDL
MODEL 9
REMARK VINA RESULT:    -6.352      3.869      8.370
REMARK INTER + INTRA:          -9.930
REMARK INTER:                 -10.069
REMARK INTRA:                   0.139
REMARK UNBOUND:                -1.165
REMARK  Name = 
REMARK  7 active torsions:
REMARK  status: ('A' for Active; 'I' for Inactive)
REMARK    1  A    between atoms: N_1  and  C_2
REMARK    2  A    between atoms: C_2  and  C_3
REMARK    3  A    between atoms: C_3  and  N_4
REMARK    4  A    between atoms: C_3  and  C_17
REMARK    5  A    between atoms: C_5  and  C_7
REMARK    6  A    between atoms: C_20  and  C_21
REMARK    7  A    between atoms: C_21  and  N_22
REMARK                            x       y       z     vdW  Elec       q    Type
REMARK                         _______ _______ _______ _____ _____    ______ ____
ROOT
ATOM      1  C   UNL     1      48.357   7.392  13.100  0.00  0.00    +0.000 C 
ENDROOT
BRANCH   1   2
ATOM      2  C   UNL     1      48.670   6.783  14.457  0.00  0.00    +0.000 A 
ATOM      3  C   UNL     1      49.819   7.197  15.150  0.00  0.00    +0.000 A 
ATOM      4  C   UNL     1      50.149   6.637  16.386  0.00  0.00    +0.000 A 
ATOM      5  C   UNL     1      49.349   5.631  16.939  0.00  0.00    +0.000 A 
ATOM      6  C   UNL     1      48.199   5.221  16.257  0.00  0.00    +0.000 A 
ATOM      7  C   UNL     1      47.869   5.782  15.025  0.00  0.00    +0.000 A 
BRANCH   5   8
ATOM      8  C   UNL     1      49.720   4.975  18.245  0.00  0.00    +0.000 C 
BRANCH   8   9
ATOM      9  N   UNL     1      51.166   4.822  18.342  0.00  0.00    +0.000 N 
ATOM     10  C   UNL     1      51.578   3.513  18.034  0.00  0.00    +0.000 A 
ATOM     11  C   UNL     1      52.936   3.211  18.079  0.00  0.00    +0.000 A 
ATOM     12  C   UNL     1      53.361   1.922  17.755  0.00  0.00    +0.000 A 
ATOM     13  C   UNL     1      52.422   0.968  17.395  0.00  0.00    +0.000 A 
ATOM     14  C   UNL     1      51.094   1.347  17.365  0.00  0.00    +0.000 A 
ATOM     15  N   UNL     1      50.666   2.590  17.668  0.00  0.00    +0.000 NA
ATOM     16  H   UNL     1      51.515   5.079  19.259  0.00  0.00    +0.000 HD
ENDBRANCH   8   9
ENDBRANCH   5   8
ENDBRANCH   1   2
BRANCH   1  17
ATOM     17  N   UNL     1      47.621   6.408  12.317  0.00  0.00    +0.000 N 
ATOM     18  C   UNL     1      46.410   6.711  11.742  0.00  0.00    +0.000 C 
ATOM     19  O   UNL     1      45.881   7.810  11.852  0.00  0.00    +0.000 OA
ATOM     20  H   UNL     1      47.971   5.461  12.297  0.00  0.00    +0.000 HD
BRANCH  18  21
ATOM     21  C   UNL     1      45.820   5.636  10.948  0.00  0.00    +0.000 A 
ATOM     22  C   UNL     1      45.886   5.572   9.565  0.00  0.00    +0.000 A 
ATOM     23  S   UNL     1      44.976   4.281   8.910  0.00  0.00    +0.000 S 
ATOM     24  C   UNL     1      44.467   3.779  10.455  0.00  0.00    +0.000 A 
ATOM     25  N   UNL     1      43.612   2.733  10.613  0.00  0.00    +0.000 NA
ATOM     26  C   UNL     1      43.297   2.491  11.843  0.00  0.00    +0.000 A 
ATOM     27  N   UNL     1      43.779   3.180  12.928  0.00  0.00    +0.000 N 
ATOM     28  C   UNL     1      44.734   4.165  12.824  0.00  0.00    +0.000 A 
ATOM     29  O   UNL     1      45.317   4.587  13.816  0.00  0.00    +0.000 OA
ATOM     30  C   UNL     1      45.028   4.549  11.455  0.00  0.00    +0.000 A 
ATOM     31  H   UNL     1      43.554   2.888  13.867  0.00  0.00    +0.000 HD
ENDBRANCH  18  21
ENDBRANCH   1  17
BRANCH   1  32
ATOM     32  C   UNL     1      47.596   8.750  13.146  0.00  0.00    +0.000 C 
BRANCH  32  33
ATOM     33  N   UNL     1      46.960   9.034  14.437  0.00  0.00    +0.000 NA
ATOM     34  H   UNL     1      46.768   8.159  14.921  0.00  0.00    +0.000 HD
ATOM     35  H   UNL     1      46.055   9.474  14.271  0.00  0.00    +0.000 HD
ENDBRANCH  32  33
ENDBRANCH   1  32
TORSDOF 7
ENDMDL
