MODEL 1
REMARK VINA RESULT:    -6.924      0.000      0.000
REMARK INTER + INTRA:         -12.292
REMARK INTER:                 -10.971
REMARK INTRA:                  -1.320
REMARK UNBOUND:                -1.320
REMARK  Name = 
REMARK  11 active torsions:
REMARK  status: ('A' for Active; 'I' for Inactive)
REMARK    1  A    between atoms: C_1  and  C_2
REMARK    2  A    between atoms: C_2  and  C_3
REMARK    3  A    between atoms: C_3  and  C_4
REMARK    4  A    between atoms: C_4  and  N_5
REMARK    5  A    between atoms: C_4  and  C_21
REMARK    6  A    between atoms: N_5  and  C_6
REMARK    7  A    between atoms: C_6  and  C_7
REMARK    8  A    between atoms: C_10  and  C_11
REMARK    9  A    between atoms: C_11  and  N_12
REMARK   10  A    between atoms: N_12  and  C_13
REMARK   11  A    between atoms: C_13  and  C_14
REMARK                            x       y       z     vdW  Elec       q    Type
REMARK                         _______ _______ _______ _____ _____    ______ ____
ROOT
ATOM      1  N   UNL     1      49.363   5.777  15.785  0.00  0.00    +0.000 NA
ATOM      2  H   UNL     1      48.999   4.908  15.399  0.00  0.00    +0.000 HD
ENDROOT
BRANCH   1   3
ATOM      3  C   UNL     1      49.232   5.754  17.250  0.00  0.00    +0.000 C 
BRANCH   3   4
ATOM      4  C   UNL     1      50.461   5.040  17.824  0.00  0.00    +0.000 A 
ATOM      5  C   UNL     1      51.457   5.682  18.551  0.00  0.00    +0.000 A 
ATOM      6  S   UNL     1      52.776   4.684  18.948  0.00  0.00    +0.000 S 
ATOM      7  C   UNL     1      52.051   3.342  18.199  0.00  0.00    +0.000 A 
ATOM      8  N   UNL     1      52.687   2.140  18.178  0.00  0.00    +0.000 NA
ATOM      9  C   UNL     1      52.032   1.212  17.567  0.00  0.00    +0.000 A 
ATOM     10  N   UNL     1      50.799   1.375  16.986  0.00  0.00    +0.000 N 
ATOM     11  C   UNL     1      50.097   2.565  17.018  0.00  0.00    +0.000 A 
ATOM     12  O   UNL     1      48.955   2.637  16.570  0.00  0.00    +0.000 OA
ATOM     13  C   UNL     1      50.813   3.648  17.658  0.00  0.00    +0.000 A 
ATOM     14  H   UNL     1      50.329   0.593  16.556  0.00  0.00    +0.000 HD
ENDBRANCH   3   4
BRANCH   3  15
ATOM     15  C   UNL     1      49.011   7.148  17.896  0.00  0.00    +0.000 C 
BRANCH  15  17
ATOM     16  C   UNL     1      47.957   6.833  20.203  0.00  0.00    +0.000 C 
ATOM     17  C   UNL     1      47.780   7.340  18.785  0.00  0.00    +0.000 C 
ENDBRANCH  15  17
ENDBRANCH   3  15
ENDBRANCH   1   3
BRANCH   1  18
ATOM     18  C   UNL     1      48.710   6.906  15.125  0.00  0.00    +0.000 C 
BRANCH  18  19
ATOM     19  C   UNL     1      47.602   6.462  14.204  0.00  0.00    +0.000 A 
ATOM     20  C   UNL     1      47.021   7.352  13.295  0.00  0.00    +0.000 A 
ATOM     21  C   UNL     1      46.003   6.920  12.445  0.00  0.00    +0.000 A 
ATOM     22  C   UNL     1      45.557   5.590  12.480  0.00  0.00    +0.000 A 
ATOM     23  C   UNL     1      46.150   4.697  13.379  0.00  0.00    +0.000 A 
ATOM     24  C   UNL     1      47.160   5.131  14.235  0.00  0.00    +0.000 A 
BRANCH  22  25
ATOM     25  C   UNL     1      44.432   5.137  11.586  0.00  0.00    +0.000 C 
BRANCH  25  26
ATOM     26  N   UNL     1      44.619   5.620  10.219  0.00  0.00    +0.000 NA
ATOM     27  H   UNL     1      44.963   6.581  10.255  0.00  0.00    +0.000 HD
BRANCH  26  28
ATOM     28  C   UNL     1      45.586   4.781   9.504  0.00  0.00    +0.000 C 
BRANCH  28  29
ATOM     29  C   UNL     1      44.892   3.998   8.360  0.00  0.00    +0.000 C 
ATOM     30  C   UNL     1      45.880   3.485   7.329  0.00  0.00    +0.000 C 
ATOM     31  C   UNL     1      46.383   2.191   7.938  0.00  0.00    +0.000 C 
ATOM     32  C   UNL     1      45.214   1.686   8.775  0.00  0.00    +0.000 C 
ATOM     33  N   UNL     1      44.231   2.771   8.836  0.00  0.00    +0.000 NA
ATOM     34  H   UNL     1      43.927   2.927   9.802  0.00  0.00    +0.000 HD
ENDBRANCH  28  29
ENDBRANCH  26  28
ENDBRANCH  25  26
ENDBRANCH  22  25
ENDBRANCH  18  19
ENDBRANCH   1  18
TORSDOF 10
ENDMDL
MODEL 2
REMARK VINA RESULT:    -6.791      1.451      1.994
REMARK INTER + INTRA:         -12.082
REMARK INTER:                 -10.568
REMARK INTRA:                  -1.514
REMARK UNBOUND:                -1.320
REMARK  Name = 
REMARK  11 active torsions:
REMARK  status: ('A' for Active; 'I' for Inactive)
REMARK    1  A    between atoms: C_1  and  C_2
REMARK    2  A    between atoms: C_2  and  C_3
REMARK    3  A    between atoms: C_3  and  C_4
REMARK    4  A    between atoms: C_4  and  N_5
REMARK    5  A    between atoms: C_4  and  C_21
REMARK    6  A    between atoms: N_5  and  C_6
REMARK    7  A    between atoms: C_6  and  C_7
REMARK    8  A    between atoms: C_10  and  C_11
REMARK    9  A    between atoms: C_11  and  N_12
REMARK   10  A    between atoms: N_12  and  C_13
REMARK   11  A    between atoms: C_13  and  C_14
REMARK                            x       y       z     vdW  Elec       q    Type
REMARK                         _______ _______ _______ _____ _____    ______ ____
ROOT
ATOM      1  N   UNL     1      49.239   5.683  15.878  0.00  0.00    +0.000 NA
ATOM      2  H   UNL     1      48.451   5.167  15.494  0.00  0.00    +0.000 HD
ENDROOT
BRANCH   1   3
ATOM      3  C   UNL     1      49.152   5.687  17.347  0.00  0.00    +0.000 C 
BRANCH   3   4
ATOM      4  C   UNL     1      50.409   5.004  17.897  0.00  0.00    +0.000 A 
ATOM      5  C   UNL     1      51.390   5.665  18.628  0.00  0.00    +0.000 A 
ATOM      6  S   UNL     1      52.745   4.705  18.995  0.00  0.00    +0.000 S 
ATOM      7  C   UNL     1      52.059   3.354  18.226  0.00  0.00    +0.000 A 
ATOM      8  N   UNL     1      52.734   2.175  18.177  0.00  0.00    +0.000 NA
ATOM      9  C   UNL     1      52.106   1.236  17.554  0.00  0.00    +0.000 A 
ATOM     10  N   UNL     1      50.863   1.369  16.987  0.00  0.00    +0.000 N 
ATOM     11  C   UNL     1      50.122   2.534  17.047  0.00  0.00    +0.000 A 
ATOM     12  O   UNL     1      48.974   2.575  16.610  0.00  0.00    +0.000 OA
ATOM     13  C   UNL     1      50.806   3.628  17.702  0.00  0.00    +0.000 A 
ATOM     14  H   UNL     1      50.415   0.579  16.546  0.00  0.00    +0.000 HD
ENDBRANCH   3   4
BRANCH   3  15
ATOM     15  C   UNL     1      48.927   7.090  17.973  0.00  0.00    +0.000 C 
BRANCH  15  17
ATOM     16  C   UNL     1      47.482   6.199  19.884  0.00  0.00    +0.000 C 
ATOM     17  C   UNL     1      47.692   7.293  18.854  0.00  0.00    +0.000 C 
ENDBRANCH  15  17
ENDBRANCH   3  15
ENDBRANCH   1   3
BRANCH   1  18
ATOM     18  C   UNL     1      49.292   7.007  15.260  0.00  0.00    +0.000 C 
BRANCH  18  19
ATOM     19  C   UNL     1      48.161   7.226  14.288  0.00  0.00    +0.000 A 
ATOM     20  C   UNL     1      47.709   6.190  13.464  0.00  0.00    +0.000 A 
ATOM     21  C   UNL     1      46.656   6.410  12.577  0.00  0.00    +0.000 A 
ATOM     22  C   UNL     1      46.028   7.662  12.507  0.00  0.00    +0.000 A 
ATOM     23  C   UNL     1      46.470   8.693  13.344  0.00  0.00    +0.000 A 
ATOM     24  C   UNL     1      47.530   8.477  14.222  0.00  0.00    +0.000 A 
BRANCH  22  25
ATOM     25  C   UNL     1      44.914   7.906  11.521  0.00  0.00    +0.000 C 
BRANCH  25  26
ATOM     26  N   UNL     1      44.660   6.716  10.710  0.00  0.00    +0.000 NA
ATOM     27  H   UNL     1      45.501   6.138  10.704  0.00  0.00    +0.000 HD
BRANCH  26  28
ATOM     28  C   UNL     1      43.540   5.946  11.262  0.00  0.00    +0.000 C 
BRANCH  28  29
ATOM     29  C   UNL     1      43.484   4.532  10.631  0.00  0.00    +0.000 C 
ATOM     30  C   UNL     1      44.854   3.885  10.538  0.00  0.00    +0.000 C 
ATOM     31  C   UNL     1      45.052   3.286  11.917  0.00  0.00    +0.000 C 
ATOM     32  C   UNL     1      43.644   2.954  12.393  0.00  0.00    +0.000 C 
ATOM     33  N   UNL     1      42.713   3.580  11.449  0.00  0.00    +0.000 NA
ATOM     34  H   UNL     1      41.990   4.103  11.951  0.00  0.00    +0.000 HD
ENDBRANCH  28  29
ENDBRANCH  26  28
ENDBRANCH  25  26
ENDBRANCH  22  25
ENDBRANCH  18  19
ENDBRANCH   1  18
TORSDOF 10
ENDMDL
MODEL 3
REMARK VINA RESULT:    -6.618      2.267      3.564
REMARK INTER + INTRA:         -11.807
REMARK INTER:                 -10.406
REMARK INTRA:                  -1.401
REMARK UNBOUND:                -1.320
REMARK  Name = 
REMARK  11 active torsions:
REMARK  status: ('A' for Active; 'I' for Inactive)
REMARK    1  A    between atoms: C_1  and  C_2
REMARK    2  A    between atoms: C_2  and  C_3
REMARK    3  A    between atoms: C_3  and  C_4
REMARK    4  A    between atoms: C_4  and  N_5
REMARK    5  A    between atoms: C_4  and  C_21
REMARK    6  A    between atoms: N_5  and  C_6
REMARK    7  A    between atoms: C_6  and  C_7
REMARK    8  A    between atoms: C_10  and  C_11
REMARK    9  A    between atoms: C_11  and  N_12
REMARK   10  A    between atoms: N_12  and  C_13
REMARK   11  A    between atoms: C_13  and  C_14
REMARK                            x       y       z     vdW  Elec       q    Type
REMARK                         _______ _______ _______ _____ _____    ______ ____
ROOT
ATOM      1  N   UNL     1      47.271   7.653  14.603  0.00  0.00    +0.000 NA
ATOM      2  H   UNL     1      46.825   8.145  15.374  0.00  0.00    +0.000 HD
ENDROOT
BRANCH   1   3
ATOM      3  C   UNL     1      48.732   7.697  14.774  0.00  0.00    +0.000 C 
BRANCH   3   4
ATOM      4  C   UNL     1      49.076   6.991  16.090  0.00  0.00    +0.000 A 
ATOM      5  C   UNL     1      49.894   7.541  17.070  0.00  0.00    +0.000 A 
ATOM      6  S   UNL     1      50.226   6.490  18.365  0.00  0.00    +0.000 S 
ATOM      7  C   UNL     1      49.255   5.269  17.689  0.00  0.00    +0.000 A 
ATOM      8  N   UNL     1      49.118   4.072  18.320  0.00  0.00    +0.000 NA
ATOM      9  C   UNL     1      48.365   3.233  17.693  0.00  0.00    +0.000 A 
ATOM     10  N   UNL     1      47.731   3.487  16.502  0.00  0.00    +0.000 N 
ATOM     11  C   UNL     1      47.809   4.702  15.845  0.00  0.00    +0.000 A 
ATOM     12  O   UNL     1      47.146   4.915  14.833  0.00  0.00    +0.000 OA
ATOM     13  C   UNL     1      48.678   5.661  16.492  0.00  0.00    +0.000 A 
ATOM     14  H   UNL     1      47.127   2.795  16.086  0.00  0.00    +0.000 HD
ENDBRANCH   3   4
BRANCH   3  15
ATOM     15  C   UNL     1      49.536   7.125  13.575  0.00  0.00    +0.000 C 
BRANCH  15  17
ATOM     16  C   UNL     1      50.088   7.932  11.214  0.00  0.00    +0.000 C 
ATOM     17  C   UNL     1      50.319   8.108  12.702  0.00  0.00    +0.000 C 
ENDBRANCH  15  17
ENDBRANCH   3  15
ENDBRANCH   1   3
BRANCH   1  18
ATOM     18  C   UNL     1      46.782   8.199  13.338  0.00  0.00    +0.000 C 
BRANCH  18  19
ATOM     19  C   UNL     1      46.039   7.169  12.525  0.00  0.00    +0.000 A 
ATOM     20  C   UNL     1      44.748   6.764  12.882  0.00  0.00    +0.000 A 
ATOM     21  C   UNL     1      44.074   5.817  12.112  0.00  0.00    +0.000 A 
ATOM     22  C   UNL     1      44.671   5.268  10.967  0.00  0.00    +0.000 A 
ATOM     23  C   UNL     1      45.955   5.687  10.602  0.00  0.00    +0.000 A 
ATOM     24  C   UNL     1      46.634   6.625  11.377  0.00  0.00    +0.000 A 
BRANCH  22  25
ATOM     25  C   UNL     1      43.952   4.218  10.159  0.00  0.00    +0.000 C 
BRANCH  25  26
ATOM     26  N   UNL     1      43.963   4.552   8.736  0.00  0.00    +0.000 NA
ATOM     27  H   UNL     1      44.545   5.378   8.598  0.00  0.00    +0.000 HD
BRANCH  26  28
ATOM     28  C   UNL     1      44.499   3.436   7.949  0.00  0.00    +0.000 C 
BRANCH  28  29
ATOM     29  C   UNL     1      46.047   3.404   8.028  0.00  0.00    +0.000 C 
ATOM     30  C   UNL     1      46.601   1.995   7.920  0.00  0.00    +0.000 C 
ATOM     31  C   UNL     1      46.651   1.752   6.424  0.00  0.00    +0.000 C 
ATOM     32  C   UNL     1      46.871   3.133   5.822  0.00  0.00    +0.000 C 
ATOM     33  N   UNL     1      46.684   4.107   6.901  0.00  0.00    +0.000 NA
ATOM     34  H   UNL     1      46.058   4.860   6.601  0.00  0.00    +0.000 HD
ENDBRANCH  28  29
ENDBRANCH  26  28
ENDBRANCH  25  26
ENDBRANCH  22  25
ENDBRANCH  18  19
ENDBRANCH   1  18
TORSDOF 10
ENDMDL
MODEL 4
REMARK VINA RESULT:    -6.383      2.255      3.525
REMARK INTER + INTRA:         -11.436
REMARK INTER:                 -10.074
REMARK INTRA:                  -1.361
REMARK UNBOUND:                -1.320
REMARK  Name = 
REMARK  11 active torsions:
REMARK  status: ('A' for Active; 'I' for Inactive)
REMARK    1  A    between atoms: C_1  and  C_2
REMARK    2  A    between atoms: C_2  and  C_3
REMARK    3  A    between atoms: C_3  and  C_4
REMARK    4  A    between atoms: C_4  and  N_5
REMARK    5  A    between atoms: C_4  and  C_21
REMARK    6  A    between atoms: N_5  and  C_6
REMARK    7  A    between atoms: C_6  and  C_7
REMARK    8  A    between atoms: C_10  and  C_11
REMARK    9  A    between atoms: C_11  and  N_12
REMARK   10  A    between atoms: N_12  and  C_13
REMARK   11  A    between atoms: C_13  and  C_14
REMARK                            x       y       z     vdW  Elec       q    Type
REMARK                         _______ _______ _______ _____ _____    ______ ____
ROOT
ATOM      1  N   UNL     1      48.513   6.506  13.805  0.00  0.00    +0.000 NA
ATOM      2  H   UNL     1      49.386   6.034  13.580  0.00  0.00    +0.000 HD
ENDROOT
BRANCH   1   3
ATOM      3  C   UNL     1      48.764   7.544  14.817  0.00  0.00    +0.000 C 
BRANCH   3   4
ATOM      4  C   UNL     1      50.235   7.449  15.237  0.00  0.00    +0.000 A 
ATOM      5  C   UNL     1      51.254   8.193  14.651  0.00  0.00    +0.000 A 
ATOM      6  S   UNL     1      52.811   7.791  15.206  0.00  0.00    +0.000 S 
ATOM      7  C   UNL     1      52.184   6.634  16.282  0.00  0.00    +0.000 A 
ATOM      8  N   UNL     1      53.018   5.908  17.073  0.00  0.00    +0.000 NA
ATOM      9  C   UNL     1      52.413   5.058  17.831  0.00  0.00    +0.000 A 
ATOM     10  N   UNL     1      51.053   4.878  17.877  0.00  0.00    +0.000 N 
ATOM     11  C   UNL     1      50.164   5.621  17.123  0.00  0.00    +0.000 A 
ATOM     12  O   UNL     1      48.950   5.492  17.270  0.00  0.00    +0.000 OA
ATOM     13  C   UNL     1      50.801   6.560  16.225  0.00  0.00    +0.000 A 
ATOM     14  H   UNL     1      50.645   4.218  18.522  0.00  0.00    +0.000 HD
ENDBRANCH   3   4
BRANCH   3  15
ATOM     15  C   UNL     1      48.373   8.980  14.375  0.00  0.00    +0.000 C 
BRANCH  15  17
ATOM     16  C   UNL     1      49.044   9.303  11.931  0.00  0.00    +0.000 C 
ATOM     17  C   UNL     1      47.910   9.185  12.931  0.00  0.00    +0.000 C 
ENDBRANCH  15  17
ENDBRANCH   3  15
ENDBRANCH   1   3
BRANCH   1  18
ATOM     18  C   UNL     1      47.512   5.509  14.181  0.00  0.00    +0.000 C 
BRANCH  18  19
ATOM     19  C   UNL     1      46.564   5.202  13.049  0.00  0.00    +0.000 A 
ATOM     20  C   UNL     1      46.264   6.164  12.079  0.00  0.00    +0.000 A 
ATOM     21  C   UNL     1      45.392   5.858  11.035  0.00  0.00    +0.000 A 
ATOM     22  C   UNL     1      44.815   4.583  10.935  0.00  0.00    +0.000 A 
ATOM     23  C   UNL     1      45.128   3.617  11.896  0.00  0.00    +0.000 A 
ATOM     24  C   UNL     1      45.991   3.925  12.946  0.00  0.00    +0.000 A 
BRANCH  22  25
ATOM     25  C   UNL     1      43.844   4.268   9.825  0.00  0.00    +0.000 C 
BRANCH  25  26
ATOM     26  N   UNL     1      44.263   3.082   9.081  0.00  0.00    +0.000 NA
ATOM     27  H   UNL     1      43.464   2.454   8.989  0.00  0.00    +0.000 HD
BRANCH  26  28
ATOM     28  C   UNL     1      44.750   3.454   7.749  0.00  0.00    +0.000 C 
BRANCH  28  29
ATOM     29  C   UNL     1      46.300   3.474   7.716  0.00  0.00    +0.000 C 
ATOM     30  C   UNL     1      46.895   2.077   7.737  0.00  0.00    +0.000 C 
ATOM     31  C   UNL     1      46.848   1.655   6.283  0.00  0.00    +0.000 C 
ATOM     32  C   UNL     1      46.975   2.957   5.503  0.00  0.00    +0.000 C 
ATOM     33  N   UNL     1      46.830   4.050   6.469  0.00  0.00    +0.000 NA
ATOM     34  H   UNL     1      46.158   4.744   6.127  0.00  0.00    +0.000 HD
ENDBRANCH  28  29
ENDBRANCH  26  28
ENDBRANCH  25  26
ENDBRANCH  22  25
ENDBRANCH  18  19
ENDBRANCH   1  18
TORSDOF 10
ENDMDL
MODEL 5
REMARK VINA RESULT:    -6.364      3.374      8.540
REMARK INTER + INTRA:         -11.404
REMARK INTER:                  -9.719
REMARK INTRA:                  -1.685
REMARK UNBOUND:                -1.320
REMARK  Name = 
REMARK  11 active torsions:
REMARK  status: ('A' for Active; 'I' for Inactive)
REMARK    1  A    between atoms: C_1  and  C_2
REMARK    2  A    between atoms: C_2  and  C_3
REMARK    3  A    between atoms: C_3  and  C_4
REMARK    4  A    between atoms: C_4  and  N_5
REMARK    5  A    between atoms: C_4  and  C_21
REMARK    6  A    between atoms: N_5  and  C_6
REMARK    7  A    between atoms: C_6  and  C_7
REMARK    8  A    between atoms: C_10  and  C_11
REMARK    9  A    between atoms: C_11  and  N_12
REMARK   10  A    between atoms: N_12  and  C_13
REMARK   11  A    between atoms: C_13  and  C_14
REMARK                            x       y       z     vdW  Elec       q    Type
REMARK                         _______ _______ _______ _____ _____    ______ ____
ROOT
ATOM      1  N   UNL     1      47.128   6.884  11.499  0.00  0.00    +0.000 NA
ATOM      2  H   UNL     1      47.430   6.483  10.613  0.00  0.00    +0.000 HD
ENDROOT
BRANCH   1   3
ATOM      3  C   UNL     1      45.703   7.242  11.414  0.00  0.00    +0.000 C 
BRANCH   3   4
ATOM      4  C   UNL     1      44.882   5.962  11.601  0.00  0.00    +0.000 A 
ATOM      5  C   UNL     1      44.121   5.693  12.733  0.00  0.00    +0.000 A 
ATOM      6  S   UNL     1      43.423   4.142  12.745  0.00  0.00    +0.000 S 
ATOM      7  C   UNL     1      44.076   3.781  11.217  0.00  0.00    +0.000 A 
ATOM      8  N   UNL     1      43.852   2.570  10.643  0.00  0.00    +0.000 NA
ATOM      9  C   UNL     1      44.415   2.424   9.491  0.00  0.00    +0.000 A 
ATOM     10  N   UNL     1      45.171   3.381   8.862  0.00  0.00    +0.000 N 
ATOM     11  C   UNL     1      45.392   4.640   9.388  0.00  0.00    +0.000 A 
ATOM     12  O   UNL     1      45.993   5.497   8.744  0.00  0.00    +0.000 OA
ATOM     13  C   UNL     1      44.812   4.835  10.700  0.00  0.00    +0.000 A 
ATOM     14  H   UNL     1      45.552   3.211   7.943  0.00  0.00    +0.000 HD
ENDBRANCH   3   4
BRANCH   3  15
ATOM     15  C   UNL     1      45.266   8.367  12.390  0.00  0.00    +0.000 C 
BRANCH  15  17
ATOM     16  C   UNL     1      45.688  10.795  11.711  0.00  0.00    +0.000 C 
ATOM     17  C   UNL     1      44.692   9.654  11.792  0.00  0.00    +0.000 C 
ENDBRANCH  15  17
ENDBRANCH   3  15
ENDBRANCH   1   3
BRANCH   1  18
ATOM     18  C   UNL     1      48.020   7.985  11.857  0.00  0.00    +0.000 C 
BRANCH  18  19
ATOM     19  C   UNL     1      48.373   7.977  13.323  0.00  0.00    +0.000 A 
ATOM     20  C   UNL     1      48.367   9.158  14.072  0.00  0.00    +0.000 A 
ATOM     21  C   UNL     1      48.688   9.129  15.429  0.00  0.00    +0.000 A 
ATOM     22  C   UNL     1      49.007   7.919  16.063  0.00  0.00    +0.000 A 
ATOM     23  C   UNL     1      48.996   6.736  15.317  0.00  0.00    +0.000 A 
ATOM     24  C   UNL     1      48.686   6.766  13.958  0.00  0.00    +0.000 A 
BRANCH  22  25
ATOM     25  C   UNL     1      49.388   7.898  17.521  0.00  0.00    +0.000 C 
BRANCH  25  26
ATOM     26  N   UNL     1      48.384   7.193  18.317  0.00  0.00    +0.000 NA
ATOM     27  H   UNL     1      47.637   6.878  17.697  0.00  0.00    +0.000 HD
BRANCH  26  28
ATOM     28  C   UNL     1      48.982   6.036  18.992  0.00  0.00    +0.000 C 
BRANCH  28  29
ATOM     29  C   UNL     1      47.965   4.870  19.085  0.00  0.00    +0.000 C 
ATOM     30  C   UNL     1      47.241   4.628  17.773  0.00  0.00    +0.000 C 
ATOM     31  C   UNL     1      48.206   3.754  16.997  0.00  0.00    +0.000 C 
ATOM     32  C   UNL     1      48.957   2.972  18.067  0.00  0.00    +0.000 C 
ATOM     33  N   UNL     1      48.615   3.576  19.358  0.00  0.00    +0.000 NA
ATOM     34  H   UNL     1      49.461   3.754  19.907  0.00  0.00    +0.000 HD
ENDBRANCH  28  29
ENDBRANCH  26  28
ENDBRANCH  25  26
ENDBRANCH  22  25
ENDBRANCH  18  19
ENDBRANCH   1  18
TORSDOF 10
ENDMDL
MODEL 6
REMARK VINA RESULT:    -6.300      3.234      8.998
REMARK INTER + INTRA:         -11.303
REMARK INTER:                  -9.758
REMARK INTRA:                  -1.545
REMARK UNBOUND:                -1.320
REMARK  Name = 
REMARK  11 active torsions:
REMARK  status: ('A' for Active; 'I' for Inactive)
REMARK    1  A    between atoms: C_1  and  C_2
REMARK    2  A    between atoms: C_2  and  C_3
REMARK    3  A    between atoms: C_3  and  C_4
REMARK    4  A    between atoms: C_4  and  N_5
REMARK    5  A    between atoms: C_4  and  C_21
REMARK    6  A    between atoms: N_5  and  C_6
REMARK    7  A    between atoms: C_6  and  C_7
REMARK    8  A    between atoms: C_10  and  C_11
REMARK    9  A    between atoms: C_11  and  N_12
REMARK   10  A    between atoms: N_12  and  C_13
REMARK   11  A    between atoms: C_13  and  C_14
REMARK                            x       y       z     vdW  Elec       q    Type
REMARK                         _______ _______ _______ _____ _____    ______ ____
ROOT
ATOM      1  N   UNL     1      46.918   6.682  11.310  0.00  0.00    +0.000 NA
ATOM      2  H   UNL     1      47.484   6.891  10.490  0.00  0.00    +0.000 HD
ENDROOT
BRANCH   1   3
ATOM      3  C   UNL     1      45.513   7.022  11.033  0.00  0.00    +0.000 C 
BRANCH   3   4
ATOM      4  C   UNL     1      44.694   5.727  11.079  0.00  0.00    +0.000 A 
ATOM      5  C   UNL     1      43.763   5.438  12.070  0.00  0.00    +0.000 A 
ATOM      6  S   UNL     1      43.101   3.875  11.963  0.00  0.00    +0.000 S 
ATOM      7  C   UNL     1      44.002   3.535  10.562  0.00  0.00    +0.000 A 
ATOM      8  N   UNL     1      43.896   2.323   9.955  0.00  0.00    +0.000 NA
ATOM      9  C   UNL     1      44.643   2.193   8.911  0.00  0.00    +0.000 A 
ATOM     10  N   UNL     1      45.475   3.167   8.417  0.00  0.00    +0.000 N 
ATOM     11  C   UNL     1      45.584   4.427   8.976  0.00  0.00    +0.000 A 
ATOM     12  O   UNL     1      46.267   5.298   8.442  0.00  0.00    +0.000 OA
ATOM     13  C   UNL     1      44.794   4.604  10.176  0.00  0.00    +0.000 A 
ATOM     14  H   UNL     1      46.004   3.008   7.573  0.00  0.00    +0.000 HD
ENDBRANCH   3   4
BRANCH   3  15
ATOM     15  C   UNL     1      44.925   8.120  11.960  0.00  0.00    +0.000 C 
BRANCH  15  17
ATOM     16  C   UNL     1      45.253  10.645  11.739  0.00  0.00    +0.000 C 
ATOM     17  C   UNL     1      44.455   9.427  11.316  0.00  0.00    +0.000 C 
ENDBRANCH  15  17
ENDBRANCH   3  15
ENDBRANCH   1   3
BRANCH   1  18
ATOM     18  C   UNL     1      47.495   7.348  12.476  0.00  0.00    +0.000 C 
BRANCH  18  19
ATOM     19  C   UNL     1      47.608   6.422  13.660  0.00  0.00    +0.000 A 
ATOM     20  C   UNL     1      47.004   5.160  13.648  0.00  0.00    +0.000 A 
ATOM     21  C   UNL     1      47.127   4.315  14.751  0.00  0.00    +0.000 A 
ATOM     22  C   UNL     1      47.864   4.709  15.877  0.00  0.00    +0.000 A 
ATOM     23  C   UNL     1      48.481   5.964  15.881  0.00  0.00    +0.000 A 
ATOM     24  C   UNL     1      48.350   6.814  14.784  0.00  0.00    +0.000 A 
BRANCH  22  25
ATOM     25  C   UNL     1      47.964   3.807  17.080  0.00  0.00    +0.000 C 
BRANCH  25  26
ATOM     26  N   UNL     1      48.974   2.770  16.877  0.00  0.00    +0.000 NA
ATOM     27  H   UNL     1      49.419   2.918  15.971  0.00  0.00    +0.000 HD
BRANCH  26  28
ATOM     28  C   UNL     1      49.988   2.824  17.935  0.00  0.00    +0.000 C 
BRANCH  28  29
ATOM     29  C   UNL     1      51.118   3.818  17.562  0.00  0.00    +0.000 C 
ATOM     30  C   UNL     1      51.090   5.071  18.418  0.00  0.00    +0.000 C 
ATOM     31  C   UNL     1      51.839   4.657  19.670  0.00  0.00    +0.000 C 
ATOM     32  C   UNL     1      52.828   3.603  19.190  0.00  0.00    +0.000 C 
ATOM     33  N   UNL     1      52.460   3.265  17.812  0.00  0.00    +0.000 NA
ATOM     34  H   UNL     1      52.414   2.249  17.690  0.00  0.00    +0.000 HD
ENDBRANCH  28  29
ENDBRANCH  26  28
ENDBRANCH  25  26
ENDBRANCH  22  25
ENDBRANCH  18  19
ENDBRANCH   1  18
TORSDOF 10
ENDMDL
MODEL 7
REMARK VINA RESULT:    -6.235      3.628      8.379
REMARK INTER + INTRA:         -11.200
REMARK INTER:                  -9.218
REMARK INTRA:                  -1.982
REMARK UNBOUND:                -1.320
REMARK  Name = 
REMARK  11 active torsions:
REMARK  status: ('A' for Active; 'I' for Inactive)
REMARK    1  A    between atoms: C_1  and  C_2
REMARK    2  A    between atoms: C_2  and  C_3
REMARK    3  A    between atoms: C_3  and  C_4
REMARK    4  A    between atoms: C_4  and  N_5
REMARK    5  A    between atoms: C_4  and  C_21
REMARK    6  A    between atoms: N_5  and  C_6
REMARK    7  A    between atoms: C_6  and  C_7
REMARK    8  A    between atoms: C_10  and  C_11
REMARK    9  A    between atoms: C_11  and  N_12
REMARK   10  A    between atoms: N_12  and  C_13
REMARK   11  A    between atoms: C_13  and  C_14
REMARK                            x       y       z     vdW  Elec       q    Type
REMARK                         _______ _______ _______ _____ _____    ______ ____
ROOT
ATOM      1  N   UNL     1      46.734   7.884  13.888  0.00  0.00    +0.000 NA
ATOM      2  H   UNL     1      46.526   7.309  14.702  0.00  0.00    +0.000 HD
ENDROOT
BRANCH   1   3
ATOM      3  C   UNL     1      47.025   7.016  12.736  0.00  0.00    +0.000 C 
BRANCH   3   4
ATOM      4  C   UNL     1      45.691   6.516  12.171  0.00  0.00    +0.000 A 
ATOM      5  C   UNL     1      44.762   7.339  11.545  0.00  0.00    +0.000 A 
ATOM      6  S   UNL     1      43.308   6.557  11.138  0.00  0.00    +0.000 S 
ATOM      7  C   UNL     1      43.876   5.075  11.747  0.00  0.00    +0.000 A 
ATOM      8  N   UNL     1      43.087   3.968  11.707  0.00  0.00    +0.000 NA
ATOM      9  C   UNL     1      43.636   2.916  12.213  0.00  0.00    +0.000 A 
ATOM     10  N   UNL     1      44.901   2.870  12.743  0.00  0.00    +0.000 N 
ATOM     11  C   UNL     1      45.753   3.958  12.768  0.00  0.00    +0.000 A 
ATOM     12  O   UNL     1      46.911   3.843  13.163  0.00  0.00    +0.000 OA
ATOM     13  C   UNL     1      45.164   5.173  12.248  0.00  0.00    +0.000 A 
ATOM     14  H   UNL     1      45.280   2.001  13.089  0.00  0.00    +0.000 HD
ENDBRANCH   3   4
BRANCH   3  15
ATOM     15  C   UNL     1      47.914   7.673  11.646  0.00  0.00    +0.000 C 
BRANCH  15  17
ATOM     16  C   UNL     1      50.385   8.316  11.518  0.00  0.00    +0.000 C 
ATOM     17  C   UNL     1      49.363   7.195  11.518  0.00  0.00    +0.000 C 
ENDBRANCH  15  17
ENDBRANCH   3  15
ENDBRANCH   1   3
BRANCH   1  18
ATOM     18  C   UNL     1      47.792   8.833  14.228  0.00  0.00    +0.000 C 
BRANCH  18  19
ATOM     19  C   UNL     1      48.662   8.334  15.355  0.00  0.00    +0.000 A 
ATOM     20  C   UNL     1      48.466   8.779  16.667  0.00  0.00    +0.000 A 
ATOM     21  C   UNL     1      49.275   8.300  17.696  0.00  0.00    +0.000 A 
ATOM     22  C   UNL     1      50.283   7.360  17.437  0.00  0.00    +0.000 A 
ATOM     23  C   UNL     1      50.467   6.903  16.127  0.00  0.00    +0.000 A 
ATOM     24  C   UNL     1      49.666   7.390  15.095  0.00  0.00    +0.000 A 
BRANCH  22  25
ATOM     25  C   UNL     1      51.178   6.872  18.547  0.00  0.00    +0.000 C 
BRANCH  25  26
ATOM     26  N   UNL     1      50.426   6.084  19.521  0.00  0.00    +0.000 NA
ATOM     27  H   UNL     1      49.593   6.608  19.792  0.00  0.00    +0.000 HD
BRANCH  26  28
ATOM     28  C   UNL     1      50.028   4.795  18.946  0.00  0.00    +0.000 C 
BRANCH  28  29
ATOM     29  C   UNL     1      48.569   4.447  19.335  0.00  0.00    +0.000 C 
ATOM     30  C   UNL     1      47.553   5.235  18.527  0.00  0.00    +0.000 C 
ATOM     31  C   UNL     1      47.426   4.433  17.247  0.00  0.00    +0.000 C 
ATOM     32  C   UNL     1      47.710   2.997  17.667  0.00  0.00    +0.000 C 
ATOM     33  N   UNL     1      48.226   3.046  19.038  0.00  0.00    +0.000 NA
ATOM     34  H   UNL     1      49.078   2.484  19.122  0.00  0.00    +0.000 HD
ENDBRANCH  28  29
ENDBRANCH  26  28
ENDBRANCH  25  26
ENDBRANCH  22  25
ENDBRANCH  18  19
ENDBRANCH   1  18
TORSDOF 10
ENDMDL
MODEL 8
REMARK VINA RESULT:    -6.214      3.508      9.052
REMARK INTER + INTRA:         -11.167
REMARK INTER:                  -9.460
REMARK INTRA:                  -1.707
REMARK UNBOUND:                -1.320
REMARK  Name = 
REMARK  11 active torsions:
REMARK  status: ('A' for Active; 'I' for Inactive)
REMARK    1  A    between atoms: C_1  and  C_2
REMARK    2  A    between atoms: C_2  and  C_3
REMARK    3  A    between atoms: C_3  and  C_4
REMARK    4  A    between atoms: C_4  and  N_5
REMARK    5  A    between atoms: C_4  and  C_21
REMARK    6  A    between atoms: N_5  and  C_6
REMARK    7  A    between atoms: C_6  and  C_7
REMARK    8  A    between atoms: C_10  and  C_11
REMARK    9  A    between atoms: C_11  and  N_12
REMARK   10  A    between atoms: N_12  and  C_13
REMARK   11  A    between atoms: C_13  and  C_14
REMARK                            x       y       z     vdW  Elec       q    Type
REMARK                         _______ _______ _______ _____ _____    ______ ____
ROOT
ATOM      1  N   UNL     1      45.790   4.827  10.545  0.00  0.00    +0.000 NA
ATOM      2  H   UNL     1      46.629   4.646   9.998  0.00  0.00    +0.000 HD
ENDROOT
BRANCH   1   3
ATOM      3  C   UNL     1      44.611   4.354   9.804  0.00  0.00    +0.000 C 
BRANCH   3   4
ATOM      4  C   UNL     1      45.001   3.071   9.062  0.00  0.00    +0.000 A 
ATOM      5  C   UNL     1      44.391   1.841   9.274  0.00  0.00    +0.000 A 
ATOM      6  S   UNL     1      45.110   0.555   8.425  0.00  0.00    +0.000 S 
ATOM      7  C   UNL     1      46.244   1.598   7.706  0.00  0.00    +0.000 A 
ATOM      8  N   UNL     1      47.180   1.109   6.850  0.00  0.00    +0.000 NA
ATOM      9  C   UNL     1      47.985   2.005   6.387  0.00  0.00    +0.000 A 
ATOM     10  N   UNL     1      47.929   3.341   6.694  0.00  0.00    +0.000 N 
ATOM     11  C   UNL     1      46.971   3.890   7.527  0.00  0.00    +0.000 A 
ATOM     12  O   UNL     1      46.901   5.105   7.695  0.00  0.00    +0.000 OA
ATOM     13  C   UNL     1      46.071   2.914   8.103  0.00  0.00    +0.000 A 
ATOM     14  H   UNL     1      48.570   3.993   6.266  0.00  0.00    +0.000 HD
ENDBRANCH   3   4
BRANCH   3  15
ATOM     15  C   UNL     1      43.339   4.164  10.674  0.00  0.00    +0.000 C 
BRANCH  15  17
ATOM     16  C   UNL     1      42.998   5.036  13.052  0.00  0.00    +0.000 C 
ATOM     17  C   UNL     1      43.525   3.918  12.173  0.00  0.00    +0.000 C 
ENDBRANCH  15  17
ENDBRANCH   3  15
ENDBRANCH   1   3
BRANCH   1  18
ATOM     18  C   UNL     1      45.757   6.240  10.920  0.00  0.00    +0.000 C 
BRANCH  18  19
ATOM     19  C   UNL     1      46.570   6.519  12.158  0.00  0.00    +0.000 A 
ATOM     20  C   UNL     1      46.779   5.526  13.121  0.00  0.00    +0.000 A 
ATOM     21  C   UNL     1      47.542   5.801  14.256  0.00  0.00    +0.000 A 
ATOM     22  C   UNL     1      48.119   7.066  14.442  0.00  0.00    +0.000 A 
ATOM     23  C   UNL     1      47.923   8.053  13.470  0.00  0.00    +0.000 A 
ATOM     24  C   UNL     1      47.152   7.782  12.341  0.00  0.00    +0.000 A 
BRANCH  22  25
ATOM     25  C   UNL     1      48.912   7.369  15.687  0.00  0.00    +0.000 C 
BRANCH  25  26
ATOM     26  N   UNL     1      48.390   6.631  16.836  0.00  0.00    +0.000 NA
ATOM     27  H   UNL     1      47.591   6.074  16.532  0.00  0.00    +0.000 HD
BRANCH  26  28
ATOM     28  C   UNL     1      49.420   5.749  17.393  0.00  0.00    +0.000 C 
BRANCH  28  29
ATOM     29  C   UNL     1      48.777   4.622  18.242  0.00  0.00    +0.000 C 
ATOM     30  C   UNL     1      47.567   4.007  17.563  0.00  0.00    +0.000 C 
ATOM     31  C   UNL     1      48.174   2.983  16.625  0.00  0.00    +0.000 C 
ATOM     32  C   UNL     1      49.460   2.549  17.317  0.00  0.00    +0.000 C 
ATOM     33  N   UNL     1      49.680   3.474  18.432  0.00  0.00    +0.000 NA
ATOM     34  H   UNL     1      50.644   3.822  18.426  0.00  0.00    +0.000 HD
ENDBRANCH  28  29
ENDBRANCH  26  28
ENDBRANCH  25  26
ENDBRANCH  22  25
ENDBRANCH  18  19
ENDBRANCH   1  18
TORSDOF 10
ENDMDL
MODEL 9
REMARK VINA RESULT:    -5.867      2.170      3.097
REMARK INTER + INTRA:         -10.618
REMARK INTER:                  -9.499
REMARK INTRA:                  -1.119
REMARK UNBOUND:                -1.320
REMARK  Name = 
REMARK  11 active torsions:
REMARK  status: ('A' for Active; 'I' for Inactive)
REMARK    1  A    between atoms: C_1  and  C_2
REMARK    2  A    between atoms: C_2  and  C_3
REMARK    3  A    between atoms: C_3  and  C_4
REMARK    4  A    between atoms: C_4  and  N_5
REMARK    5  A    between atoms: C_4  and  C_21
REMARK    6  A    between atoms: N_5  and  C_6
REMARK    7  A    between atoms: C_6  and  C_7
REMARK    8  A    between atoms: C_10  and  C_11
REMARK    9  A    between atoms: C_11  and  N_12
REMARK   10  A    between atoms: N_12  and  C_13
REMARK   11  A    between atoms: C_13  and  C_14
REMARK                            x       y       z     vdW  Elec       q    Type
REMARK                         _______ _______ _______ _____ _____    ______ ____
ROOT
ATOM      1  N   UNL     1      47.913   6.697  15.295  0.00  0.00    +0.000 NA
ATOM      2  H   UNL     1      47.912   7.665  15.610  0.00  0.00    +0.000 HD
ENDROOT
BRANCH   1   3
ATOM      3  C   UNL     1      48.669   5.873  16.251  0.00  0.00    +0.000 C 
BRANCH   3   4
ATOM      4  C   UNL     1      49.468   6.814  17.159  0.00  0.00    +0.000 A 
ATOM      5  C   UNL     1      49.021   8.071  17.551  0.00  0.00    +0.000 A 
ATOM      6  S   UNL     1      50.162   8.965  18.441  0.00  0.00    +0.000 S 
ATOM      7  C   UNL     1      51.286   7.692  18.374  0.00  0.00    +0.000 A 
ATOM      8  N   UNL     1      52.507   7.823  18.957  0.00  0.00    +0.000 NA
ATOM      9  C   UNL     1      53.266   6.789  18.821  0.00  0.00    +0.000 A 
ATOM     10  N   UNL     1      52.910   5.636  18.167  0.00  0.00    +0.000 N 
ATOM     11  C   UNL     1      51.666   5.442  17.595  0.00  0.00    +0.000 A 
ATOM     12  O   UNL     1      51.358   4.357  17.106  0.00  0.00    +0.000 OA
ATOM     13  C   UNL     1      50.794   6.593  17.687  0.00  0.00    +0.000 A 
ATOM     14  H   UNL     1      53.543   4.851  18.130  0.00  0.00    +0.000 HD
ENDBRANCH   3   4
BRANCH   3  15
ATOM     15  C   UNL     1      47.803   4.872  17.063  0.00  0.00    +0.000 C 
BRANCH  15  17
ATOM     16  C   UNL     1      48.625   2.467  16.795  0.00  0.00    +0.000 C 
ATOM     17  C   UNL     1      47.553   3.487  16.462  0.00  0.00    +0.000 C 
ENDBRANCH  15  17
ENDBRANCH   3  15
ENDBRANCH   1   3
BRANCH   1  18
ATOM     18  C   UNL     1      48.395   6.640  13.916  0.00  0.00    +0.000 C 
BRANCH  18  19
ATOM     19  C   UNL     1      47.337   6.140  12.965  0.00  0.00    +0.000 A 
ATOM     20  C   UNL     1      47.073   6.809  11.765  0.00  0.00    +0.000 A 
ATOM     21  C   UNL     1      46.097   6.327  10.895  0.00  0.00    +0.000 A 
ATOM     22  C   UNL     1      45.377   5.162  11.200  0.00  0.00    +0.000 A 
ATOM     23  C   UNL     1      45.654   4.485  12.392  0.00  0.00    +0.000 A 
ATOM     24  C   UNL     1      46.622   4.972  13.268  0.00  0.00    +0.000 A 
BRANCH  22  25
ATOM     25  C   UNL     1      44.298   4.665  10.273  0.00  0.00    +0.000 C 
BRANCH  25  26
ATOM     26  N   UNL     1      44.762   3.520   9.492  0.00  0.00    +0.000 NA
ATOM     27  H   UNL     1      43.950   3.016   9.135  0.00  0.00    +0.000 HD
BRANCH  26  28
ATOM     28  C   UNL     1      45.595   3.965   8.370  0.00  0.00    +0.000 C 
BRANCH  28  29
ATOM     29  C   UNL     1      45.542   2.942   7.207  0.00  0.00    +0.000 C 
ATOM     30  C   UNL     1      46.575   3.232   6.134  0.00  0.00    +0.000 C 
ATOM     31  C   UNL     1      47.834   2.584   6.676  0.00  0.00    +0.000 C 
ATOM     32  C   UNL     1      47.331   1.416   7.513  0.00  0.00    +0.000 C 
ATOM     33  N   UNL     1      45.879   1.575   7.643  0.00  0.00    +0.000 NA
ATOM     34  H   UNL     1      45.592   1.472   8.620  0.00  0.00    +0.000 HD
ENDBRANCH  28  29
ENDBRANCH  26  28
ENDBRANCH  25  26
ENDBRANCH  22  25
ENDBRANCH  18  19
ENDBRANCH   1  18
TORSDOF 10
ENDMDL
