MODEL 1
REMARK VINA RESULT:    -8.680      0.000      0.000
REMARK INTER + INTRA:         -14.348
REMARK INTER:                 -12.740
REMARK INTRA:                  -1.609
REMARK UNBOUND:                -1.609
REMARK  Name = 
REMARK  9 active torsions:
REMARK  status: ('A' for Active; 'I' for Inactive)
REMARK    1  A    between atoms: C_1  and  O_2
REMARK    2  A    between atoms: O_2  and  C_3
REMARK    3  A    between atoms: C_10  and  C_11
REMARK    4  A    between atoms: N_13  and  C_14
REMARK    5  A    between atoms: C_14  and  C_15
REMARK    6  A    between atoms: C_18  and  C_19
REMARK    7  A    between atoms: C_19  and  N_20
REMARK    8  A    between atoms: N_20  and  C_21
REMARK    9  A    between atoms: C_21  and  C_22
REMARK                            x       y       z     vdW  Elec       q    Type
REMARK                         _______ _______ _______ _____ _____    ______ ____
ROOT
ATOM      1  C   UNL     1      47.113   8.174  13.195  0.00  0.00    +0.000 C 
ENDROOT
BRANCH   1   2
ATOM      2  C   UNL     1      46.167   7.304  12.396  0.00  0.00    +0.000 A 
ATOM      3  C   UNL     1      44.857   7.082  12.838  0.00  0.00    +0.000 A 
ATOM      4  C   UNL     1      44.003   6.212  12.146  0.00  0.00    +0.000 A 
ATOM      5  C   UNL     1      44.442   5.527  11.006  0.00  0.00    +0.000 A 
ATOM      6  C   UNL     1      45.749   5.769  10.548  0.00  0.00    +0.000 A 
ATOM      7  C   UNL     1      46.596   6.652  11.230  0.00  0.00    +0.000 A 
BRANCH   5   8
ATOM      8  C   UNL     1      43.554   4.541  10.281  0.00  0.00    +0.000 C 
BRANCH   8   9
ATOM      9  N   UNL     1      44.143   4.154   9.006  0.00  0.00    +0.000 NA
ATOM     10  H   UNL     1      44.980   4.712   8.842  0.00  0.00    +0.000 HD
BRANCH   9  11
ATOM     11  C   UNL     1      44.511   2.742   8.971  0.00  0.00    +0.000 C 
BRANCH  11  12
ATOM     12  C   UNL     1      45.682   2.531   8.041  0.00  0.00    +0.000 A 
ATOM     13  C   UNL     1      46.385   1.318   8.021  0.00  0.00    +0.000 A 
ATOM     14  C   UNL     1      47.450   1.133   7.136  0.00  0.00    +0.000 A 
ATOM     15  C   UNL     1      47.828   2.159   6.269  0.00  0.00    +0.000 A 
ATOM     16  C   UNL     1      47.150   3.376   6.295  0.00  0.00    +0.000 A 
ATOM     17  C   UNL     1      46.082   3.558   7.172  0.00  0.00    +0.000 A 
ENDBRANCH  11  12
ENDBRANCH   9  11
ENDBRANCH   8   9
ENDBRANCH   5   8
ENDBRANCH   1   2
BRANCH   1  20
ATOM     18  C   UNL     1      48.683   6.896  14.621  0.00  0.00    +0.000 C 
ATOM     19  O   UNL     1      49.525   6.853  13.726  0.00  0.00    +0.000 OA
ATOM     20  N   UNL     1      47.484   7.531  14.438  0.00  0.00    +0.000 N 
ATOM     21  H   UNL     1      46.855   7.643  15.220  0.00  0.00    +0.000 HD
BRANCH  18  29
ATOM     22  C   UNL     1      47.232   4.213  16.220  0.00  0.00    +0.000 A 
ATOM     23  N   UNL     1      46.931   3.151  16.991  0.00  0.00    +0.000 NA
ATOM     24  C   UNL     1      47.657   2.945  18.092  0.00  0.00    +0.000 A 
ATOM     25  N   UNL     1      48.656   3.699  18.543  0.00  0.00    +0.000 NA
ATOM     26  C   UNL     1      48.929   4.743  17.743  0.00  0.00    +0.000 A 
ATOM     27  S   UNL     1      50.161   5.830  18.171  0.00  0.00    +0.000 S 
ATOM     28  C   UNL     1      49.917   6.740  16.753  0.00  0.00    +0.000 A 
ATOM     29  C   UNL     1      48.920   6.239  15.925  0.00  0.00    +0.000 A 
ATOM     30  C   UNL     1      48.294   5.072  16.547  0.00  0.00    +0.000 A 
BRANCH  22  32
ATOM     31  C   UNL     1      46.893   3.786  13.933  0.00  0.00    +0.000 C 
ATOM     32  O   UNL     1      46.456   4.462  15.107  0.00  0.00    +0.000 OA
ENDBRANCH  22  32
ENDBRANCH  18  29
ENDBRANCH   1  20
TORSDOF 8
ENDMDL
MODEL 2
REMARK VINA RESULT:    -8.127      1.459      1.975
REMARK INTER + INTRA:         -13.536
REMARK INTER:                 -12.318
REMARK INTRA:                  -1.218
REMARK UNBOUND:                -1.609
REMARK  Name = 
REMARK  9 active torsions:
REMARK  status: ('A' for Active; 'I' for Inactive)
REMARK    1  A    between atoms: C_1  and  O_2
REMARK    2  A    between atoms: O_2  and  C_3
REMARK    3  A    between atoms: C_10  and  C_11
REMARK    4  A    between atoms: N_13  and  C_14
REMARK    5  A    between atoms: C_14  and  C_15
REMARK    6  A    between atoms: C_18  and  C_19
REMARK    7  A    between atoms: C_19  and  N_20
REMARK    8  A    between atoms: N_20  and  C_21
REMARK    9  A    between atoms: C_21  and  C_22
REMARK                            x       y       z     vdW  Elec       q    Type
REMARK                         _______ _______ _______ _____ _____    ______ ____
ROOT
ATOM      1  C   UNL     1      48.055   6.796  13.168  0.00  0.00    +0.000 C 
ENDROOT
BRANCH   1   2
ATOM      2  C   UNL     1      46.851   6.038  12.653  0.00  0.00    +0.000 A 
ATOM      3  C   UNL     1      46.248   5.044  13.433  0.00  0.00    +0.000 A 
ATOM      4  C   UNL     1      45.184   4.283  12.929  0.00  0.00    +0.000 A 
ATOM      5  C   UNL     1      44.709   4.482  11.626  0.00  0.00    +0.000 A 
ATOM      6  C   UNL     1      45.299   5.497  10.853  0.00  0.00    +0.000 A 
ATOM      7  C   UNL     1      46.349   6.269  11.363  0.00  0.00    +0.000 A 
BRANCH   5   8
ATOM      8  C   UNL     1      43.601   3.631  11.047  0.00  0.00    +0.000 C 
BRANCH   8   9
ATOM      9  N   UNL     1      43.846   3.352   9.639  0.00  0.00    +0.000 NA
ATOM     10  H   UNL     1      44.394   4.113   9.238  0.00  0.00    +0.000 HD
BRANCH   9  11
ATOM     11  C   UNL     1      44.571   2.101   9.439  0.00  0.00    +0.000 C 
BRANCH  11  12
ATOM     12  C   UNL     1      45.607   2.266   8.351  0.00  0.00    +0.000 A 
ATOM     13  C   UNL     1      45.757   3.482   7.670  0.00  0.00    +0.000 A 
ATOM     14  C   UNL     1      46.738   3.622   6.684  0.00  0.00    +0.000 A 
ATOM     15  C   UNL     1      47.570   2.549   6.365  0.00  0.00    +0.000 A 
ATOM     16  C   UNL     1      47.416   1.330   7.021  0.00  0.00    +0.000 A 
ATOM     17  C   UNL     1      46.443   1.191   8.010  0.00  0.00    +0.000 A 
ENDBRANCH  11  12
ENDBRANCH   9  11
ENDBRANCH   8   9
ENDBRANCH   5   8
ENDBRANCH   1   2
BRANCH   1  20
ATOM     18  C   UNL     1      49.162   7.013  15.373  0.00  0.00    +0.000 C 
ATOM     19  O   UNL     1      50.275   7.062  14.855  0.00  0.00    +0.000 OA
ATOM     20  N   UNL     1      48.029   6.891  14.612  0.00  0.00    +0.000 N 
ATOM     21  H   UNL     1      47.123   6.959  15.053  0.00  0.00    +0.000 HD
BRANCH  18  29
ATOM     22  C   UNL     1      48.761   4.584  17.782  0.00  0.00    +0.000 A 
ATOM     23  N   UNL     1      48.718   3.848  18.909  0.00  0.00    +0.000 NA
ATOM     24  C   UNL     1      48.756   4.486  20.081  0.00  0.00    +0.000 A 
ATOM     25  N   UNL     1      48.810   5.801  20.273  0.00  0.00    +0.000 NA
ATOM     26  C   UNL     1      48.859   6.499  19.126  0.00  0.00    +0.000 A 
ATOM     27  S   UNL     1      48.909   8.195  19.175  0.00  0.00    +0.000 S 
ATOM     28  C   UNL     1      48.992   8.290  17.479  0.00  0.00    +0.000 A 
ATOM     29  C   UNL     1      49.000   7.054  16.843  0.00  0.00    +0.000 A 
ATOM     30  C   UNL     1      48.866   5.985  17.831  0.00  0.00    +0.000 A 
BRANCH  22  32
ATOM     31  C   UNL     1      48.475   2.531  16.673  0.00  0.00    +0.000 C 
ATOM     32  O   UNL     1      48.671   3.938  16.567  0.00  0.00    +0.000 OA
ENDBRANCH  22  32
ENDBRANCH  18  29
ENDBRANCH   1  20
TORSDOF 8
ENDMDL
MODEL 3
REMARK VINA RESULT:    -7.516      1.998      2.642
REMARK INTER + INTRA:         -12.640
REMARK INTER:                 -11.431
REMARK INTRA:                  -1.209
REMARK UNBOUND:                -1.609
REMARK  Name = 
REMARK  9 active torsions:
REMARK  status: ('A' for Active; 'I' for Inactive)
REMARK    1  A    between atoms: C_1  and  O_2
REMARK    2  A    between atoms: O_2  and  C_3
REMARK    3  A    between atoms: C_10  and  C_11
REMARK    4  A    between atoms: N_13  and  C_14
REMARK    5  A    between atoms: C_14  and  C_15
REMARK    6  A    between atoms: C_18  and  C_19
REMARK    7  A    between atoms: C_19  and  N_20
REMARK    8  A    between atoms: N_20  and  C_21
REMARK    9  A    between atoms: C_21  and  C_22
REMARK                            x       y       z     vdW  Elec       q    Type
REMARK                         _______ _______ _______ _____ _____    ______ ____
ROOT
ATOM      1  C   UNL     1      47.667   7.969  13.656  0.00  0.00    +0.000 C 
ENDROOT
BRANCH   1   2
ATOM      2  C   UNL     1      46.674   7.214  12.801  0.00  0.00    +0.000 A 
ATOM      3  C   UNL     1      45.517   7.845  12.326  0.00  0.00    +0.000 A 
ATOM      4  C   UNL     1      44.554   7.129  11.602  0.00  0.00    +0.000 A 
ATOM      5  C   UNL     1      44.712   5.760  11.351  0.00  0.00    +0.000 A 
ATOM      6  C   UNL     1      45.884   5.133  11.806  0.00  0.00    +0.000 A 
ATOM      7  C   UNL     1      46.855   5.852  12.514  0.00  0.00    +0.000 A 
BRANCH   5   8
ATOM      8  C   UNL     1      43.655   4.960  10.622  0.00  0.00    +0.000 C 
BRANCH   8   9
ATOM      9  N   UNL     1      44.163   4.475   9.346  0.00  0.00    +0.000 NA
ATOM     10  H   UNL     1      45.040   4.949   9.133  0.00  0.00    +0.000 HD
BRANCH   9  11
ATOM     11  C   UNL     1      44.402   3.035   9.354  0.00  0.00    +0.000 C 
BRANCH  11  12
ATOM     12  C   UNL     1      45.463   2.676   8.341  0.00  0.00    +0.000 A 
ATOM     13  C   UNL     1      46.052   1.404   8.325  0.00  0.00    +0.000 A 
ATOM     14  C   UNL     1      47.014   1.083   7.364  0.00  0.00    +0.000 A 
ATOM     15  C   UNL     1      47.403   2.030   6.418  0.00  0.00    +0.000 A 
ATOM     16  C   UNL     1      46.840   3.304   6.437  0.00  0.00    +0.000 A 
ATOM     17  C   UNL     1      45.875   3.623   7.390  0.00  0.00    +0.000 A 
ENDBRANCH  11  12
ENDBRANCH   9  11
ENDBRANCH   8   9
ENDBRANCH   5   8
ENDBRANCH   1   2
BRANCH   1  20
ATOM     18  C   UNL     1      48.846   6.798  15.493  0.00  0.00    +0.000 C 
ATOM     19  O   UNL     1      49.873   6.700  14.825  0.00  0.00    +0.000 OA
ATOM     20  N   UNL     1      47.730   7.413  14.992  0.00  0.00    +0.000 N 
ATOM     21  H   UNL     1      46.936   7.574  15.595  0.00  0.00    +0.000 HD
BRANCH  18  29
ATOM     22  C   UNL     1      47.920   8.096  18.546  0.00  0.00    +0.000 A 
ATOM     23  N   UNL     1      47.502   8.312  19.807  0.00  0.00    +0.000 NA
ATOM     24  C   UNL     1      47.504   7.283  20.658  0.00  0.00    +0.000 A 
ATOM     25  N   UNL     1      47.904   6.039  20.406  0.00  0.00    +0.000 NA
ATOM     26  C   UNL     1      48.307   5.864  19.136  0.00  0.00    +0.000 A 
ATOM     27  S   UNL     1      48.874   4.343  18.638  0.00  0.00    +0.000 S 
ATOM     28  C   UNL     1      49.117   4.901  17.049  0.00  0.00    +0.000 A 
ATOM     29  C   UNL     1      48.764   6.232  16.856  0.00  0.00    +0.000 A 
ATOM     30  C   UNL     1      48.328   6.819  18.123  0.00  0.00    +0.000 A 
BRANCH  22  32
ATOM     31  C   UNL     1      49.195   9.885  17.711  0.00  0.00    +0.000 C 
ATOM     32  O   UNL     1      47.969   9.164  17.674  0.00  0.00    +0.000 OA
ENDBRANCH  22  32
ENDBRANCH  18  29
ENDBRANCH   1  20
TORSDOF 8
ENDMDL
MODEL 4
REMARK VINA RESULT:    -7.048      1.977      2.585
REMARK INTER + INTRA:         -11.953
REMARK INTER:                 -10.996
REMARK INTRA:                  -0.957
REMARK UNBOUND:                -1.609
REMARK  Name = 
REMARK  9 active torsions:
REMARK  status: ('A' for Active; 'I' for Inactive)
REMARK    1  A    between atoms: C_1  and  O_2
REMARK    2  A    between atoms: O_2  and  C_3
REMARK    3  A    between atoms: C_10  and  C_11
REMARK    4  A    between atoms: N_13  and  C_14
REMARK    5  A    between atoms: C_14  and  C_15
REMARK    6  A    between atoms: C_18  and  C_19
REMARK    7  A    between atoms: C_19  and  N_20
REMARK    8  A    between atoms: N_20  and  C_21
REMARK    9  A    between atoms: C_21  and  C_22
REMARK                            x       y       z     vdW  Elec       q    Type
REMARK                         _______ _______ _______ _____ _____    ______ ____
ROOT
ATOM      1  C   UNL     1      46.577   8.178  12.945  0.00  0.00    +0.000 C 
ENDROOT
BRANCH   1   2
ATOM      2  C   UNL     1      45.801   6.910  12.661  0.00  0.00    +0.000 A 
ATOM      3  C   UNL     1      46.259   5.673  13.135  0.00  0.00    +0.000 A 
ATOM      4  C   UNL     1      45.590   4.486  12.807  0.00  0.00    +0.000 A 
ATOM      5  C   UNL     1      44.458   4.502  11.981  0.00  0.00    +0.000 A 
ATOM      6  C   UNL     1      43.985   5.745  11.526  0.00  0.00    +0.000 A 
ATOM      7  C   UNL     1      44.643   6.932  11.869  0.00  0.00    +0.000 A 
BRANCH   5   8
ATOM      8  C   UNL     1      43.759   3.225  11.570  0.00  0.00    +0.000 C 
BRANCH   8   9
ATOM      9  N   UNL     1      44.513   2.534  10.534  0.00  0.00    +0.000 NA
ATOM     10  H   UNL     1      44.178   1.573  10.461  0.00  0.00    +0.000 HD
BRANCH   9  11
ATOM     11  C   UNL     1      44.378   3.174   9.229  0.00  0.00    +0.000 C 
BRANCH  11  12
ATOM     12  C   UNL     1      45.468   2.696   8.298  0.00  0.00    +0.000 A 
ATOM     13  C   UNL     1      45.971   1.390   8.379  0.00  0.00    +0.000 A 
ATOM     14  C   UNL     1      46.961   0.959   7.492  0.00  0.00    +0.000 A 
ATOM     15  C   UNL     1      47.463   1.829   6.525  0.00  0.00    +0.000 A 
ATOM     16  C   UNL     1      46.986   3.135   6.449  0.00  0.00    +0.000 A 
ATOM     17  C   UNL     1      45.993   3.564   7.327  0.00  0.00    +0.000 A 
ENDBRANCH  11  12
ENDBRANCH   9  11
ENDBRANCH   8   9
ENDBRANCH   5   8
ENDBRANCH   1   2
BRANCH   1  20
ATOM     18  C   UNL     1      48.336   8.346  14.680  0.00  0.00    +0.000 C 
ATOM     19  O   UNL     1      47.623   9.050  15.392  0.00  0.00    +0.000 OA
ATOM     20  N   UNL     1      47.890   7.875  13.474  0.00  0.00    +0.000 N 
ATOM     21  H   UNL     1      48.453   7.215  12.957  0.00  0.00    +0.000 HD
BRANCH  18  29
ATOM     22  C   UNL     1      49.661   5.997  16.821  0.00  0.00    +0.000 A 
ATOM     23  N   UNL     1      50.429   5.113  17.486  0.00  0.00    +0.000 NA
ATOM     24  C   UNL     1      51.753   5.192  17.341  0.00  0.00    +0.000 A 
ATOM     25  N   UNL     1      52.426   6.080  16.613  0.00  0.00    +0.000 NA
ATOM     26  C   UNL     1      51.625   6.939  15.961  0.00  0.00    +0.000 A 
ATOM     27  S   UNL     1      52.308   8.159  14.999  0.00  0.00    +0.000 S 
ATOM     28  C   UNL     1      50.771   8.725  14.539  0.00  0.00    +0.000 A 
ATOM     29  C   UNL     1      49.716   8.002  15.083  0.00  0.00    +0.000 A 
ATOM     30  C   UNL     1      50.232   6.965  15.977  0.00  0.00    +0.000 A 
BRANCH  22  32
ATOM     31  C   UNL     1      47.846   4.833  17.756  0.00  0.00    +0.000 C 
ATOM     32  O   UNL     1      48.295   5.956  17.005  0.00  0.00    +0.000 OA
ENDBRANCH  22  32
ENDBRANCH  18  29
ENDBRANCH   1  20
TORSDOF 8
ENDMDL
MODEL 5
REMARK VINA RESULT:    -6.943      2.680      3.337
REMARK INTER + INTRA:         -11.799
REMARK INTER:                 -10.724
REMARK INTRA:                  -1.075
REMARK UNBOUND:                -1.609
REMARK  Name = 
REMARK  9 active torsions:
REMARK  status: ('A' for Active; 'I' for Inactive)
REMARK    1  A    between atoms: C_1  and  O_2
REMARK    2  A    between atoms: O_2  and  C_3
REMARK    3  A    between atoms: C_10  and  C_11
REMARK    4  A    between atoms: N_13  and  C_14
REMARK    5  A    between atoms: C_14  and  C_15
REMARK    6  A    between atoms: C_18  and  C_19
REMARK    7  A    between atoms: C_19  and  N_20
REMARK    8  A    between atoms: N_20  and  C_21
REMARK    9  A    between atoms: C_21  and  C_22
REMARK                            x       y       z     vdW  Elec       q    Type
REMARK                         _______ _______ _______ _____ _____    ______ ____
ROOT
ATOM      1  C   UNL     1      48.282   5.909  14.201  0.00  0.00    +0.000 C 
ENDROOT
BRANCH   1   2
ATOM      2  C   UNL     1      47.098   5.675  13.289  0.00  0.00    +0.000 A 
ATOM      3  C   UNL     1      46.652   6.685  12.427  0.00  0.00    +0.000 A 
ATOM      4  C   UNL     1      45.506   6.502  11.640  0.00  0.00    +0.000 A 
ATOM      5  C   UNL     1      44.767   5.315  11.708  0.00  0.00    +0.000 A 
ATOM      6  C   UNL     1      45.229   4.293  12.555  0.00  0.00    +0.000 A 
ATOM      7  C   UNL     1      46.383   4.468  13.328  0.00  0.00    +0.000 A 
BRANCH   5   8
ATOM      8  C   UNL     1      43.497   5.124  10.909  0.00  0.00    +0.000 C 
BRANCH   8   9
ATOM      9  N   UNL     1      43.792   4.584   9.589  0.00  0.00    +0.000 NA
ATOM     10  H   UNL     1      44.554   5.119   9.172  0.00  0.00    +0.000 HD
BRANCH   9  11
ATOM     11  C   UNL     1      44.183   3.178   9.640  0.00  0.00    +0.000 C 
BRANCH  11  12
ATOM     12  C   UNL     1      45.276   2.904   8.633  0.00  0.00    +0.000 A 
ATOM     13  C   UNL     1      45.790   3.926   7.822  0.00  0.00    +0.000 A 
ATOM     14  C   UNL     1      46.818   3.657   6.914  0.00  0.00    +0.000 A 
ATOM     15  C   UNL     1      47.334   2.367   6.801  0.00  0.00    +0.000 A 
ATOM     16  C   UNL     1      46.817   1.339   7.586  0.00  0.00    +0.000 A 
ATOM     17  C   UNL     1      45.797   1.607   8.498  0.00  0.00    +0.000 A 
ENDBRANCH  11  12
ENDBRANCH   9  11
ENDBRANCH   8   9
ENDBRANCH   5   8
ENDBRANCH   1   2
BRANCH   1  20
ATOM     18  C   UNL     1      48.879   7.813  15.670  0.00  0.00    +0.000 C 
ATOM     19  O   UNL     1      50.022   7.854  15.220  0.00  0.00    +0.000 OA
ATOM     20  N   UNL     1      47.970   6.895  15.215  0.00  0.00    +0.000 N 
ATOM     21  H   UNL     1      47.010   6.949  15.523  0.00  0.00    +0.000 HD
BRANCH  18  29
ATOM     22  C   UNL     1      47.975   7.360  18.962  0.00  0.00    +0.000 A 
ATOM     23  N   UNL     1      47.704   7.476  20.275  0.00  0.00    +0.000 NA
ATOM     24  C   UNL     1      47.537   8.700  20.780  0.00  0.00    +0.000 A 
ATOM     25  N   UNL     1      47.586   9.852  20.116  0.00  0.00    +0.000 NA
ATOM     26  C   UNL     1      47.866   9.694  18.811  0.00  0.00    +0.000 A 
ATOM     27  S   UNL     1      47.947  11.055  17.799  0.00  0.00    +0.000 S 
ATOM     28  C   UNL     1      48.349  10.092  16.456  0.00  0.00    +0.000 A 
ATOM     29  C   UNL     1      48.446   8.735  16.741  0.00  0.00    +0.000 A 
ATOM     30  C   UNL     1      48.103   8.495  18.143  0.00  0.00    +0.000 A 
BRANCH  22  32
ATOM     31  C   UNL     1      46.924   5.302  18.536  0.00  0.00    +0.000 C 
ATOM     32  O   UNL     1      48.099   6.098  18.421  0.00  0.00    +0.000 OA
ENDBRANCH  22  32
ENDBRANCH  18  29
ENDBRANCH   1  20
TORSDOF 8
ENDMDL
MODEL 6
REMARK VINA RESULT:    -6.903      3.201      7.671
REMARK INTER + INTRA:         -11.740
REMARK INTER:                  -9.911
REMARK INTRA:                  -1.830
REMARK UNBOUND:                -1.609
REMARK  Name = 
REMARK  9 active torsions:
REMARK  status: ('A' for Active; 'I' for Inactive)
REMARK    1  A    between atoms: C_1  and  O_2
REMARK    2  A    between atoms: O_2  and  C_3
REMARK    3  A    between atoms: C_10  and  C_11
REMARK    4  A    between atoms: N_13  and  C_14
REMARK    5  A    between atoms: C_14  and  C_15
REMARK    6  A    between atoms: C_18  and  C_19
REMARK    7  A    between atoms: C_19  and  N_20
REMARK    8  A    between atoms: N_20  and  C_21
REMARK    9  A    between atoms: C_21  and  C_22
REMARK                            x       y       z     vdW  Elec       q    Type
REMARK                         _______ _______ _______ _____ _____    ______ ____
ROOT
ATOM      1  C   UNL     1      48.480   8.184  11.976  0.00  0.00    +0.000 C 
ENDROOT
BRANCH   1   2
ATOM      2  C   UNL     1      48.622   8.026  13.474  0.00  0.00    +0.000 A 
ATOM      3  C   UNL     1      49.157   6.852  14.020  0.00  0.00    +0.000 A 
ATOM      4  C   UNL     1      49.215   6.667  15.408  0.00  0.00    +0.000 A 
ATOM      5  C   UNL     1      48.723   7.641  16.286  0.00  0.00    +0.000 A 
ATOM      6  C   UNL     1      48.209   8.829  15.739  0.00  0.00    +0.000 A 
ATOM      7  C   UNL     1      48.167   9.022  14.353  0.00  0.00    +0.000 A 
BRANCH   5   8
ATOM      8  C   UNL     1      48.725   7.433  17.784  0.00  0.00    +0.000 C 
BRANCH   8   9
ATOM      9  N   UNL     1      47.642   6.544  18.184  0.00  0.00    +0.000 NA
ATOM     10  H   UNL     1      47.229   6.125  17.351  0.00  0.00    +0.000 HD
BRANCH   9  11
ATOM     11  C   UNL     1      48.099   5.475  19.067  0.00  0.00    +0.000 C 
BRANCH  11  12
ATOM     12  C   UNL     1      48.684   4.343  18.255  0.00  0.00    +0.000 A 
ATOM     13  C   UNL     1      50.055   4.055  18.294  0.00  0.00    +0.000 A 
ATOM     14  C   UNL     1      50.574   2.988  17.555  0.00  0.00    +0.000 A 
ATOM     15  C   UNL     1      49.730   2.206  16.766  0.00  0.00    +0.000 A 
ATOM     16  C   UNL     1      48.369   2.496  16.704  0.00  0.00    +0.000 A 
ATOM     17  C   UNL     1      47.850   3.555  17.446  0.00  0.00    +0.000 A 
ENDBRANCH  11  12
ENDBRANCH   9  11
ENDBRANCH   8   9
ENDBRANCH   5   8
ENDBRANCH   1   2
BRANCH   1  20
ATOM     18  C   UNL     1      46.388   6.995  11.388  0.00  0.00    +0.000 C 
ATOM     19  O   UNL     1      45.696   7.897  11.856  0.00  0.00    +0.000 OA
ATOM     20  N   UNL     1      47.756   7.069  11.404  0.00  0.00    +0.000 N 
ATOM     21  H   UNL     1      48.298   6.368  10.920  0.00  0.00    +0.000 HD
BRANCH  18  29
ATOM     22  C   UNL     1      44.584   4.390  12.737  0.00  0.00    +0.000 A 
ATOM     23  N   UNL     1      43.773   3.344  12.979  0.00  0.00    +0.000 NA
ATOM     24  C   UNL     1      43.370   2.604  11.945  0.00  0.00    +0.000 A 
ATOM     25  N   UNL     1      43.703   2.768  10.667  0.00  0.00    +0.000 NA
ATOM     26  C   UNL     1      44.507   3.826  10.466  0.00  0.00    +0.000 A 
ATOM     27  S   UNL     1      45.054   4.178   8.898  0.00  0.00    +0.000 S 
ATOM     28  C   UNL     1      45.897   5.550   9.448  0.00  0.00    +0.000 A 
ATOM     29  C   UNL     1      45.773   5.780  10.814  0.00  0.00    +0.000 A 
ATOM     30  C   UNL     1      44.982   4.714  11.428  0.00  0.00    +0.000 A 
BRANCH  22  32
ATOM     31  C   UNL     1      46.329   4.729  14.274  0.00  0.00    +0.000 C 
ATOM     32  O   UNL     1      45.046   5.130  13.805  0.00  0.00    +0.000 OA
ENDBRANCH  22  32
ENDBRANCH  18  29
ENDBRANCH   1  20
TORSDOF 8
ENDMDL
MODEL 7
REMARK VINA RESULT:    -6.672      4.571      9.151
REMARK INTER + INTRA:         -11.401
REMARK INTER:                 -10.425
REMARK INTRA:                  -0.976
REMARK UNBOUND:                -1.609
REMARK  Name = 
REMARK  9 active torsions:
REMARK  status: ('A' for Active; 'I' for Inactive)
REMARK    1  A    between atoms: C_1  and  O_2
REMARK    2  A    between atoms: O_2  and  C_3
REMARK    3  A    between atoms: C_10  and  C_11
REMARK    4  A    between atoms: N_13  and  C_14
REMARK    5  A    between atoms: C_14  and  C_15
REMARK    6  A    between atoms: C_18  and  C_19
REMARK    7  A    between atoms: C_19  and  N_20
REMARK    8  A    between atoms: N_20  and  C_21
REMARK    9  A    between atoms: C_21  and  C_22
REMARK                            x       y       z     vdW  Elec       q    Type
REMARK                         _______ _______ _______ _____ _____    ______ ____
ROOT
ATOM      1  C   UNL     1      47.184   3.399  16.834  0.00  0.00    +0.000 C 
ENDROOT
BRANCH   1   2
ATOM      2  C   UNL     1      48.675   3.395  17.093  0.00  0.00    +0.000 A 
ATOM      3  C   UNL     1      49.410   2.206  17.008  0.00  0.00    +0.000 A 
ATOM      4  C   UNL     1      50.775   2.181  17.327  0.00  0.00    +0.000 A 
ATOM      5  C   UNL     1      51.436   3.340  17.756  0.00  0.00    +0.000 A 
ATOM      6  C   UNL     1      50.703   4.537  17.817  0.00  0.00    +0.000 A 
ATOM      7  C   UNL     1      49.344   4.566  17.482  0.00  0.00    +0.000 A 
BRANCH   5   8
ATOM      8  C   UNL     1      52.893   3.318  18.159  0.00  0.00    +0.000 C 
BRANCH   8   9
ATOM      9  N   UNL     1      53.192   2.136  18.955  0.00  0.00    +0.000 NA
ATOM     10  H   UNL     1      52.667   1.343  18.586  0.00  0.00    +0.000 HD
BRANCH   9  11
ATOM     11  C   UNL     1      54.613   1.801  18.939  0.00  0.00    +0.000 C 
BRANCH  11  12
ATOM     12  C   UNL     1      54.860   0.617  18.034  0.00  0.00    +0.000 A 
ATOM     13  C   UNL     1      54.671  -0.696  18.487  0.00  0.00    +0.000 A 
ATOM     14  C   UNL     1      54.881  -1.777  17.626  0.00  0.00    +0.000 A 
ATOM     15  C   UNL     1      55.289  -1.557  16.310  0.00  0.00    +0.000 A 
ATOM     16  C   UNL     1      55.500  -0.257  15.856  0.00  0.00    +0.000 A 
ATOM     17  C   UNL     1      55.284   0.822  16.711  0.00  0.00    +0.000 A 
ENDBRANCH  11  12
ENDBRANCH   9  11
ENDBRANCH   8   9
ENDBRANCH   5   8
ENDBRANCH   1   2
BRANCH   1  20
ATOM     18  C   UNL     1      46.916   4.126  14.481  0.00  0.00    +0.000 C 
ATOM     19  O   UNL     1      47.282   3.031  14.059  0.00  0.00    +0.000 OA
ATOM     20  N   UNL     1      46.835   4.377  15.825  0.00  0.00    +0.000 N 
ATOM     21  H   UNL     1      46.433   5.246  16.146  0.00  0.00    +0.000 HD
BRANCH  18  29
ATOM     22  C   UNL     1      44.088   4.916  12.682  0.00  0.00    +0.000 A 
ATOM     23  N   UNL     1      43.098   5.507  11.988  0.00  0.00    +0.000 NA
ATOM     24  C   UNL     1      43.339   6.695  11.430  0.00  0.00    +0.000 A 
ATOM     25  N   UNL     1      44.483   7.374  11.460  0.00  0.00    +0.000 NA
ATOM     26  C   UNL     1      45.443   6.755  12.167  0.00  0.00    +0.000 A 
ATOM     27  S   UNL     1      46.980   7.463  12.296  0.00  0.00    +0.000 S 
ATOM     28  C   UNL     1      47.534   6.197  13.288  0.00  0.00    +0.000 A 
ATOM     29  C   UNL     1      46.574   5.227  13.555  0.00  0.00    +0.000 A 
ATOM     30  C   UNL     1      45.339   5.538  12.838  0.00  0.00    +0.000 A 
BRANCH  22  32
ATOM     31  C   UNL     1      43.515   2.677  12.256  0.00  0.00    +0.000 C 
ATOM     32  O   UNL     1      43.864   3.666  13.219  0.00  0.00    +0.000 OA
ENDBRANCH  22  32
ENDBRANCH  18  29
ENDBRANCH   1  20
TORSDOF 8
ENDMDL
MODEL 8
REMARK VINA RESULT:    -6.627      2.484      3.203
REMARK INTER + INTRA:         -11.335
REMARK INTER:                 -10.213
REMARK INTRA:                  -1.122
REMARK UNBOUND:                -1.609
REMARK  Name = 
REMARK  9 active torsions:
REMARK  status: ('A' for Active; 'I' for Inactive)
REMARK    1  A    between atoms: C_1  and  O_2
REMARK    2  A    between atoms: O_2  and  C_3
REMARK    3  A    between atoms: C_10  and  C_11
REMARK    4  A    between atoms: N_13  and  C_14
REMARK    5  A    between atoms: C_14  and  C_15
REMARK    6  A    between atoms: C_18  and  C_19
REMARK    7  A    between atoms: C_19  and  N_20
REMARK    8  A    between atoms: N_20  and  C_21
REMARK    9  A    between atoms: C_21  and  C_22
REMARK                            x       y       z     vdW  Elec       q    Type
REMARK                         _______ _______ _______ _____ _____    ______ ____
ROOT
ATOM      1  C   UNL     1      47.946   7.324  13.010  0.00  0.00    +0.000 C 
ENDROOT
BRANCH   1   2
ATOM      2  C   UNL     1      46.786   6.452  12.583  0.00  0.00    +0.000 A 
ATOM      3  C   UNL     1      46.234   5.515  13.467  0.00  0.00    +0.000 A 
ATOM      4  C   UNL     1      45.214   4.649  13.050  0.00  0.00    +0.000 A 
ATOM      5  C   UNL     1      44.732   4.683  11.736  0.00  0.00    +0.000 A 
ATOM      6  C   UNL     1      45.268   5.639  10.856  0.00  0.00    +0.000 A 
ATOM      7  C   UNL     1      46.275   6.517  11.277  0.00  0.00    +0.000 A 
BRANCH   5   8
ATOM      8  C   UNL     1      43.673   3.717  11.254  0.00  0.00    +0.000 C 
BRANCH   8   9
ATOM      9  N   UNL     1      43.826   3.448   9.831  0.00  0.00    +0.000 NA
ATOM     10  H   UNL     1      44.392   4.185   9.411  0.00  0.00    +0.000 HD
BRANCH   9  11
ATOM     11  C   UNL     1      44.470   2.163   9.574  0.00  0.00    +0.000 C 
BRANCH  11  12
ATOM     12  C   UNL     1      45.520   2.311   8.498  0.00  0.00    +0.000 A 
ATOM     13  C   UNL     1      45.753   3.545   7.875  0.00  0.00    +0.000 A 
ATOM     14  C   UNL     1      46.746   3.667   6.899  0.00  0.00    +0.000 A 
ATOM     15  C   UNL     1      47.508   2.559   6.532  0.00  0.00    +0.000 A 
ATOM     16  C   UNL     1      47.271   1.323   7.129  0.00  0.00    +0.000 A 
ATOM     17  C   UNL     1      46.287   1.202   8.108  0.00  0.00    +0.000 A 
ENDBRANCH  11  12
ENDBRANCH   9  11
ENDBRANCH   8   9
ENDBRANCH   5   8
ENDBRANCH   1   2
BRANCH   1  20
ATOM     18  C   UNL     1      48.892   8.250  15.103  0.00  0.00    +0.000 C 
ATOM     19  O   UNL     1      49.658   8.982  14.480  0.00  0.00    +0.000 OA
ATOM     20  N   UNL     1      48.020   7.418  14.453  0.00  0.00    +0.000 N 
ATOM     21  H   UNL     1      47.331   6.906  14.984  0.00  0.00    +0.000 HD
BRANCH  18  29
ATOM     22  C   UNL     1      51.182   7.169  17.437  0.00  0.00    +0.000 A 
ATOM     23  N   UNL     1      51.932   6.941  18.532  0.00  0.00    +0.000 NA
ATOM     24  C   UNL     1      51.434   7.288  19.721  0.00  0.00    +0.000 A 
ATOM     25  N   UNL     1      50.242   7.828  19.961  0.00  0.00    +0.000 NA
ATOM     26  C   UNL     1      49.528   8.044  18.843  0.00  0.00    +0.000 A 
ATOM     27  S   UNL     1      47.969   8.707  18.957  0.00  0.00    +0.000 S 
ATOM     28  C   UNL     1      47.790   8.701  17.265  0.00  0.00    +0.000 A 
ATOM     29  C   UNL     1      48.900   8.217  16.581  0.00  0.00    +0.000 A 
ATOM     30  C   UNL     1      49.918   7.776  17.533  0.00  0.00    +0.000 A 
BRANCH  22  32
ATOM     31  C   UNL     1      53.040   6.390  16.225  0.00  0.00    +0.000 C 
ATOM     32  O   UNL     1      51.667   6.767  16.210  0.00  0.00    +0.000 OA
ENDBRANCH  22  32
ENDBRANCH  18  29
ENDBRANCH   1  20
TORSDOF 8
ENDMDL
MODEL 9
REMARK VINA RESULT:    -6.589      2.495      3.715
REMARK INTER + INTRA:         -11.279
REMARK INTER:                 -10.446
REMARK INTRA:                  -0.833
REMARK UNBOUND:                -1.609
REMARK  Name = 
REMARK  9 active torsions:
REMARK  status: ('A' for Active; 'I' for Inactive)
REMARK    1  A    between atoms: C_1  and  O_2
REMARK    2  A    between atoms: O_2  and  C_3
REMARK    3  A    between atoms: C_10  and  C_11
REMARK    4  A    between atoms: N_13  and  C_14
REMARK    5  A    between atoms: C_14  and  C_15
REMARK    6  A    between atoms: C_18  and  C_19
REMARK    7  A    between atoms: C_19  and  N_20
REMARK    8  A    between atoms: N_20  and  C_21
REMARK    9  A    between atoms: C_21  and  C_22
REMARK                            x       y       z     vdW  Elec       q    Type
REMARK                         _______ _______ _______ _____ _____    ______ ____
ROOT
ATOM      1  C   UNL     1      47.233   4.441  15.509  0.00  0.00    +0.000 C 
ENDROOT
BRANCH   1   2
ATOM      2  C   UNL     1      46.754   4.800  14.119  0.00  0.00    +0.000 A 
ATOM      3  C   UNL     1      47.146   6.003  13.518  0.00  0.00    +0.000 A 
ATOM      4  C   UNL     1      46.641   6.378  12.266  0.00  0.00    +0.000 A 
ATOM      5  C   UNL     1      45.716   5.571  11.590  0.00  0.00    +0.000 A 
ATOM      6  C   UNL     1      45.342   4.353  12.182  0.00  0.00    +0.000 A 
ATOM      7  C   UNL     1      45.860   3.969  13.425  0.00  0.00    +0.000 A 
BRANCH   5   8
ATOM      8  C   UNL     1      45.117   5.989  10.266  0.00  0.00    +0.000 C 
BRANCH   8   9
ATOM      9  N   UNL     1      45.740   5.264   9.166  0.00  0.00    +0.000 NA
ATOM     10  H   UNL     1      46.648   4.914   9.468  0.00  0.00    +0.000 HD
BRANCH   9  11
ATOM     11  C   UNL     1      44.930   4.135   8.717  0.00  0.00    +0.000 C 
BRANCH  11  12
ATOM     12  C   UNL     1      45.786   3.149   7.958  0.00  0.00    +0.000 A 
ATOM     13  C   UNL     1      46.469   3.525   6.793  0.00  0.00    +0.000 A 
ATOM     14  C   UNL     1      47.276   2.605   6.119  0.00  0.00    +0.000 A 
ATOM     15  C   UNL     1      47.402   1.300   6.597  0.00  0.00    +0.000 A 
ATOM     16  C   UNL     1      46.711   0.909   7.741  0.00  0.00    +0.000 A 
ATOM     17  C   UNL     1      45.912   1.829   8.419  0.00  0.00    +0.000 A 
ENDBRANCH  11  12
ENDBRANCH   9  11
ENDBRANCH   8   9
ENDBRANCH   5   8
ENDBRANCH   1   2
BRANCH   1  20
ATOM     18  C   UNL     1      48.504   5.689  17.229  0.00  0.00    +0.000 C 
ATOM     19  O   UNL     1      47.765   5.286  18.125  0.00  0.00    +0.000 OA
ATOM     20  N   UNL     1      48.311   5.312  15.927  0.00  0.00    +0.000 N 
ATOM     21  H   UNL     1      48.991   5.571  15.227  0.00  0.00    +0.000 HD
BRANCH  18  29
ATOM     22  C   UNL     1      51.901   5.276  17.615  0.00  0.00    +0.000 A 
ATOM     23  N   UNL     1      53.239   5.409  17.688  0.00  0.00    +0.000 NA
ATOM     24  C   UNL     1      53.746   6.638  17.804  0.00  0.00    +0.000 A 
ATOM     25  N   UNL     1      53.065   7.779  17.882  0.00  0.00    +0.000 NA
ATOM     26  C   UNL     1      51.736   7.605  17.799  0.00  0.00    +0.000 A 
ATOM     27  S   UNL     1      50.704   8.949  17.902  0.00  0.00    +0.000 S 
ATOM     28  C   UNL     1      49.329   7.971  17.686  0.00  0.00    +0.000 A 
ATOM     29  C   UNL     1      49.616   6.621  17.517  0.00  0.00    +0.000 A 
ATOM     30  C   UNL     1      51.056   6.399  17.638  0.00  0.00    +0.000 A 
BRANCH  22  32
ATOM     31  C   UNL     1      52.244   2.983  18.002  0.00  0.00    +0.000 C 
ATOM     32  O   UNL     1      51.366   4.007  17.546  0.00  0.00    +0.000 OA
ENDBRANCH  22  32
ENDBRANCH  18  29
ENDBRANCH   1  20
TORSDOF 8
ENDMDL
